data_mof_unit_35682.cif
_audit_creation_date              2013-03-05T15:53:32-0500
_audit_creation_method            fapswitch 2.2
_symmetry_space_group_name_H-M    P1
_symmetry_Int_Tables_number       1
_space_group_crystal_system       triclinic
_cell_length_a                    30.576157
_cell_length_b                    7.259397
_cell_length_c                    25.98378
_cell_angle_alpha                 89.913984
_cell_angle_beta                  112.113122
_cell_angle_gamma                 90.119132
_cell_volume                      5343.22117404

loop_
_atom_site_label
_atom_site_type_symbol
_atom_site_description
_atom_site_fract_x
_atom_site_fract_y
_atom_site_fract_z
_atom_type_partial_charge
O1    O     O_R   0.295360 0.592990 0.320420 -0.586151
O2    O     O_R   0.704640 0.407010 0.679580 -0.576862
O3    O     O_R   0.204640 0.092990 0.179580 -0.586202
O4    O     O_R   0.795360 0.907010 0.820420 -0.576150
O5    O     O_R   0.294060 0.265620 0.213230 -0.586199
O6    O     O_R   0.705940 0.734380 0.786770 -0.585613
O7    O     O_R   0.205940 0.765620 0.286770 -0.586642
O8    O     O_R   0.794060 0.234380 0.713230 -0.606706
C1    C     C_R   0.305658 0.432816 0.201702 0.956181
C2    C     C_R   0.694391 0.567251 0.798470 0.959483
C3    C     C_R   0.194463 0.932371 0.298469 0.956229
C4    C     C_R   0.804651 0.068006 0.700041 0.964006
O9    O     O_R   0.300850 0.263360 0.322080 -0.581417
O10   O     O_R   0.699150 0.736640 0.677920 -0.590447
O11   O     O_R   0.199150 0.763360 0.177920 -0.581570
O12   O     O_R   0.800850 0.236640 0.822080 -0.586662
O13   O     O_R   0.211480 0.091820 0.289210 -0.587179
O14   O     O_R   0.788520 0.908180 0.710790 -0.590715
O15   O     O_R   0.288520 0.591820 0.210790 -0.586810
O16   O     O_R   0.711480 0.408180 0.789210 -0.586829
C5    C     C_R   0.313288 0.431539 0.343137 0.904909
C6    C     C_R   0.686758 0.568531 0.656825 0.901802
C7    C     C_R   0.186690 0.931478 0.156861 0.905443
C8    C     C_R   0.813249 0.068575 0.843192 0.914224
O17   O     O_3   0.220670 0.426670 0.239090 -0.283971
O18   O     O_3   0.779330 0.573330 0.760910 -0.290149
O19   O     O_3   0.279330 0.926670 0.260910 -0.283433
O20   O     O_3   0.720670 0.073330 0.739090 -0.280129
V1    V     V_3+5 0.255440 0.152290 0.252020 1.174492
V2    V     V_3+5 0.744560 0.847710 0.747980 1.169663
V3    V     V_3+5 0.244560 0.652290 0.247980 1.174454
V4    V     V_3+5 0.755440 0.347710 0.752020 1.161818
C9    C     C_R   0.850111 0.063735 0.899599 -0.109296
C10   C     C_R   0.149770 0.936467 0.100513 -0.104018
C11   C     C_R   0.649902 0.563431 0.600447 -0.101402
C12   C     C_R   0.350173 0.437022 0.399486 -0.103530
C13   C     C_R   0.872970 0.123091 0.998258 0.028990
C14   C     C_R   0.126730 0.874791 0.001974 0.031085
C15   C     C_R   0.627266 0.619562 0.501636 0.030725
C16   C     C_R   0.372803 0.382503 0.498362 0.030663
C17   C     C_R   0.838450 0.115270 0.944435 -0.179928
C18   C     C_R   0.161340 0.884083 0.055688 -0.186327
C19   C     C_R   0.661766 0.611870 0.555468 -0.183957
C20   C     C_R   0.338329 0.389095 0.444512 -0.186007
C21   C     C_R   0.897048 0.020445 0.908200 -0.241447
C22   C     C_R   0.102849 0.980017 0.091980 -0.238945
C23   C     C_R   0.602808 0.522944 0.591989 -0.245647
C24   C     C_R   0.397224 0.478401 0.407920 -0.238467
C25   C     C_R   0.933566 0.030675 0.962031 0.093974
C26   C     C_R   0.066298 0.969782 0.038167 0.093275
C27   C     C_R   0.566378 0.531825 0.538081 0.094144
C28   C     C_R   0.433638 0.470587 0.461861 0.093794
C29   C     C_R   0.920617 0.082678 0.007159 0.140794
C30   C     C_R   0.079184 0.916956 0.993052 0.139984
C31   C     C_R   0.579559 0.579747 0.492758 0.138672
C32   C     C_R   0.420469 0.422925 0.507215 0.139812
C33   C     C_R   0.982424 0.993254 0.972469 0.067431
C34   C     C_R   0.017470 0.008018 0.027709 0.068707
C35   C     C_R   0.517422 0.496163 0.527702 0.068622
C36   C     C_R   0.482573 0.506853 0.472249 0.067861
C37   C     C_R   0.002506 0.060207 0.070696 -0.189616
C38   C     C_R   0.997431 0.942414 0.929412 -0.191600
C39   C     C_R   0.497853 0.552615 0.428964 -0.190288
C40   C     C_R   0.502123 0.451115 0.571017 -0.195685
C41   C     C_R   0.955464 0.096305 0.060610 -0.205844
C42   C     C_R   0.044438 0.905900 0.939492 -0.206570
C43   C     C_R   0.544961 0.587891 0.439034 -0.204187
C44   C     C_R   0.455033 0.415713 0.560963 -0.205118
H1    H     H_    0.946661 0.136749 0.095642 0.160274
H2    H     H_    0.053314 0.867683 0.904336 0.159341
H3    H     H_    0.554059 0.622247 0.403718 0.162953
H4    H     H_    0.445929 0.381874 0.596308 0.160745
H5    H     H_    0.096177 0.017076 0.128464 0.098611
H6    H     H_    0.903751 0.983619 0.871727 0.107953
H7    H     H_    0.404056 0.512733 0.371312 0.098074
H8    H     H_    0.595970 0.488333 0.628570 0.104029
H9    H     H_    0.197572 0.848411 0.062794 0.129215
H10   H     H_    0.802134 0.149544 0.937329 0.130814
H11   H     H_    0.301978 0.355232 0.437488 0.130036
H12   H     H_    0.698146 0.645397 0.562521 0.130441
H13   H     H_    0.026377 0.075406 0.113196 0.136396
H14   H     H_    0.973641 0.928914 0.886828 0.142632
H15   H     H_    0.474209 0.562813 0.386211 0.137309
H16   H     H_    0.525728 0.441798 0.613801 0.139805
C45   C     C_R   0.091380 0.984416 0.477388 0.636015
C46   C     C_R   0.906913 0.013333 0.519508 0.637135
C47   C     C_R   0.408774 0.499288 0.023424 0.618881
C48   C     C_R   0.592735 0.543040 0.979642 0.615151
N1    N     N_R   0.071577 0.952808 0.421431 -0.158458
N2    N     N_R   0.926643 0.000587 0.576150 -0.156774
N3    N     N_R   0.429089 0.468860 0.079484 -0.158202
N4    N     N_R   0.572873 0.520500 0.923217 -0.158442
C49   C     C_R   0.023875 0.928513 0.395176 0.605086
C50   C     C_R   0.974206 0.975677 0.603225 0.616077
C51   C     C_R   0.476986 0.451194 0.105423 0.622324
C52   C     C_R   0.525418 0.490033 0.897015 0.623861
C53   C     C_R   0.993282 0.950199 0.424501 -0.089063
C54   C     C_R   0.004877 0.977749 0.573523 -0.083701
C55   C     C_R   0.506950 0.477248 0.075632 -0.105098
C56   C     C_R   0.495185 0.495406 0.927013 -0.102484
C57   C     C_R   0.013707 0.969428 0.483096 -0.022034
C58   C     C_R   0.984495 0.978721 0.514614 -0.020143
C59   C     C_R   0.486331 0.492820 0.017114 -0.021829
C60   C     C_R   0.515600 0.503106 0.985677 -0.022204
C61   C     C_R   0.063384 0.979919 0.510180 -0.103382
C62   C     C_R   0.934860 0.989678 0.487177 -0.104484
C63   C     C_R   0.436472 0.497156 0.990076 -0.086598
C64   C     C_R   0.565269 0.520135 0.012842 -0.089394
C65   C     C_R   0.943240 0.954030 0.397524 -0.014570
C66   C     C_R   0.054943 0.980552 0.600368 -0.015510
C67   C     C_R   0.556642 0.487326 0.102667 0.096353
C68   C     C_R   0.445429 0.492798 0.900020 0.097331
C69   C     C_R   0.914585 0.977529 0.428536 0.094201
C70   C     C_R   0.083653 0.985766 0.568912 0.096457
C71   C     C_R   0.585491 0.512834 0.071907 -0.016053
C72   C     C_R   0.416307 0.498072 0.930972 -0.016155
O21   O     O_2   0.138094 0.019222 0.500914 -0.510205
O22   O     O_2   0.860291 0.048133 0.494902 -0.514715
O23   O     O_2   0.361945 0.530588 0.000578 -0.549459
O24   O     O_2   0.638876 0.587129 0.002978 -0.547680
O25   O     O_2   0.006602 0.882836 0.340936 -0.544657
O26   O     O_2   0.991259 0.950389 0.658672 -0.550992
O27   O     O_2   0.495300 0.407949 0.159915 -0.506315
O28   O     O_2   0.507806 0.454274 0.842037 -0.507761
C73   C     C_R   0.901921 0.172052 0.643471 0.404825
C74   C     C_R   0.095238 0.077540 0.346553 0.387130
C75   C     C_R   0.593730 0.668654 0.849048 0.383669
C76   C     C_R   0.405089 0.586453 0.154840 0.381027
C77   C     C_R   0.872012 0.192236 0.673488 -0.087680
C78   C     C_R   0.122944 0.068614 0.313435 -0.093541
C79   C     C_R   0.620688 0.674155 0.814940 -0.092069
C80   C     C_R   0.377322 0.573187 0.187823 -0.092671
C81   C     C_R   0.836987 0.057442 0.668902 -0.243275
C82   C     C_R   0.160515 0.939203 0.327106 -0.226708
C83   C     C_R   0.660515 0.556136 0.827345 -0.226643
C84   C     C_R   0.340120 0.441509 0.173747 -0.226925
C85   C     C_R   0.832897 0.905022 0.634204 -0.295655
C86   C     C_R   0.166062 0.810143 0.369311 -0.285686
C87   C     C_R   0.668674 0.421744 0.868775 -0.288769
C88   C     C_R   0.335309 0.313442 0.131609 -0.287165
H17   H     H_    0.806458 0.800955 0.630567 0.182315
H18   H     H_    0.193755 0.707904 0.378584 0.184337
H19   H     H_    0.698075 0.327866 0.877234 0.182265
H20   H     H_    0.307965 0.209287 0.122116 0.184956
C89   C     C_R   0.862055 0.882534 0.603955 0.397895
C90   C     C_R   0.136438 0.808170 0.399441 0.404244
C91   C     C_R   0.639458 0.403252 0.899102 0.404290
C92   C     C_R   0.365113 0.315500 0.101665 0.409937
C93   C     C_R   0.896761 0.017865 0.608068 -0.100012
C94   C     C_R   0.101473 0.946286 0.389246 -0.094726
C95   C     C_R   0.602380 0.530990 0.890537 -0.093525
C96   C     C_R   0.399478 0.456762 0.111995 -0.094665
N5    N     N_R   0.855921 0.720934 0.569620 0.253956
O29   O     O_R   0.816364 0.629477 0.553209 -0.395190
O30   O     O_R   0.890480 0.656341 0.557474 -0.350928
N6    N     N_R   0.142439 0.665135 0.440129 0.260520
O31   O     O_R   0.182741 0.580746 0.462469 -0.373439
O32   O     O_R   0.106869 0.606668 0.451559 -0.355084
N7    N     N_R   0.648082 0.254270 0.938435 0.255162
O33   O     O_R   0.689987 0.182146 0.960695 -0.389582
O34   O     O_R   0.613521 0.178222 0.948396 -0.355742
N8    N     N_R   0.359773 0.173759 0.060861 0.259686
O35   O     O_R   0.319945 0.085615 0.038643 -0.377811
O36   O     O_R   0.395523 0.120441 0.049085 -0.361515
N9    N     N_3   0.859854 0.174546 0.043953 -0.209001
H21   H     H_    0.824672 0.217764 0.029640 0.146039
H22   H     H_    0.861941 0.056097 0.067699 0.124826
N10   N     N_3   0.139652 0.819783 0.956429 -0.207433
H23   H     H_    0.176370 0.814058 0.968830 0.142102
H24   H     H_    0.127157 0.685592 0.945492 0.118692
N11   N     N_3   0.640485 0.670138 0.455900 -0.205216
H25   H     H_    0.677227 0.675203 0.468458 0.148111
H26   H     H_    0.628220 0.803963 0.444017 0.121049
N12   N     N_3   0.359602 0.332429 0.544150 -0.205078
H27   H     H_    0.322863 0.327061 0.531590 0.146146
H28   H     H_    0.371956 0.198810 0.556206 0.120729
N13   N     N_3   0.919843 0.941473 0.338266 -0.219697
H29   H     H_    0.931937 0.046486 0.319385 0.187763
H30   H     H_    0.925939 0.811748 0.324939 0.184503
N14   N     N_3   0.078345 0.984913 0.659733 -0.219499
H31   H     H_    0.067039 0.099848 0.675516 0.185540
H32   H     H_    0.071350 0.862863 0.676616 0.185799
N15   N     N_3   0.578314 0.478146 0.162178 -0.140427
H33   H     H_    0.597217 0.599932 0.176798 0.137576
H34   H     H_    0.601949 0.367655 0.173115 0.136903
N16   N     N_3   0.423853 0.491355 0.840439 -0.139833
H35   H     H_    0.402837 0.608900 0.827365 0.136850
H36   H     H_    0.402225 0.374937 0.828032 0.139512
N17   N     N_3   0.864242 0.983228 0.399828 -0.143516
H37   H     H_    0.853228 0.860609 0.377585 0.135131
H38   H     H_    0.855831 0.093092 0.371715 0.135503
N18   N     N_3   0.134023 0.991111 0.597424 -0.142113
H39   H     H_    0.144520 0.875209 0.623075 0.134193
H40   H     H_    0.142948 0.109117 0.622281 0.139323
N19   N     N_3   0.635503 0.523639 0.102538 -0.219752
H41   H     H_    0.652406 0.419248 0.089414 0.184539
H42   H     H_    0.647762 0.653580 0.096862 0.183777
N20   N     N_3   0.366209 0.497163 0.900396 -0.219494
H43   H     H_    0.351234 0.382774 0.912042 0.183554
H44   H     H_    0.351717 0.619821 0.907761 0.186501
N21   N     N_R   0.937603 0.309300 0.649056 0.256602
O37   O     O_R   0.962600 0.377587 0.697561 -0.361835
O38   O     O_R   0.946719 0.361675 0.606236 -0.364171
N22   N     N_R   0.061102 0.222580 0.337583 0.246889
O39   O     O_R   0.028988 0.251535 0.288505 -0.381690
O40   O     O_R   0.059445 0.316021 0.379469 -0.351398
N23   N     N_R   0.557993 0.805620 0.842483 0.250521
O41   O     O_R   0.524916 0.836207 0.794184 -0.369573
O42   O     O_R   0.555808 0.888221 0.885836 -0.350249
N24   N     N_R   0.438463 0.734877 0.163950 0.248087
O43   O     O_R   0.470473 0.764818 0.213033 -0.371491
O44   O     O_R   0.439544 0.830921 0.122166 -0.347529
N25   N     N_3   0.878014 0.351430 0.708163 -0.154785
H45   H     H_    0.882430 0.309369 0.748319 0.124048
H46   H     H_    0.848275 0.435566 0.691639 0.161397
N26   N     N_3   0.111243 0.189332 0.265961 -0.166796
H47   H     H_    0.132684 0.169193 0.243498 0.111792
H48   H     H_    0.077837 0.150530 0.237977 0.149110
N27   N     N_3   0.606002 0.797090 0.767781 -0.165418
H49   H     H_    0.625825 0.780893 0.743213 0.111380
H50   H     H_    0.572405 0.754841 0.741225 0.155840
N28   N     N_3   0.388482 0.692334 0.235517 -0.166486
H51   H     H_    0.367401 0.667220 0.258195 0.110626
H52   H     H_    0.422179 0.656266 0.263281 0.149654

loop_
_geom_bond_atom_site_label_1
_geom_bond_atom_site_label_2
_geom_bond_distance
_ccdc_geom_bond_type
O17   V3    1.771627 S    
C55   C59   1.414316 A    
N11   H25   1.045847 S    
C25   C29   1.423311 A    
O1    C5    1.334011 A    
C57   C58   1.422728 A    
C54   C66   1.423516 A    
C47   N3    1.369261 A    
O19   V1    1.773793 S    
O13   V1    1.976701 S    
N21   O37   1.301316 A    
O3    C7    1.334120 A    
C10   C18   1.392273 A    
C56   C60   1.414214 A    
C84   C88   1.402142 A    
C11   C23   1.402972 A    
C88   C92   1.403491 A    
C25   C33   1.440636 A    
C33   C38   1.409592 A    
C5    C12   1.474470 S    
C46   C62   1.416663 A    
N25   H45   1.045585 S    
C81   C85   1.403663 A    
C6    C11   1.474599 S    
N11   H26   1.045569 S    
C87   C91   1.402193 A    
C35   C40   1.409664 A    
N9    H21   1.045832 S    
C36   C39   1.409762 A    
C80   N28   1.443597 S    
C40   C44   1.386668 A    
C64   C71   1.423365 A    
O2    V4    1.984964 S    
N6    O31   1.301656 A    
C49   O25   1.347377 S    
C23   H8    1.076566 S    
C14   C18   1.400137 A    
C79   C83   1.424365 A    
N15   H34   1.045694 S    
C68   N16   1.436359 S    
N3    C96   1.454764 S    
O4    C8    1.334417 A    
C51   C55   1.416718 A    
N10   H24   1.045576 S    
C44   H4    1.082965 S    
C43   H3    1.082972 S    
C50   C54   1.421280 A    
C60   C64   1.418580 A    
O1    V3    1.984965 S    
C9    C21   1.403070 A    
C31   C43   1.399824 A    
C79   N27   1.443514 S    
O3    V1    1.984787 S    
C75   N23   1.440610 S    
N12   H27   1.045828 S    
C40   H16   1.075759 S    
C15   N11   1.438812 S    
C28   C36   1.440650 A    
C75   C95   1.419175 A    
C90   C94   1.417342 A    
C87   H19   1.083615 S    
C76   C96   1.419125 A    
C15   C31   1.417625 A    
C48   N4    1.369345 A    
C2    O16   1.327548 A    
N13   H30   1.044903 S    
O2    C6    1.334386 A    
N7    O34   1.300598 A    
C78   N26   1.443417 S    
N20   H43   1.045353 S    
C10   C22   1.403421 A    
C67   C71   1.407461 A    
C66   N14   1.435781 S    
N5    O30   1.299855 A    
C11   C19   1.392324 A    
C66   C70   1.407176 A    
C16   C20   1.400286 A    
N8    O36   1.300860 A    
C80   C84   1.422930 A    
C13   C29   1.417696 A    
C34   C37   1.409685 A    
O11   C7    1.333044 A    
C82   C86   1.402404 A    
C38   H14   1.075699 S    
O15   V3    1.978587 S    
C35   C36   1.435847 A    
O12   C8    1.332861 A    
C16   C32   1.417451 A    
C77   N25   1.434847 S    
N21   O38   1.300730 A    
C24   H7    1.076681 S    
C78   C82   1.422922 A    
O10   V2    1.997173 S    
N2    C93   1.452466 S    
C45   C61   1.417296 A    
C76   C80   1.418366 A    
C1    O15   1.326351 A    
N2    C50   1.368585 A    
C27   C35   1.440519 A    
O5    V1    1.994161 S    
N25   H46   1.044902 S    
N4    C52   1.368622 A    
C57   C61   1.415309 A    
C39   C43   1.386963 A    
O7    V3    1.997430 S    
C38   C42   1.386582 A    
C62   C69   1.415199 A    
N23   O41   1.300652 A    
C26   C34   1.440795 A    
C92   C96   1.418349 A    
C61   C70   1.415209 A    
C70   N18   1.436351 S    
N26   H47   1.039523 S    
C86   H18   1.083673 S    
C3    C82   1.488419 S    
C17   H10   1.084269 S    
C74   C78   1.418307 A    
C45   N1    1.367827 A    
O18   V4    1.771628 S    
C76   N24   1.439667 S    
C74   N22   1.439784 S    
C19   H12   1.084289 S    
C32   C44   1.399590 A    
N1    C49   1.368941 A    
O4    V2    1.984790 S    
C39   H15   1.075899 S    
C21   H6    1.076492 S    
O8    V4    1.997437 S    
C37   H13   1.075923 S    
C14   N10   1.438817 S    
N15   H33   1.045726 S    
C1    C84   1.489195 S    
C47   O23   1.347314 S    
C23   C27   1.425586 A    
N27   H50   1.044578 S    
C72   N20   1.435759 S    
C85   C89   1.402814 A    
O7    C3    1.328187 A    
N7    O33   1.301670 A    
C14   C30   1.417337 A    
C21   C25   1.425778 A    
O8    C4    1.329461 A    
C7    C10   1.474791 S    
C55   C67   1.415446 A    
N4    C95   1.455030 S    
C67   N15   1.436344 S    
C91   N7    1.441771 S    
O9    C5    1.333401 A    
C46   O22   1.348897 S    
C26   C30   1.423455 A    
C2    C83   1.492266 S    
C45   O21   1.348807 S    
C73   C93   1.420220 A    
C77   C81   1.420735 A    
C50   O26   1.347332 S    
C52   O28   1.348877 S    
N10   H23   1.045827 S    
O6    V2    1.994161 S    
N22   O40   1.300423 A    
C56   C68   1.415401 A    
N24   O44   1.300249 A    
C4    C81   1.496964 S    
C73   C77   1.415635 A    
C46   N2    1.367479 A    
O14   V2    1.976706 S    
C12   C20   1.392190 A    
C48   O24   1.347276 S    
O9    V1    1.997173 S    
N16   H36   1.045697 S    
C49   C53   1.420532 A    
C68   C72   1.407313 A    
C29   C41   1.399947 A    
N14   H31   1.045349 S    
C59   C63   1.418598 A    
N8    O35   1.301652 A    
O16   V4    1.978585 S    
C51   O27   1.348832 S    
C89   N5    1.443454 S    
N27   H49   1.039496 S    
C85   H17   1.083187 S    
N1    C94   1.453640 S    
N14   H32   1.044929 S    
N28   H52   1.044760 S    
C20   H11   1.084178 S    
C88   H20   1.083606 S    
N26   H48   1.044815 S    
C3    O13   1.326396 A    
O6    C2    1.329300 A    
C13   N9    1.438944 S    
O11   V3    1.997293 S    
C30   C42   1.399544 A    
C65   C69   1.406678 A    
O12   V4    1.997295 S    
C69   N17   1.436397 S    
C22   C26   1.425869 A    
C8    C9    1.475151 S    
C71   N19   1.435754 S    
C83   C87   1.403065 A    
C9    C17   1.392438 A    
N18   H39   1.045727 S    
O10   C6    1.333046 A    
N6    O32   1.300823 A    
C53   C65   1.423354 A    
N5    O29   1.301820 A    
C92   N8    1.442836 S    
C54   C58   1.418893 A    
C73   N21   1.442494 S    
C16   N12   1.438822 S    
C74   C94   1.418869 A    
C33   C34   1.435952 A    
C42   H2    1.082965 S    
C86   C90   1.402612 A    
C41   H1    1.082959 S    
C91   C95   1.417223 A    
C52   C56   1.416469 A    
O20   V2    1.773793 S    
N12   H28   1.045572 S    
C12   C24   1.403194 A    
C27   C31   1.423317 A    
N24   O43   1.300721 A    
C13   C17   1.400648 A    
N17   H37   1.045736 S    
C75   C79   1.419936 A    
C63   C72   1.423324 A    
N3    C51   1.368533 A    
N19   H41   1.045355 S    
C48   C64   1.421807 A    
C37   C41   1.387025 A    
C24   C28   1.425627 A    
C47   C63   1.421578 A    
N22   O39   1.300724 A    
C15   C19   1.400539 A    
C18   H9    1.084188 S    
N9    H22   1.045541 S    
N13   H29   1.045402 S    
C58   C62   1.415495 A    
C4    O14   1.329588 A    
C59   C60   1.422542 A    
N23   O42   1.300690 A    
C65   N13   1.435874 S    
C89   C93   1.418891 A    
N20   H44   1.044901 S    
O5    C1    1.328813 A    
C90   N6    1.442580 S    
N17   H38   1.045704 S    
N16   H35   1.045726 S    
N28   H51   1.039758 S    
C22   H5    1.076708 S    
C53   C57   1.418447 A    
C28   C32   1.423424 A    
N18   H40   1.045700 S    
N19   H42   1.044890 S    
