data_mof_unit_65345.cif
_audit_creation_date              2013-03-05T15:58:28-0500
_audit_creation_method            fapswitch 2.2
_symmetry_space_group_name_H-M    P1
_symmetry_Int_Tables_number       1
_space_group_crystal_system       triclinic
_cell_length_a                    18.682221
_cell_length_b                    18.644512
_cell_length_c                    18.745754
_cell_angle_alpha                 109.396295
_cell_angle_beta                  109.826483
_cell_angle_gamma                 109.116322
_cell_volume                      5030.91329876

loop_
_atom_site_label
_atom_site_type_symbol
_atom_site_description
_atom_site_fract_x
_atom_site_fract_y
_atom_site_fract_z
_atom_type_partial_charge
O1    O     O_R   0.592040 0.539900 0.448690 -0.606259
O2    O     O_R   0.591220 0.643330 0.551330 -0.577586
C1    C     C_R   0.619473 0.620187 0.499483 1.020074
O3    O     O_R   0.408100 0.448290 0.356370 -0.556688
O4    O     O_R   0.407270 0.551710 0.459000 -0.607433
C2    C     C_R   0.379493 0.499786 0.379380 1.024166
Zn1   Zn    Zn3+2 0.500550 0.430940 0.431470 1.092651
Zn2   Zn    Zn3+2 0.499450 0.569060 0.568530 1.075435
O5    O     O_R   0.408780 0.356670 0.448670 -0.624642
O6    O     O_R   0.407960 0.460100 0.551310 -0.621668
O7    O     O_R   0.592730 0.448290 0.541000 -0.635736
O8    O     O_R   0.591900 0.551710 0.643630 -0.611314
C3    C     C_R   0.379726 0.379474 0.500020 0.888610
C4    C     C_R   0.621641 0.500335 0.621347 0.888430
C5    C     C_3   0.326979 0.579509 0.298516 -0.294126
C6    C     C_3   0.236418 0.561705 0.289106 0.212945
H1    H     H_    0.387892 0.644060 0.337376 0.230446
C7    C     C_3   0.190687 0.499277 0.190116 -0.420364
C8    C     C_3   0.280115 0.515068 0.199049 0.234571
C9    C     C_3   0.268616 0.437122 0.213769 0.332407
C10   C     C_3   0.179915 0.421405 0.205873 0.115135
C11   C     C_3   0.224631 0.483834 0.304329 0.310600
C12   C     C_3   0.313602 0.499737 0.312486 -0.195021
C13   C     C_R   0.757860 0.756206 0.579617 0.354354
C14   C     C_R   0.823656 0.819822 0.579985 0.183534
C15   C     C_R   0.813851 0.812836 0.499625 -0.361214
C16   C     C_R   0.740599 0.742350 0.419025 0.200033
C17   C     C_R   0.675137 0.679179 0.418801 0.145210
C18   C     C_R   0.684827 0.686655 0.499072 -0.286805
C19   C     C_R   0.696685 0.525530 0.770239 -0.150086
H2    H     H_    0.653004 0.545532 0.785512 0.178504
C20   C     C_R   0.760021 0.523282 0.833007 -0.206144
H3    H     H_    0.765811 0.542730 0.896898 0.167498
C21   C     C_R   0.816544 0.497442 0.813917 -0.121568
C22   C     C_R   0.809510 0.472013 0.730846 0.458768
C23   C     C_R   0.745385 0.474172 0.668468 -0.137673
H4    H     H_    0.739462 0.454965 0.604552 0.186536
C24   C     C_R   0.689152 0.500585 0.687916 -0.118184
C25   C     C_R   0.256120 0.330210 0.524649 -0.118633
H5    H     H_    0.260374 0.393759 0.544516 0.189528
C26   C     C_R   0.191727 0.265192 0.522713 -0.196384
H6    H     H_    0.147230 0.279082 0.542199 0.168419
C27   C     C_R   0.185695 0.183088 0.497135 -0.121240
C28   C     C_R   0.243229 0.164244 0.471465 0.460485
C29   C     C_R   0.307222 0.230009 0.473402 -0.147261
H7    H     H_    0.351997 0.216504 0.454179 0.187224
C30   C     C_R   0.313626 0.312485 0.499783 -0.126605
O9    O     O_R   0.951430 0.539890 0.094630 -0.626760
O10   O     O_R   0.054890 0.643310 0.094620 -0.606245
C31   C     C_R   0.002715 0.620331 0.122787 0.897646
O11   O     O_R   0.044450 0.448260 0.096050 -0.590810
O12   O     O_R   0.147910 0.551670 0.096030 -0.580523
C32   C     C_R   0.124291 0.499291 0.123528 1.048786
Zn3   Zn    Zn3+2 0.934780 0.430920 0.003740 1.067391
Zn4   Zn    Zn3+2 0.072940 0.569020 0.003710 1.080491
O13   O     O_R   0.952840 0.356630 0.912840 -0.607676
O14   O     O_R   0.056290 0.460040 0.912820 -0.619458
O15   O     O_R   0.859820 0.448260 0.911420 -0.615529
O16   O     O_R   0.963280 0.551670 0.911400 -0.612174
C33   C     C_R   0.004744 0.379550 0.884389 0.917646
C34   C     C_R   0.882933 0.499378 0.882208 0.822491
O17   O     O_R   0.052810 0.908290 0.461080 -0.624405
O18   O     O_R   0.948580 0.908330 0.356880 -0.590693
C35   C     C_R   0.000959 0.879921 0.380615 0.863582
O19   O     O_R   0.960490 0.908280 0.552000 -0.577562
O20   O     O_R   0.856260 0.908310 0.447800 -0.590740
C36   C     C_R   0.879930 0.879633 0.499843 0.996883
Zn5   Zn    Zn3+2 0.069600 0.999890 0.569480 1.099922
Zn6   Zn    Zn3+2 0.930400 0.999940 0.430340 1.071775
O21   O     O_R   0.051420 0.091500 0.642940 -0.565726
O22   O     O_R   0.947190 0.091540 0.538750 -0.628786
O23   O     O_R   0.143740 0.091510 0.552020 -0.607297
O24   O     O_R   0.039510 0.091550 0.447830 -0.612557
C37   C     C_R   0.998736 0.119452 0.618967 0.846665
C38   C     C_R   0.119956 0.119263 0.499283 0.808933
C39   C     C_R   0.010242 0.762268 0.184547 -0.159182
H8    H     H_    0.016429 0.771410 0.132352 0.162370
C40   C     C_R   0.008434 0.825602 0.247343 -0.153849
H9    H     H_    0.013982 0.884066 0.244229 0.157464
C41   C     C_R   0.001319 0.813905 0.314933 -0.004964
C42   C     C_R   0.994556 0.739042 0.319742 -0.107201
H10   H     H_    0.988668 0.730230 0.372194 0.163416
C43   C     C_R   0.993560 0.674460 0.255457 -0.085009
H11   H     H_    0.987612 0.615951 0.258651 0.175364
C44   C     C_R   0.002226 0.686661 0.188529 -0.017630
C45   C     C_R   0.076998 0.331771 0.807275 -0.105910
H12   H     H_    0.135786 0.395371 0.851275 0.219200
C46   C     C_R   0.075757 0.269272 0.740986 0.421332
C47   C     C_R   0.999005 0.186089 0.684536 -0.253419
C48   C     C_R   0.923798 0.167254 0.693705 0.466419
C49   C     C_R   0.927243 0.231640 0.760301 -0.138155
H13   H     H_    0.869835 0.217953 0.767504 0.199324
C50   C     C_R   0.003273 0.313076 0.816746 -0.228918
N1    N     N_R   0.219245 0.629699 0.332019 0.238376
O25   O     O_R   0.262182 0.676541 0.416901 -0.320543
O26   O     O_R   0.162822 0.645391 0.286233 -0.417030
N2    N     N_R   0.599001 0.607614 0.337250 0.262728
O27   O     O_R   0.521009 0.592791 0.322873 -0.365243
O28   O     O_R   0.607527 0.558392 0.276382 -0.276758
O29   O     O_3   0.861890 0.443578 0.707247 -0.741800
H14   H     H_    0.896786 0.433884 0.752356 0.330121
O30   O     O_3   0.238828 0.083526 0.443090 -0.737850
H15   H     H_    0.184345 0.039378 0.433667 0.329665
O31   O     O_3   0.150238 0.292740 0.733765 -0.720015
H16   H     H_    0.137315 0.249901 0.676495 0.327761
O32   O     O_3   0.846538 0.087738 0.640977 -0.707134
H17   H     H_    0.852213 0.044713 0.598655 0.355602
N3    N     N_R   0.308552 0.529975 0.139432 0.268230
O33   O     O_R   0.378642 0.601900 0.168482 -0.276137
O34   O     O_R   0.263886 0.471281 0.056838 -0.369041
O35   O     O_3   0.287401 0.372518 0.175903 -0.651659
H18   H     H_    0.248034 0.343779 0.111967 0.381970
N4    N     N_R   0.100990 0.335818 0.154511 0.255660
O36   O     O_R   0.061714 0.305216 0.191782 -0.324507
O37   O     O_R   0.070188 0.289080 0.071113 -0.345690
O38   O     O_3   0.198328 0.468466 0.361782 -0.688120
H19   H     H_    0.141702 0.467939 0.344059 0.370608
O39   O     O_3   0.762920 0.758819 0.656003 -0.716083
H20   H     H_    0.808568 0.817434 0.706958 0.385167
N5    N     N_R   0.900290 0.890612 0.661374 0.218511
O40   O     O_R   0.916353 0.970835 0.686538 -0.369489
O41   O     O_R   0.953715 0.874706 0.710849 -0.334864
N6    N     N_R   0.733123 0.734277 0.337495 0.257770
O42   O     O_R   0.793842 0.730997 0.319590 -0.384940
O43   O     O_R   0.664068 0.726817 0.279637 -0.274116

loop_
_geom_bond_atom_site_label_1
_geom_bond_atom_site_label_2
_geom_bond_distance
_ccdc_geom_bond_type
C17   N2    1.437923 S    
Zn4   O16   2.021257 S    
C7    C10   1.539326 S    
C35   C41   1.426698 S    
C26   H6    1.084314 S    
C8    C9    1.528526 S    
N2    O27   1.300949 A    
N6    O42   1.301245 A    
C25   C26   1.379864 A    
C29   H7    1.084043 S    
O38   H19   0.991070 S    
Zn1   O7    2.020270 S    
C15   C16   1.408308 A    
C15   C36   1.435714 S    
C37   C47   1.425417 S    
C17   C18   1.405655 A    
C39   C40   1.382416 A    
C21   C22   1.413157 A    
O23   C38   1.278634 A    
C19   H2    1.083469 S    
O7    C4    1.279052 A    
C45   C46   1.379692 A    
N6    O43   1.301206 A    
O20   Zn6   2.018241 S    
C49   C50   1.394042 A    
O32   H17   0.987026 S    
C5    C6    1.547433 S    
N3    O33   1.300229 A    
C19   C24   1.396676 A    
Zn6   O22   2.014078 S    
C7    C8    1.536652 S    
C1    C18   1.431166 S    
O5    C3    1.278959 A    
O39   H20   0.988755 S    
O17   C35   1.279315 A    
C31   C44   1.432123 S    
C46   O31   1.383584 S    
C13   C18   1.402194 A    
O18   Zn6   2.015936 S    
O19   C36   1.278594 A    
O21   C37   1.278196 A    
Zn6   O24   2.018485 S    
C7    C32   1.430694 S    
O12   Zn4   2.021307 S    
Zn2   O8    2.022047 S    
C33   C50   1.433490 S    
O15   C34   1.277564 A    
C5    C12   1.550084 S    
O20   C36   1.281348 A    
C10   C11   1.532778 S    
C26   C27   1.395987 A    
O30   H15   0.988675 S    
O3    Zn1   2.022049 S    
C11   C12   1.532581 S    
O31   H16   0.988498 S    
N2    O28   1.301167 A    
N5    O41   1.301107 A    
C42   H10   1.083849 S    
C29   C30   1.399194 A    
C27   C38   1.426234 S    
Zn3   O13   2.016028 S    
O16   C34   1.277920 A    
C39   H8    1.083660 S    
C48   O32   1.384055 S    
O3    C2    1.269211 A    
C25   H5    1.083522 S    
C3    C30   1.437807 S    
C16   N6    1.437573 S    
C45   H12   1.084216 S    
O14   C33   1.279671 A    
C14   C15   1.409470 A    
O10   Zn4   2.016027 S    
C21   C34   1.428767 S    
O13   C33   1.279905 A    
O1    C1    1.276641 A    
C22   C23   1.384462 A    
C20   C21   1.396512 A    
O9    Zn3   2.013660 S    
C5    C8    1.549972 S    
C27   C28   1.412871 A    
C45   C50   1.393777 A    
C4    C24   1.439670 S    
C9    O35   1.398520 S    
C43   H11   1.083702 S    
C9    C12   1.536588 S    
Zn5   O23   2.018118 S    
O19   Zn5   2.018570 S    
C9    C10   1.529909 S    
O12   C32   1.273013 A    
C13   C14   1.397033 A    
N1    O26   1.299396 A    
O9    C31   1.279030 A    
O22   C37   1.276351 A    
C10   N4    1.457022 S    
C43   C44   1.398315 A    
O8    C4    1.281015 A    
Zn4   O14   2.013789 S    
O24   C38   1.277916 A    
C22   O29   1.382772 S    
C14   N5    1.436184 S    
C49   H13   1.084205 S    
C28   C29   1.383818 A    
C25   C30   1.396660 A    
N4    O36   1.300147 A    
Zn3   O15   2.021095 S    
C5    H1    1.110159 S    
C23   H4    1.084044 S    
C6    C11   1.531751 S    
O35   H18   0.990891 S    
O1    Zn1   2.017074 S    
C13   O39   1.385826 S    
Zn2   O6    2.017074 S    
O2    Zn2   2.019260 S    
C41   C42   1.395741 A    
O6    C3    1.280241 A    
C42   C43   1.381558 A    
O4    Zn2   2.020271 S    
C6    N1    1.456467 S    
O17   Zn5   2.013952 S    
O11   Zn3   2.021469 S    
C20   H3    1.084255 S    
C23   C24   1.399471 A    
O2    C1    1.275941 A    
C8    N3    1.456294 S    
C19   C20   1.380989 A    
C40   H9    1.083838 S    
C48   C49   1.379560 A    
O4    C2    1.272802 A    
C2    C12   1.428004 S    
C11   O38   1.398297 S    
O29   H14   0.988672 S    
N3    O34   1.300451 A    
C40   C41   1.396190 A    
N1    O25   1.300142 A    
O18   C35   1.279367 A    
Zn1   O5    2.019259 S    
C46   C47   1.416068 A    
C6    C7    1.538418 S    
O10   C31   1.279975 A    
C16   C17   1.390215 A    
Zn5   O21   2.015936 S    
N5    O40   1.300430 A    
O11   C32   1.272482 A    
C47   C48   1.416950 A    
C39   C44   1.397967 A    
N4    O37   1.300393 A    
C28   O30   1.382802 S    
