data_mof_unit_49038.cif
_audit_creation_date              2012-12-11T17:07:35-0500
_audit_creation_method            fapswitch 2.2
_symmetry_space_group_name_H-M    P1
_symmetry_Int_Tables_number       1
_space_group_crystal_system       triclinic
_cell_length_a                    6.973723
_cell_length_b                    14.508048
_cell_length_c                    16.082504
_cell_angle_alpha                 89.963746
_cell_angle_beta                  89.869626
_cell_angle_gamma                 89.922229
_cell_volume                      1627.14304552

loop_
_atom_site_label
_atom_site_type_symbol
_atom_type_description
_atom_site_fract_x
_atom_site_fract_y
_atom_site_fract_z
_atom_type_partial_charge
O1    O     O_R   0.505720 0.583900 0.413310 -0.533066
O2    O     O_R   0.175940 0.594920 0.586080 -0.551354
O3    O     O_R   0.005640 0.416100 0.586690 -0.537833
C1    C     C_R   0.344412 0.617000 0.614745 0.720279
O4    O     O_R   0.176000 0.594930 0.413930 -0.545182
O5    O     O_R   0.005700 0.416110 0.413310 -0.543778
C2    C     C_R   0.344822 0.616896 0.385202 0.722938
O6    O     O_R   0.505660 0.583890 0.586690 -0.538163
O7    O     O_3   0.339200 0.441330 0.500000 -0.364698
V1    V     V_3+5 0.064350 0.510880 0.500000 1.407672
O8    O     O_R   0.675980 0.405080 0.413920 -0.520014
C3    C     C_R   0.845120 0.383290 0.385040 0.710792
O9    O     O_R   0.675920 0.405070 0.586070 -0.541103
C4    C     C_R   0.844658 0.383213 0.614568 0.687955
V2    V     V_3+5 0.564340 0.489120 0.500000 1.457206
O10   O     O_3   0.839360 0.558670 0.500000 -0.379323
C5    C     C_R   0.965236 0.436491 0.779788 -0.142260
C6    C     C_R   0.025117 0.464473 0.858400 -0.085752
C7    C     C_R   0.037621 0.400913 0.922823 -0.105437
C8    C     C_R   0.990165 0.308909 0.909168 -0.139088
C9    C     C_R   0.930425 0.278193 0.829806 0.066624
C10   C     C_R   0.917844 0.343343 0.763672 0.067126
C11   C     C_R   0.879420 0.184810 0.816207 -0.182163
C12   C     C_R   0.815279 0.156741 0.736420 0.071790
C13   C     C_R   0.803449 0.221820 0.670199 0.070053
C14   C     C_R   0.854826 0.315169 0.683759 -0.179667
C15   C     C_R   0.765613 0.063805 0.720551 -0.148461
C16   C     C_R   0.705191 0.035874 0.642012 -0.132097
C17   C     C_R   0.694302 0.099281 0.577403 -0.120291
C18   C     C_R   0.743438 0.191123 0.590869 -0.136609
H1    H     H_    0.060714 0.536011 0.869539 0.173995
H2    H     H_    0.083030 0.423108 0.983938 0.136512
H3    H     H_    0.999389 0.262604 0.961747 0.104642
H4    H     H_    0.667846 0.964482 0.631127 0.105796
H5    H     H_    0.735003 0.237347 0.538204 0.093141
C19   C     C_R   0.724013 0.184866 0.239592 -0.002054
C20   C     C_R   0.881297 0.182729 0.185208 -0.068428
C21   C     C_R   0.033427 0.243790 0.201388 -0.171450
H6    H     H_    0.156536 0.245448 0.160541 0.145814
C22   C     C_R   0.022056 0.307955 0.266900 -0.157596
C23   C     C_R   0.858610 0.313214 0.318155 -0.063500
C24   C     C_R   0.712424 0.249133 0.304109 -0.012295
C25   C     C_3   0.505914 0.267125 0.287246 0.496563
C26   C     C_3   0.517378 0.195810 0.218526 -0.425187
H7    H     H_    0.410074 0.248171 0.339828 0.028649
H8    H     H_    0.496013 0.224698 0.155137 0.198794
H9    H     H_    0.433794 0.132396 0.232301 0.111729
C27   C     C_R   0.509420 0.746742 0.689619 -0.009792
C28   C     C_R   0.352251 0.687294 0.681571 -0.132926
C29   C     C_R   0.204940 0.694180 0.741315 -0.277124
H10   H     H_    0.084332 0.647597 0.738945 0.147408
C30   C     C_R   0.220052 0.755583 0.808866 0.629945
C31   C     C_R   0.378446 0.814808 0.816625 -0.161765
C32   C     C_R   0.522407 0.808889 0.756071 -0.146622
C33   C     C_3   0.726724 0.783681 0.770379 0.615013
C34   C     C_3   0.715161 0.720143 0.696143 -0.420447
H11   H     H_    0.828222 0.842063 0.763014 0.021478
H12   H     H_    0.735698 0.646135 0.711971 0.191938
H13   H     H_    0.800221 0.744787 0.642000 0.112251
C35   C     C_R   0.507520 0.682782 0.258704 0.147530
C36   C     C_R   0.352861 0.682336 0.314488 -0.119697
C37   C     C_R   0.200977 0.743905 0.298584 -0.186943
H14   H     H_    0.078173 0.745900 0.339607 0.133551
C38   C     C_R   0.212176 0.808120 0.233020 -0.173983
H15   H     H_    0.097058 0.857376 0.225355 0.125893
C39   C     C_R   0.375910 0.812914 0.181589 -0.111221
C40   C     C_R   0.519036 0.746587 0.194053 0.132677
C41   C     C_3   0.729130 0.759229 0.206023 -0.413876
C42   C     C_3   0.716708 0.689314 0.276183 -0.408552
H16   H     H_    0.764460 0.829907 0.227697 0.158088
H17   H     H_    0.813729 0.734345 0.151826 0.205829
H18   H     H_    0.745607 0.719218 0.338525 0.162613
O11   O     O_R   0.229140 0.916090 0.913340 -0.514805
O12   O     O_R   0.558860 0.905090 0.086080 -0.539824
O13   O     O_R   0.729100 0.083920 0.086690 -0.541252
C43   C     C_R   0.389795 0.883191 0.114913 0.704978
O14   O     O_R   0.558860 0.905090 0.913930 -0.523015
O15   O     O_R   0.729100 0.083920 0.913310 -0.541970
C44   C     C_R   0.390132 0.882276 0.885829 0.775809
O16   O     O_R   0.229140 0.916080 0.086720 -0.537380
O17   O     O_3   0.395570 0.058660 0.000020 -0.385336
V3    V     V_3+5 0.670450 0.989140 0.000000 1.495500
O18   O     O_R   0.058810 0.094980 0.913910 -0.544383
C45   C     C_R   0.890006 0.116752 0.885369 0.685342
O19   O     O_R   0.058810 0.094980 0.086060 -0.554682
C46   C     C_R   0.889833 0.117062 0.114680 0.664633
V4    V     V_3+5 0.170450 0.010950 0.999970 1.461211
O20   O     O_3   0.895460 0.941370 0.999990 -0.340369
H19   H     H_    0.648528 0.077123 0.516327 0.104663
H20   H     H_    0.136242 0.357229 0.274736 0.199017
F1    F     F_    0.478394 0.355347 0.256416 -0.688387
F2    F     F_    0.091021 0.750512 0.871619 -0.634451
F3    F     F_    0.744747 0.734953 0.844024 -0.607701
H21   H     H_    0.954823 0.488890 0.732192 0.101372
H22   H     H_    0.793411 0.623838 0.262404 0.190727
H23   H     H_    0.774099 0.011526 0.768317 0.097816

loop_
_geom_bond_atom_site_label_1
_geom_bond_atom_site_label_2
_ccdc_geom_bond_type
O18   V4    S    
V4    O20   S    
C23   C24   A    
C19   C24   A    
C7    C8    A    
C12   C15   A    
C1    O6    A    
C17   H19   S    
O17   V3    S    
C31   C32   A    
C27   C32   A    
C16   C17   A    
C17   C18   A    
O12   C43   A    
C18   H5    S    
C35   C42   S    
C19   C20   A    
C31   C44   S    
C20   C21   A    
O16   V4    S    
O5    C3    A    
C21   H6    S    
V2    O10   S    
C6    C7    A    
O11   V4    S    
C37   C38   A    
O8    V2    S    
C2    C36   S    
C37   H14   S    
C35   C40   A    
C41   C42   S    
C29   C30   A    
C11   C12   A    
O1    V2    S    
O7    V1    S    
C26   H9    S    
C33   F3    S    
O19   V4    S    
C39   C40   A    
C16   H4    S    
O9    C4    A    
C15   H23   S    
O12   V3    S    
C7    H2    S    
C26   H8    S    
C29   H10   S    
O14   C44   A    
C9    C11   A    
C11   C45   S    
C40   C41   S    
C20   C46   S    
C12   C13   A    
O4    C2    A    
C13   C14   A    
O19   C46   A    
C25   F1    S    
C35   C36   A    
C38   C39   A    
C42   H18   S    
O2    C1    A    
C25   C26   S    
C3    C23   S    
O15   V3    S    
O13   C46   A    
O18   C45   A    
C39   C43   S    
C33   C34   S    
C5    C6    A    
O11   C44   A    
C4    C14   S    
C25   H7    S    
O17   V4    S    
O3    C4    A    
C8    H3    S    
C22   C23   A    
O6    V2    S    
C33   H11   S    
C19   C26   S    
C24   C25   S    
O2    V1    S    
C30   C31   A    
C13   C18   A    
C27   C34   S    
C32   C33   S    
C27   C28   A    
O1    C2    A    
C43   O16   A    
C42   H22   S    
O5    V1    S    
O8    C3    A    
O13   V3    S    
C6    H1    S    
C5    C10   A    
C34   H13   S    
C1    C28   S    
C38   H15   S    
O9    V2    S    
O7    V2    S    
O4    V1    S    
O3    V1    S    
V1    O10   S    
C21   C22   A    
O14   V3    S    
C41   H17   S    
V3    O20   S    
C34   H12   S    
C36   C37   A    
C30   F2    S    
O15   C45   A    
C8    C9    A    
C41   H16   S    
C28   C29   A    
C10   C14   A    
C15   C16   A    
C5    H21   S    
C22   H20   S    
C9    C10   A    
