data_mof_unit_63998.cif
_audit_creation_date              2012-12-10T17:06:37-0500
_audit_creation_method            fapswitch 2.2
_symmetry_space_group_name_H-M    P1
_symmetry_Int_Tables_number       1
_space_group_crystal_system       triclinic
_cell_length_a                    14.152136
_cell_length_b                    10.646401
_cell_length_c                    10.064801
_cell_angle_alpha                 91.231037
_cell_angle_beta                  89.801532
_cell_angle_gamma                 90.574345
_cell_volume                      1516.02248491

loop_
_atom_site_label
_atom_site_type_symbol
_atom_type_description
_atom_site_fract_x
_atom_site_fract_y
_atom_site_fract_z
_atom_type_partial_charge
Br1   Br    Br    0.385625 0.854650 0.245544 -0.370464
Br2   Br    Br    0.323341 0.154013 0.341946 -0.420043
Br3   Br    Br    0.633947 0.695310 0.840508 -0.370923
Br4   Br    Br    0.647571 0.677766 0.165619 -0.352983
C1    C     C_R   0.498692 0.262391 0.498283 0.967553
C2    C     C_R   0.492414 0.737212 0.501429 0.993422
C3    C     C_R   0.670723 0.500155 0.499794 0.897302
C4    C     C_1   0.227774 0.499909 0.500450 -0.125404
C5    C     C_1   0.142517 0.500004 0.500325 0.035228
C6    C     C_1   0.042622 0.500156 0.499994 0.048168
C7    C     C_1   0.957366 0.500273 0.499699 0.047574
C8    C     C_1   0.857470 0.500339 0.499459 0.034299
C9    C     C_1   0.772212 0.500296 0.499455 -0.129589
C10   C     C_2   0.432891 0.931813 0.408101 0.296986
C11   C     C_2   0.470932 0.868070 0.508204 -0.454848
C12   C     C_2   0.427576 0.068177 0.422613 0.267786
C13   C     C_2   0.495441 0.129432 0.491802 -0.417973
C14   C     C_2   0.553210 0.574963 0.926103 0.264011
C15   C     C_2   0.556396 0.570782 0.076416 0.281498
C16   C     C_R   0.329263 0.499840 0.500192 0.891054
H1    H     H_    0.483585 0.913644 0.604277 0.167110
H2    H     H_    0.554158 0.082351 0.537862 0.138413
H3    H     H_    0.460901 0.433216 0.896661 0.137444
H4    H     H_    0.449521 0.448393 0.101107 0.144820
N1    N     N_2   0.500930 0.501330 0.852150 -0.218566
N2    N     N_2   0.500950 0.501360 0.147810 -0.210862
O1    O     O_R   0.499990 0.319060 0.613040 -0.604681
O2    O     O_R   0.500010 0.319100 0.386900 -0.574265
O3    O     O_R   0.373700 0.499980 0.613090 -0.600846
O4    O     O_R   0.373730 0.500020 0.386960 -0.572247
O5    O     O_R   0.499990 0.680900 0.613100 -0.576169
O6    O     O_R   0.500010 0.680940 0.386960 -0.538640
O7    O     O_R   0.626270 0.499980 0.613040 -0.567758
O8    O     O_R   0.626300 0.500020 0.386910 -0.569334
Zn1   Zn    Zn3+2 0.499980 0.499970 0.650990 1.013600
Zn2   Zn    Zn3+2 0.500020 0.500030 0.349010 1.049327

loop_
_geom_bond_atom_site_label_1
_geom_bond_atom_site_label_2
_ccdc_geom_bond_type
C2    O6    A    
C7    C8    S    
C10   C12   S    
C1    O2    A    
Br2   C12   S    
C5    C6    S    
O3    Zn1   S    
C13   H2    S    
O4    Zn2   S    
C2    O5    A    
C16   O4    A    
C3    O7    A    
C4    C16   S    
C14   N1    D    
N1    Zn1   S    
O6    Zn2   S    
N2    Zn2   S    
O7    Zn1   S    
H4    N2    S    
O8    Zn2   S    
C16   O3    A    
H3    N1    S    
C3    O8    A    
O5    Zn1   S    
C11   H1    S    
C1    C13   S    
C6    C7    T    
C3    C9    S    
C8    C9    T    
O2    Zn2   S    
Br3   C14   S    
C14   C15   S    
C15   N2    D    
C10   C11   D    
C12   C13   D    
Br1   C10   S    
O1    Zn1   S    
C2    C11   S    
C1    O1    A    
Br4   C15   S    
C4    C5    T    
