data_mof_unit_44776.cif
_audit_creation_date              2012-10-26T19:04:40-0400
_audit_creation_method            fapswitch 2.2
_symmetry_space_group_name_H-M    P1
_symmetry_Int_Tables_number       1
_space_group_crystal_system       triclinic
_cell_length_a                    9.629101
_cell_length_b                    10.771135
_cell_length_c                    13.410207
_cell_angle_alpha                 93.229968
_cell_angle_beta                  73.74565
_cell_angle_gamma                 90.502396
_cell_volume                      1333.10642644

loop_
_atom_site_label
_atom_site_type_symbol
_atom_type_description
_atom_site_fract_x
_atom_site_fract_y
_atom_site_fract_z
_atom_type_partial_charge
C1    C     C_R   0.499018 0.737390 0.504165 0.606715
C2    C     C_R   0.389149 0.457136 0.809389 0.010122
C3    C     C_R   0.315112 0.884660 0.685976 0.435521
C4    C     C_R   0.424930 0.486483 0.698333 0.589358
C5    C     C_R   0.221289 0.956556 0.766125 -0.026922
C6    C     C_R   0.214843 0.084735 0.760921 -0.182469
C7    C     C_R   0.303720 0.142439 0.676140 -0.129096
C8    C     C_R   0.399065 0.072028 0.593280 -0.017948
C9    C     C_R   0.402723 0.940865 0.596720 0.029401
C10   C     C_R   0.497882 0.871692 0.512254 0.010373
C11   C     C_R   0.594103 0.931256 0.431591 -0.150921
C12   C     C_R   0.451965 0.469664 0.974143 0.080823
C13   C     C_R   0.593535 0.059220 0.430322 -0.140032
C14   C     C_R   0.494979 0.129431 0.508735 0.020864
C15   C     C_R   0.908809 0.333972 0.361134 -0.019260
C16   C     C_R   0.498724 0.262866 0.501861 0.509088
C17   C     C_R   0.006842 0.253383 0.292670 -0.142092
C18   C     C_R   0.149930 0.253157 0.292922 -0.161566
C19   C     C_R   0.196004 0.333694 0.361494 -0.082103
C20   C     C_R   0.100183 0.418034 0.432203 0.092192
C21   C     C_R   0.950835 0.417844 0.432336 0.146876
C22   C     C_R   0.904088 0.582221 0.562880 0.092912
C23   C     C_R   0.496470 0.458586 0.864448 0.027614
C24   C     C_R   0.051917 0.578979 0.563623 0.512259
C25   C     C_R   0.576447 0.511486 0.301587 0.527134
C26   C     C_R   0.806452 0.548822 0.026158 0.001004
C27   C     C_R   0.619363 0.531514 0.189440 -0.055073
C28   C     C_R   0.246058 0.429530 0.863018 -0.123527
C29   C     C_R   0.208875 0.411148 0.969299 -0.087673
C30   C     C_R   0.309059 0.435220 0.025355 -0.030458
C31   C     C_2   0.809529 0.680275 0.630639 0.284483
C32   C     C_2   0.949323 0.600666 0.970425 0.255595
C33   C     C_2   0.383406 0.623096 0.182347 0.237334
C34   C     C_R   0.554732 0.506457 0.028340 0.030124
C35   C     C_R   0.704145 0.510871 0.973120 -0.052312
C36   C     C_R   0.747775 0.472835 0.867720 -0.141205
C37   C     C_R   0.646057 0.444369 0.815086 -0.115982
C38   C     C_R   0.514291 0.542813 0.135325 -0.080894
C39   C     C_R   0.766053 0.544244 0.134694 0.383853
Cu1   Cu    Cu3+1 0.359340 0.500010 0.500010 1.028553
Cu2   Cu    Cu3+1 0.640660 0.499990 0.499990 0.962224
F1    F     F_    0.868460 0.557002 0.186662 -0.577119
F2    F     F_    0.324385 0.761777 0.699968 -0.588091
F3    F     F_    0.099516 0.656293 0.630160 -0.542879
H1    H     H_    0.154816 0.912653 0.833684 0.171649
H2    H     H_    0.163461 0.419962 0.822490 0.111991
H3    H     H_    0.274543 0.424917 0.108456 0.141114
H4    H     H_    0.099815 0.384321 0.009462 0.143063
H5    H     H_    0.688266 0.403633 0.737239 0.152306
H6    H     H_    0.668314 0.878007 0.368108 0.148842
H7    H     H_    0.694002 0.674135 0.653490 0.175722
H8    H     H_    0.982444 0.603872 0.886498 0.133085
H9    H     H_    0.349359 0.649575 0.264601 0.152304
H10   H     H_    0.142772 0.140053 0.823902 0.122398
H11   H     H_    0.297982 0.242498 0.677236 0.138215
H12   H     H_    0.668192 0.103737 0.366472 0.112171
H13   H     H_    0.801874 0.327090 0.354175 0.178587
H14   H     H_    0.971245 0.190666 0.238911 0.123202
H15   H     H_    0.226194 0.190210 0.239406 0.129198
H16   H     H_    0.307924 0.326058 0.355459 0.185454
H17   H     H_    0.860727 0.460132 0.825644 0.099789
N1    N     N_R   0.852480 0.498790 0.499000 -0.314228
N2    N     N_R   0.148360 0.498710 0.498970 -0.264290
O1    O     O_R   0.381190 0.680360 0.500010 -0.409724
O2    O     O_2   0.029589 0.647279 0.018083 -0.384608
O3    O     O_2   0.318055 0.670272 0.127913 -0.437789
O4    O     O_R   0.618760 0.680340 0.500000 -0.517434
O5    O     O_R   0.323240 0.499990 0.650990 -0.413368
O6    O     O_R   0.560820 0.499960 0.650980 -0.555893
O7    O     O_R   0.381240 0.319660 0.500000 -0.540811
O8    O     O_R   0.618810 0.319640 0.499990 -0.535010
O9    O     O_R   0.439180 0.500040 0.349020 -0.572654
O10   O     O_R   0.676760 0.500010 0.349010 -0.445977
O11   O     O_2   0.860999 0.773349 0.662300 -0.454102

loop_
_geom_bond_atom_site_label_1
_geom_bond_atom_site_label_2
_ccdc_geom_bond_type
C26   C32   S    
C19   C20   A    
C7    H11   S    
C7    C8    A    
Cu2   O4    S    
C12   C23   A    
C3    F2    S    
Cu1   N2    S    
Cu1   O7    S    
C22   C24   A    
C36   C37   A    
C34   C35   A    
C5    C6    A    
C26   C39   A    
C27   C38   A    
C18   C19   A    
C32   H8    S    
C35   C36   A    
C27   C39   A    
C8    C9    A    
C9    C10   A    
C17   H14   S    
Cu2   O8    S    
C13   H12   S    
C13   C14   A    
C15   H13   S    
C16   O8    A    
Cu2   N1    S    
C6    H10   S    
C4    O6    A    
C33   O3    D    
C39   F1    S    
C33   H9    S    
C22   C31   S    
C29   H4    S    
C30   H3    S    
C16   O7    A    
C4    O5    A    
C31   O11   D    
C23   C37   A    
C5    H1    S    
C2    C4    S    
C29   C30   A    
C3    C9    A    
C22   N1    A    
C37   H5    S    
C18   H15   S    
C28   H2    S    
C17   C18   A    
C25   O9    A    
C21   N1    A    
Cu1   Cu2   S    
C24   N2    A    
C24   F3    S    
C14   C16   S    
C12   C34   A    
C36   H17   S    
C1    O1    A    
Cu2   O6    S    
C15   C17   A    
C28   C29   A    
C8    C14   A    
Cu1   O9    S    
C12   C30   A    
C34   C38   A    
C1    C10   S    
C31   H7    S    
C3    C5    A    
C6    C7    A    
C19   H16   S    
C25   C27   S    
C33   C38   S    
Cu1   O1    S    
C20   N2    A    
C11   H6    S    
C11   C13   A    
C1    O4    A    
C25   O10   A    
C10   C11   A    
Cu2   O10   S    
C26   C35   A    
C15   C21   A    
C20   C21   A    
Cu1   O5    S    
C2    C23   A    
C2    C28   A    
C32   O2    D    
