data_mof_unit_37070.cif
_audit_creation_date              2013-03-05T16:48:31-0500
_audit_creation_method            fapswitch 2.2
_symmetry_space_group_name_H-M    P1
_symmetry_Int_Tables_number       1
_space_group_crystal_system       triclinic
_cell_length_a                    10.818536
_cell_length_b                    14.677108
_cell_length_c                    14.699511
_cell_angle_alpha                 65.263319
_cell_angle_beta                  103.198726
_cell_angle_gamma                 102.901319
_cell_volume                      2042.24262155

loop_
_atom_site_label
_atom_site_type_symbol
_atom_site_description
_atom_site_fract_x
_atom_site_fract_y
_atom_site_fract_z
_atom_type_partial_charge
O1    O     O_R   0.455540 0.022090 0.338120 -0.595580
O2    O     O_R   0.544460 0.977910 0.661880 -0.594404
O3    O     O_R   0.512510 0.160150 0.379180 -0.591450
O4    O     O_R   0.487490 0.839850 0.620820 -0.590019
C1    C     C_R   0.476527 0.119643 0.312298 0.817961
C2    C     C_R   0.521875 0.880336 0.687749 0.810506
O5    O     O_R   0.291160 0.930970 0.479480 -0.582475
O6    O     O_R   0.708840 0.069030 0.520520 -0.581673
O7    O     O_R   0.348130 0.069020 0.520540 -0.584396
O8    O     O_R   0.651870 0.930980 0.479460 -0.584091
C3    C     C_R   0.262800 0.999271 0.502109 0.808448
C4    C     C_R   0.737186 0.000814 0.497761 0.810774
Cu1   Cu    Cu3+1 0.466270 0.918260 0.475690 0.959076
Cu2   Cu    Cu3+1 0.533730 0.081740 0.524310 0.959736
H1    H     H_    0.439780 0.174908 0.821215 0.147197
H2    H     H_    0.548293 0.819331 0.189076 0.139250
C5    C     C_R   0.333149 0.041433 0.798861 -0.195698
C6    C     C_R   0.654203 0.954345 0.208525 -0.186855
H3    H     H_    0.377380 0.991413 0.871281 0.163212
H4    H     H_    0.603352 0.003463 0.138933 0.161433
C7    C     C_R   0.240368 0.001900 0.735059 0.360233
C8    C     C_R   0.750928 0.995341 0.268950 0.363797
C9    C     C_R   0.185874 0.071012 0.640239 0.001143
C10   C     C_R   0.813428 0.927586 0.360626 0.001349
C11   C     C_R   0.221554 0.175899 0.614384 -0.174876
C12   C     C_R   0.782522 0.822495 0.386042 -0.180444
H5    H     H_    0.180132 0.229172 0.542676 0.149964
H6    H     H_    0.829858 0.770185 0.455462 0.151804
C13   C     C_R   0.311918 0.212937 0.679717 -0.122981
C14   C     C_R   0.688529 0.783948 0.323724 -0.120978
H7    H     H_    0.338747 0.293864 0.659008 0.145162
H8    H     H_    0.665043 0.702858 0.344232 0.145596
C15   C     C_R   0.368677 0.145874 0.771177 -0.187011
C16   C     C_R   0.623054 0.849638 0.236090 -0.182659
C17   C     C_R   0.963567 0.038234 0.560722 -0.177656
C18   C     C_R   0.036400 0.962228 0.438616 -0.178858
H9    H     H_    0.935314 0.065675 0.609888 0.144517
H10   H     H_    0.064657 0.934585 0.389620 0.144876
C19   C     C_R   0.870717 0.000905 0.496372 -0.048635
C20   C     C_R   0.129257 0.999527 0.503038 -0.047742
C21   C     C_R   0.907157 0.963241 0.433872 0.069271
C22   C     C_R   0.092743 0.036994 0.565644 0.067980
C23   C     C_R   0.454914 0.187140 0.205015 -0.007758
C24   C     C_R   0.529908 0.812771 0.795229 -0.021987
C25   C     C_R   0.386876 0.215460 0.027990 -0.174683
C26   C     C_R   0.560391 0.784436 0.972582 -0.157121
C27   C     C_R   0.407606 0.148989 0.128960 -0.153292
C28   C     C_R   0.560419 0.850810 0.871716 -0.149311
C29   C     C_R   0.479456 0.291891 0.179311 -0.209335
C30   C     C_R   0.501984 0.708114 0.820686 -0.208980
C31   C     C_R   0.454169 0.360457 0.078711 0.092643
C32   C     C_R   0.497063 0.639679 0.921312 0.101906
C33   C     C_R   0.410705 0.320632 0.002277 0.170294
C34   C     C_R   0.528731 0.679489 0.997937 0.173468
C35   C     C_R   0.474349 0.467234 0.052007 0.068376
C36   C     C_R   0.463948 0.533068 0.947833 0.069643
C37   C     C_R   0.418884 0.490129 0.873872 -0.202662
C38   C     C_R   0.502178 0.510254 0.125904 -0.205805
C39   C     C_R   0.391827 0.385996 0.900984 -0.218293
C40   C     C_R   0.528336 0.614365 0.099019 -0.214643
H11   H     H_    0.357348 0.356424 0.841918 0.142590
H12   H     H_    0.549499 0.644025 0.158081 0.141942
H13   H     H_    0.486169 0.681771 0.760308 0.140178
H14   H     H_    0.521678 0.318354 0.239157 0.147785
H15   H     H_    0.583123 0.931598 0.853616 0.141177
H16   H     H_    0.387717 0.068091 0.147338 0.140212
H17   H     H_    0.352123 0.184656 0.969934 0.129261
H18   H     H_    0.584507 0.815243 0.030757 0.122276
H19   H     H_    0.399772 0.534707 0.793892 0.146683
H20   H     H_    0.501111 0.465648 0.205533 0.140289
N1    N     N_R   0.584450 0.204570 0.560790 -0.174530
N2    N     N_R   0.415550 0.795430 0.439210 -0.174623
C41   C     C_R   0.706715 0.281964 0.673180 -0.311231
C42   C     C_R   0.294168 0.718494 0.326161 -0.314733
C43   C     C_R   0.675940 0.201284 0.641931 0.087538
C44   C     C_R   0.324503 0.798942 0.357754 0.086789
C45   C     C_R   0.521198 0.286351 0.507249 0.024929
C46   C     C_R   0.478739 0.713624 0.492735 0.025569
C47   C     C_R   0.548606 0.371631 0.534687 -0.030663
C48   C     C_R   0.451836 0.628603 0.464906 -0.029679
C49   C     C_R   0.642905 0.366944 0.620421 0.154828
C50   C     C_R   0.357969 0.633506 0.378885 0.155143
C51   C     C_R   0.484835 0.459623 0.482009 0.065731
C52   C     C_R   0.515812 0.540713 0.517429 0.062634
C53   C     C_R   0.609564 0.531138 0.604059 -0.240740
C54   C     C_R   0.391527 0.469410 0.395094 -0.246206
C55   C     C_R   0.671974 0.446312 0.653847 -0.186305
C56   C     C_R   0.329389 0.554377 0.345123 -0.192052
H21   H     H_    0.743429 0.442538 0.719939 0.157151
H22   H     H_    0.258457 0.558403 0.278694 0.158632
H23   H     H_    0.551543 0.718145 0.554758 0.122833
H24   H     H_    0.447979 0.281643 0.445508 0.121894
H25   H     H_    0.276740 0.865250 0.316227 0.120631
H26   H     H_    0.723810 0.135028 0.683407 0.121355
H27   H     H_    0.779083 0.277503 0.738876 0.147109
H28   H     H_    0.222205 0.723168 0.260195 0.148196
H29   H     H_    0.637099 0.588022 0.635969 0.140266
H30   H     H_    0.364362 0.412674 0.362986 0.137406
N3    N     N_R   0.202329 0.893316 0.768735 0.101076
O9    O     O_R   0.100173 0.854061 0.723723 -0.372202
O10   O     O_R   0.263295 0.832677 0.851336 -0.374933
N4    N     N_R   0.784713 0.104153 0.235377 0.097678
O11   O     O_R   0.893311 0.144941 0.271812 -0.370699
O12   O     O_R   0.713426 0.163563 0.159452 -0.378450

loop_
_geom_bond_atom_site_label_1
_geom_bond_atom_site_label_2
_geom_bond_distance
_ccdc_geom_bond_type
C14   H8    1.082409 S    
C35   C36   1.422239 A    
C45   H24   1.075002 S    
C10   C21   1.482341 S    
Cu2   N1    2.017830 S    
N2    C44   1.356093 A    
C33   C39   1.390048 A    
C19   C21   1.411654 A    
C34   C40   1.390647 A    
O5    C3    1.293347 A    
C9    C22   1.481813 S    
C42   C44   1.390610 A    
O1    C1    1.298095 A    
C17   H9    1.085082 S    
C10   C12   1.405334 A    
C7    N3    1.447129 S    
C46   C48   1.421223 A    
C37   C39   1.387146 A    
C38   C40   1.387001 A    
C13   C15   1.392398 A    
C36   C37   1.418095 A    
C40   H12   1.084755 S    
C25   C27   1.392424 A    
O4    Cu1   1.941109 S    
C17   C22   1.386595 A    
N2    C46   1.363191 A    
H2    C16   1.082132 S    
C51   C52   1.435519 A    
C29   C31   1.402535 A    
C25   H17   1.083764 S    
C30   C32   1.402964 A    
C28   H15   1.082992 S    
C27   H16   1.083097 S    
C31   C35   1.424543 A    
C48   C52   1.435378 A    
C45   C47   1.421059 A    
C1    C23   1.466498 S    
C25   C33   1.403782 A    
C29   H14   1.075463 S    
C2    C24   1.466847 S    
Cu1   Cu2   2.686188 S    
C30   H13   1.074587 S    
C41   C43   1.390454 A    
C18   C21   1.387081 A    
O2    C2    1.298322 A    
C5    C15   1.396195 A    
C42   C50   1.401480 A    
O2    Cu2   1.953942 S    
C41   C49   1.401483 A    
C32   C34   1.418659 A    
C53   C55   1.388772 A    
C11   C13   1.394411 A    
C26   C28   1.392338 A    
C39   H11   1.084697 S    
C14   C16   1.392688 A    
C54   C56   1.388844 A    
C3    C20   1.448774 S    
C42   H28   1.083750 S    
C18   C20   1.399813 A    
C52   C53   1.412134 A    
C48   C50   1.416118 A    
C47   C49   1.416112 A    
C23   C29   1.397992 A    
C5    C7    1.410404 A    
C31   C33   1.417998 A    
C17   C19   1.399290 A    
O7    Cu2   1.964719 S    
C26   H18   1.082972 S    
C44   H25   1.081715 S    
C6    C16   1.396222 A    
N3    O9    1.300733 A    
O6    C4    1.293310 A    
C26   C34   1.403941 A    
N4    O12   1.301332 A    
O7    C3    1.292085 A    
C49   C55   1.393618 A    
O3    Cu2   1.941109 S    
O8    C4    1.292200 A    
O4    C2    1.297232 A    
N3    O10   1.301317 A    
C56   H22   1.084267 S    
C12   C14   1.394525 A    
C7    C9    1.424002 A    
C8    C10   1.422936 A    
O1    Cu1   1.953942 S    
C41   H27   1.083763 S    
N1    C45   1.363330 A    
C24   C30   1.397913 A    
O6    Cu2   1.959972 S    
C6    C8    1.409841 A    
C38   H20   1.077176 S    
O3    C1    1.297140 A    
O8    Cu1   1.964719 S    
Cu1   N2    2.017830 S    
C46   H23   1.074865 S    
C11   H5    1.083634 S    
C12   H6    1.083635 S    
C8    N4    1.445617 S    
C4    C19   1.449106 S    
C18   H10   1.085004 S    
C13   H7    1.082373 S    
N1    C43   1.355976 A    
C50   C56   1.393791 A    
C20   C22   1.411348 A    
C5    H3    1.082308 S    
C6    H4    1.082474 S    
C9    C11   1.405458 A    
N4    O11   1.300946 A    
C54   H30   1.076490 S    
C53   H29   1.076424 S    
C47   C51   1.435430 A    
C32   C36   1.425374 A    
O5    Cu1   1.959971 S    
C51   C54   1.412135 A    
C35   C38   1.417400 A    
C55   H21   1.084264 S    
C37   H19   1.076423 S    
C23   C27   1.399994 A    
H1    C15   1.082541 S    
C24   C28   1.399395 A    
C43   H26   1.081710 S    
