data_mof_unit_30697.cif
_audit_creation_date              2012-12-10T19:05:18-0500
_audit_creation_method            fapswitch 2.2
_symmetry_space_group_name_H-M    P1
_symmetry_Int_Tables_number       1
_space_group_crystal_system       triclinic
_cell_length_a                    9.529071
_cell_length_b                    10.8186
_cell_length_c                    17.317916
_cell_angle_alpha                 90.112148
_cell_angle_beta                  85.694167
_cell_angle_gamma                 89.806827
_cell_volume                      1780.27129164

loop_
_atom_site_label
_atom_site_type_symbol
_atom_type_description
_atom_site_fract_x
_atom_site_fract_y
_atom_site_fract_z
_atom_type_partial_charge
C1    C     C_R   0.499886 0.737755 0.499956 0.814030
C2    C     C_R   0.347669 0.474878 0.780841 -0.010856
C3    C     C_R   0.420685 0.488360 0.144527 -0.144703
C4    C     C_R   0.412098 0.480702 0.224606 -0.203012
C5    C     C_R   0.659202 0.533300 0.224575 -0.195371
C6    C     C_R   0.667582 0.542044 0.144117 -0.172373
C7    C     C_R   0.547723 0.522247 0.103761 0.189560
C8    C     C_2   0.447311 0.559185 0.979270 -0.232920
C9    C     C_2   0.558910 0.532546 0.019006 -0.225043
C10   C     C_R   0.530616 0.504204 0.265334 -0.027982
C11   C     C_R   0.374685 0.937636 0.501798 0.088613
C12   C     C_R   0.480911 0.500456 0.650061 0.795707
C13   C     C_R   0.500630 0.870939 0.494083 -0.101081
C14   C     C_R   0.627072 0.934805 0.475711 -0.226269
C15   C     C_R   0.627410 0.063700 0.474144 -0.227781
C16   C     C_R   0.500906 0.129461 0.489277 -0.092543
C17   C     C_R   0.374339 0.064644 0.496424 0.087810
C18   C     C_3   0.253630 0.079046 0.555773 -0.492984
C19   C     C_3   0.256044 0.939015 0.564371 -0.208693
C20   C     C_R   0.930094 0.398916 0.474407 0.255820
C21   C     C_R   0.920790 0.594113 0.532718 -0.108188
C22   C     C_R   0.069699 0.594055 0.532670 -0.082844
C23   C     C_R   0.500486 0.262408 0.497576 0.801335
C24   C     C_R   0.077576 0.398860 0.474528 0.275706
C25   C     C_3   0.094384 0.343053 0.395653 -0.514392
C26   C     C_3   0.935183 0.343305 0.395442 -0.506041
C27   C     C_R   0.518882 0.500421 0.349964 0.789934
C28   C     C_R   0.469050 0.512611 0.734558 -0.059177
C29   C     C_R   0.580782 0.568787 0.769672 -0.210205
C30   C     C_R   0.573727 0.586766 0.849152 -0.163201
C31   C     C_R   0.454384 0.549160 0.894914 0.162110
C32   C     C_R   0.341267 0.495467 0.860637 -0.213325
Cu1   Cu    Cu3+1 0.359330 0.500020 0.500000 0.954368
Cu2   Cu    Cu3+1 0.640670 0.499980 0.500000 0.932752
H1    H     H_    0.673623 0.600376 0.735487 0.146125
H2    H     H_    0.767019 0.565994 0.113439 0.121001
H3    H     H_    0.726217 0.885912 0.465957 0.162852
H4    H     H_    0.726863 0.111251 0.464675 0.155265
H5    H     H_    0.283633 0.132085 0.606918 0.208413
H6    H     H_    0.157695 0.113958 0.530066 0.185549
H7    H     H_    0.159309 0.895576 0.544599 0.137109
H8    H     H_    0.861491 0.671149 0.558359 0.136570
H9    H     H_    0.121774 0.670752 0.558101 0.133862
H10   H     H_    0.145363 0.406774 0.352154 0.210663
H11   H     H_    0.312647 0.455709 0.254402 0.140433
H12   H     H_    0.140690 0.248642 0.396262 0.194873
H13   H     H_    0.895325 0.406906 0.351679 0.215740
H14   H     H_    0.889848 0.248909 0.395747 0.186885
H15   H     H_    0.752483 0.551296 0.254811 0.146259
H16   H     H_    0.660822 0.514298 0.988600 0.147325
H17   H     H_    0.249865 0.464982 0.896634 0.129751
H18   H     H_    0.327959 0.465828 0.115057 0.121266
H19   H     H_    0.345045 0.577863 0.008916 0.142366
H20   H     H_    0.660968 0.630997 0.874673 0.126167
N1    N     N_R   0.852130 0.499070 0.499500 -0.183574
N2    N     N_R   0.148040 0.499110 0.499500 -0.179279
O1    O     O_R   0.381190 0.680360 0.500000 -0.583834
O2    O     O_R   0.618770 0.680320 0.499990 -0.592726
O3    O     O_R   0.367430 0.500040 0.613600 -0.569020
O4    O     O_R   0.605020 0.500000 0.613590 -0.592243
O5    O     O_R   0.381230 0.319680 0.500010 -0.575986
O6    O     O_R   0.618810 0.319640 0.500000 -0.587467
O7    O     O_R   0.394980 0.500000 0.386410 -0.585777
O8    O     O_R   0.632570 0.499960 0.386400 -0.586289
C33   C     C_R   0.293121 0.898119 0.644383 0.177496
C34   C     C_R   0.194124 0.830850 0.691435 -0.176865
C35   C     C_R   0.221968 0.798310 0.766914 -0.145795
C36   C     C_R   0.348963 0.831993 0.796126 -0.081038
C37   C     C_R   0.448357 0.898705 0.750089 -0.166116
C38   C     C_R   0.420515 0.932628 0.674925 -0.162223
H21   H     H_    0.093906 0.805764 0.670416 0.095835
H22   H     H_    0.144545 0.747707 0.803089 0.120015
H23   H     H_    0.369936 0.807118 0.854648 0.132816
H24   H     H_    0.546467 0.925393 0.772966 0.127997
H25   H     H_    0.497720 0.987112 0.641197 0.141406
C39   C     C_R   0.230838 0.405139 0.749980 0.125494
C40   C     C_R   0.115480 0.467344 0.722012 -0.102247
C41   C     C_R   0.001329 0.400575 0.697633 -0.145026
C42   C     C_R   0.000937 0.271616 0.701796 -0.117538
C43   C     C_R   0.114341 0.209251 0.730790 -0.152032
C44   C     C_R   0.229396 0.275591 0.754450 -0.171549
H26   H     H_    0.113860 0.567052 0.719017 0.115391
H27   H     H_    0.912649 0.448796 0.676076 0.137551
H28   H     H_    0.912423 0.220096 0.683013 0.124486
H29   H     H_    0.113447 0.109399 0.734595 0.148712
H30   H     H_    0.316521 0.226235 0.777003 0.132187

loop_
_geom_bond_atom_site_label_1
_geom_bond_atom_site_label_2
_ccdc_geom_bond_type
C10   C27   S    
C32   H17   S    
C40   C41   A    
C30   H20   S    
C11   C19   S    
C29   C30   A    
C12   C28   S    
C28   C29   A    
C35   H22   S    
C3    C7    A    
C42   H28   S    
C16   C17   A    
C15   C16   A    
Cu2   O6    S    
C2    C32   A    
C18   C19   S    
C18   H6    S    
C12   O3    A    
C41   H27   S    
C23   O6    A    
C34   H21   S    
C8    C9    D    
C44   H30   S    
C26   H14   S    
Cu1   N2    S    
C34   C35   A    
Cu2   N1    S    
Cu1   O3    S    
C21   C22   A    
Cu2   O4    S    
C5    H15   S    
C20   N1    A    
C25   H10   S    
Cu1   Cu2   S    
C4    H11   S    
C35   C36   A    
C20   C24   A    
C24   C25   S    
C21   N1    A    
C41   C42   A    
C36   C37   A    
C22   N2    A    
C25   C26   S    
C21   H8    S    
C8    H19   S    
C18   H5    S    
C15   H4    S    
C43   H29   S    
C1    O1    A    
C31   C32   A    
C30   C31   A    
Cu1   O7    S    
Cu2   O8    S    
C17   C18   S    
C37   H24   S    
C39   C40   A    
C27   O7    A    
C26   H13   S    
C16   C23   S    
C1    C13   S    
C4    C10   A    
C3    C4    A    
C2    C39   S    
C7    C9    S    
C11   C17   A    
Cu1   O1    S    
C8    C31   S    
C9    H16   S    
C43   C44   A    
C39   C44   A    
C3    H18   S    
C6    C7    A    
C24   N2    A    
C29   H1    S    
C36   H23   S    
C5    C10   A    
C1    O2    A    
C14   H3    S    
C11   C13   A    
C5    C6    A    
C20   C26   S    
C40   H26   S    
C6    H2    S    
C19   C33   S    
C37   C38   A    
C27   O8    A    
C42   C43   A    
C12   O4    A    
C19   H7    S    
C23   O5    A    
Cu1   O5    S    
C33   C34   A    
C38   H25   S    
Cu2   O2    S    
C14   C15   A    
C2    C28   A    
C13   C14   A    
C25   H12   S    
C22   H9    S    
C33   C38   A    
