data_mof_unit_31931.cif
_audit_creation_date              2012-10-26T18:44:32-0400
_audit_creation_method            fapswitch 2.2
_symmetry_space_group_name_H-M    P1
_symmetry_Int_Tables_number       1
_space_group_crystal_system       triclinic
_cell_length_a                    13.044302
_cell_length_b                    16.02587
_cell_length_c                    14.737918
_cell_angle_alpha                 89.955436
_cell_angle_beta                  98.032314
_cell_angle_gamma                 89.695349
_cell_volume                      3050.63484317

loop_
_atom_site_label
_atom_site_type_symbol
_atom_type_description
_atom_site_fract_x
_atom_site_fract_y
_atom_site_fract_z
_atom_type_partial_charge
C1    C     C_R   0.500110 0.340978 0.500067 0.548115
C2    C     C_R   0.434659 0.439918 0.041090 0.002140
C3    C     C_R   0.505689 0.488414 0.903129 0.003891
C4    C     C_R   0.501731 0.494843 0.096912 -0.002290
C5    C     C_R   0.438476 0.433871 0.944100 0.015885
C6    C     C_R   0.573208 0.544558 0.056663 0.013643
C7    C     C_1   0.501684 0.495525 0.802699 0.104955
C8    C     C_1   0.500452 0.497787 0.197414 0.103351
C9    C     C_R   0.299371 0.502131 0.481160 0.542987
C10   C     C_R   0.700647 0.498233 0.518941 0.542825
C11   C     C_R   0.814770 0.495787 0.533430 -0.021887
C12   C     C_R   0.499600 0.659090 0.499946 0.547066
C13   C     C_R   0.185286 0.505724 0.467188 -0.020882
C14   C     C_R   0.015058 0.535897 0.381161 0.089618
C15   C     C_R   0.985226 0.467992 0.620558 0.085707
C16   C     C_R   0.124060 0.532243 0.384222 -0.026183
C17   C     C_R   0.876084 0.471446 0.617287 -0.025380
C18   C     C_R   0.137650 0.482659 0.542432 -0.120521
C19   C     C_R   0.862410 0.518574 0.458157 -0.122206
C20   C     C_R   0.030938 0.488403 0.541411 -0.006430
C21   C     C_R   0.969277 0.514340 0.459861 -0.006139
C22   C     C_R   0.519639 0.955715 0.584208 0.035325
C23   C     C_R   0.467006 0.956694 0.417279 0.032122
C24   C     C_R   0.472454 0.044716 0.416929 0.032486
C25   C     C_R   0.491162 0.912798 0.500853 -0.050010
C26   C     C_R   0.502186 0.087521 0.500093 -0.052887
C27   C     C_3   0.827703 0.450314 0.703269 -0.230977
C28   C     C_3   0.781194 0.362287 0.697758 -0.255488
C29   C     C_3   0.733204 0.341766 0.783735 -0.423818
C30   C     C_3   0.172389 0.555537 0.298973 -0.239139
C31   C     C_3   0.220261 0.642958 0.307156 -0.252419
C32   C     C_3   0.272448 0.663362 0.223435 -0.427704
C33   C     C_2   0.948862 0.563232 0.295858 0.526647
C34   C     C_R   0.525054 0.043770 0.583845 0.031663
C35   C     C_2   0.051537 0.443112 0.706930 0.529371
C36   C     C_2   0.549961 0.090499 0.671474 0.608697
C37   C     C_2   0.439384 0.910261 0.329847 0.604262
C38   C     C_2   0.547213 0.907854 0.671043 0.614799
C39   C     C_2   0.442646 0.092759 0.330493 0.620617
C40   C     C_3   0.643724 0.603257 0.118892 -0.246232
C41   C     C_3   0.584104 0.679213 0.148809 -0.310042
C42   C     C_3   0.654163 0.733598 0.215916 -0.419669
C43   C     C_3   0.373088 0.364618 0.891298 -0.262877
C44   C     C_3   0.381030 0.347635 0.789803 -0.292630
C45   C     C_1   0.494349 0.822813 0.500103 0.039401
C46   C     C_3   0.322840 0.268607 0.755996 -0.426194
C47   C     C_3   0.664040 0.581421 0.917227 -0.251644
C48   C     C_3   0.636384 0.672236 0.891287 -0.301602
C49   C     C_3   0.718374 0.711490 0.840533 -0.427893
C50   C     C_3   0.354872 0.390513 0.085938 -0.255438
C51   C     C_3   0.253896 0.440500 0.083005 -0.309205
C52   C     C_3   0.171666 0.390609 0.123322 -0.439444
C53   C     C_1   0.501441 0.177420 0.500415 0.037451
C54   C     C_1   0.500732 0.252244 0.500353 0.032412
C55   C     C_1   0.497090 0.747939 0.499747 0.031948
C56   C     C_R   0.578060 0.538562 0.960253 0.007865
Cu1   Cu    Cu3+1 0.500030 0.500000 0.589220 0.969173
Cu2   Cu    Cu3+1 0.499970 0.500000 0.410780 0.979282
H1    H     H_    0.814192 0.540343 0.396982 0.169178
H2    H     H_    0.337883 0.619754 0.219193 0.149493
H3    H     H_    0.216097 0.658696 0.159781 0.152987
H4    H     H_    0.303025 0.727791 0.228805 0.206075
H5    H     H_    0.158521 0.689966 0.312720 0.214404
H6    H     H_    0.278315 0.647862 0.369560 0.192395
H7    H     H_    0.228845 0.507551 0.283980 0.166216
H8    H     H_    0.115050 0.554332 0.235989 0.160774
H9    H     H_    0.901974 0.657469 0.209008 0.330944
H10   H     H_    0.089987 0.354388 0.802799 0.328476
H11   H     H_    0.522391 0.107218 0.801558 0.336965
H12   H     H_    0.185714 0.459240 0.602886 0.168587
H13   H     H_    0.460260 0.895350 0.197747 0.336185
H14   H     H_    0.509770 0.815750 0.753710 0.332614
H15   H     H_    0.477486 0.185072 0.246932 0.339044
H16   H     H_    0.684949 0.697062 0.277984 0.175498
H17   H     H_    0.719766 0.757689 0.183115 0.165313
H18   H     H_    0.609249 0.787367 0.237235 0.181082
H19   H     H_    0.553192 0.717187 0.087965 0.163230
H20   H     H_    0.517329 0.659583 0.182525 0.174566
H21   H     H_    0.680135 0.568039 0.180173 0.186548
H22   H     H_    0.709337 0.627303 0.087089 0.143505
H23   H     H_    0.792789 0.344422 0.845356 0.160027
H24   H     H_    0.356786 0.213298 0.794843 0.174444
H25   H     H_    0.239787 0.274162 0.764086 0.177580
H26   H     H_    0.328906 0.259076 0.682282 0.168314
H27   H     H_    0.345553 0.400243 0.747166 0.206335
H28   H     H_    0.463351 0.338278 0.780345 0.180863
H29   H     H_    0.396841 0.305006 0.926886 0.146455
H30   H     H_    0.290185 0.376333 0.896808 0.157069
H31   H     H_    0.795284 0.709354 0.883725 0.163342
H32   H     H_    0.722833 0.677834 0.775296 0.165158
H33   H     H_    0.697803 0.777668 0.824491 0.192508
H34   H     H_    0.670146 0.386606 0.791894 0.149084
H35   H     H_    0.560466 0.674786 0.846441 0.181091
H36   H     H_    0.630270 0.709420 0.953687 0.167598
H37   H     H_    0.739492 0.576732 0.962015 0.138802
H38   H     H_    0.679917 0.547530 0.854962 0.137944
H39   H     H_    0.152291 0.333179 0.082496 0.170739
H40   H     H_    0.199804 0.372997 0.195452 0.165080
H41   H     H_    0.100327 0.428983 0.121846 0.162833
H42   H     H_    0.269147 0.499096 0.122535 0.159595
H43   H     H_    0.223398 0.457529 0.011171 0.180963
H44   H     H_    0.338284 0.328753 0.054014 0.139211
H45   H     H_    0.700333 0.277973 0.778123 0.200242
H46   H     H_    0.384855 0.374615 0.158139 0.159739
H47   H     H_    0.720986 0.356275 0.637061 0.192752
H48   H     H_    0.842953 0.315729 0.690541 0.214131
H49   H     H_    0.884786 0.453851 0.766284 0.165138
H50   H     H_    0.770609 0.498429 0.716865 0.157963
N1    N     N_1   0.500030 0.499980 0.276710 -0.203222
N2    N     N_1   0.499970 0.500020 0.723290 -0.210981
O1    O     O_R   0.500050 0.380310 0.575330 -0.506748
O2    O     O_R   0.950259 0.646520 0.267961 -0.710056
O3    O     O_2   0.111694 0.493339 0.747391 -0.532138
O4    O     O_R   0.043605 0.362838 0.742299 -0.719082
O5    O     O_2   0.614595 0.145952 0.678071 -0.532435
O6    O     O_R   0.499009 0.071105 0.746141 -0.668801
O7    O     O_2   0.375580 0.854296 0.325109 -0.536663
O8    O     O_R   0.486113 0.930862 0.253061 -0.670814
O9    O     O_2   0.626029 0.924603 0.722849 -0.495042
O10   O     O_R   0.483076 0.843440 0.693085 -0.679865
O11   O     O_2   0.361978 0.076833 0.280828 -0.479747
O12   O     O_R   0.499950 0.619690 0.424670 -0.500819
O13   O     O_R   0.506484 0.156623 0.306570 -0.678208
O14   O     O_R   0.500000 0.380310 0.424640 -0.472903
O15   O     O_R   0.500000 0.619690 0.575360 -0.472920
O16   O     O_R   0.349020 0.499990 0.563110 -0.491484
O17   O     O_R   0.650980 0.500010 0.436890 -0.487752
O18   O     O_R   0.348970 0.499990 0.412410 -0.510942
O19   O     O_R   0.651030 0.500010 0.587590 -0.512066
O20   O     O_2   0.893873 0.512660 0.250253 -0.542864

loop_
_geom_bond_atom_site_label_1
_geom_bond_atom_site_label_2
_ccdc_geom_bond_type
C33   O20   D    
C18   H12   S    
H11   O6    S    
C50   H46   S    
Cu2   N1    S    
C41   C42   S    
C49   H32   S    
C4    C8    S    
C14   C33   S    
C53   C54   T    
Cu2   O18   S    
C11   C19   A    
C42   H17   S    
C48   H36   S    
C13   C18   A    
C43   H30   S    
C14   C21   A    
Cu1   O19   S    
C28   C29   S    
C19   C21   A    
C24   C26   A    
C32   H3    S    
C3    C7    S    
C41   H19   S    
C30   C31   S    
C16   C30   S    
C22   C38   S    
C52   H39   S    
C24   C39   S    
C39   O13   S    
C29   H45   S    
C35   O4    S    
C9    C13   S    
C2    C50   S    
C46   H24   S    
C26   C34   A    
C37   O8    S    
C47   C48   S    
C28   H48   S    
H15   O13   S    
C22   C25   A    
C47   H38   S    
C40   H22   S    
C34   C36   S    
C38   O10   S    
C5    C43   S    
Cu2   O17   S    
C49   H33   S    
C44   H28   S    
C15   C35   S    
C44   C46   S    
C15   C20   A    
C22   C34   A    
C42   H16   S    
C9    O18   A    
Cu2   O12   S    
C48   H35   S    
C51   C52   S    
C17   C27   S    
C31   H5    S    
C6    C40   S    
C4    C6    A    
C6    C56   A    
C41   H20   S    
C12   O15   A    
C19   H1    S    
C23   C37   S    
C2    C4    A    
C1    C54   S    
C29   H23   S    
C3    C56   A    
C31   C32   S    
C27   H49   S    
C28   H47   S    
C23   C24   A    
H14   O10   S    
C50   C51   S    
C40   H21   S    
C37   O7    D    
C33   O2    S    
C30   H8    S    
C46   H26   S    
C38   O9    D    
C48   C49   S    
C50   H44   S    
C43   C44   S    
C14   C16   A    
C2    C5    A    
C32   H2    S    
C10   O17   A    
C36   O6    S    
C26   C53   S    
C25   C45   S    
Cu1   O16   S    
C51   H42   S    
C15   C17   A    
C11   C17   A    
H13   O8    S    
C42   H18   S    
C31   H6    S    
C49   H31   S    
C3    C5    A    
Cu1   N2    S    
C51   H43   S    
C52   H41   S    
Cu2   O14   S    
C9    O16   A    
C39   O11   D    
C7    N2    T    
C43   H29   S    
C10   O19   A    
C32   H4    S    
C8    N1    T    
C1    O1    A    
Cu1   O15   S    
Cu1   Cu2   S    
Cu1   O1    S    
C27   H50   S    
C52   H40   S    
C35   O3    D    
C18   C20   A    
C23   C25   A    
C1    O14   A    
C30   H7    S    
C10   C11   S    
C46   H25   S    
H9    O2    S    
C12   C55   S    
C12   O12   A    
C20   C21   A    
C45   C55   T    
C13   C16   A    
C27   C28   S    
C47   H37   S    
C40   C41   S    
C36   O5    D    
C29   H34   S    
C44   H27   S    
H10   O4    S    
C47   C56   S    
