data_mof_unit_40065.cif
_audit_creation_date              2012-12-10T16:48:49-0500
_audit_creation_method            fapswitch 2.2
_symmetry_space_group_name_H-M    P1
_symmetry_Int_Tables_number       1
_space_group_crystal_system       triclinic
_cell_length_a                    17.249556
_cell_length_b                    8.725674
_cell_length_c                    7.443423
_cell_angle_alpha                 102.727487
_cell_angle_beta                  91.361023
_cell_angle_gamma                 93.095268
_cell_volume                      1090.48611395

loop_
_atom_site_label
_atom_site_type_symbol
_atom_type_description
_atom_site_fract_x
_atom_site_fract_y
_atom_site_fract_z
_atom_type_partial_charge
C1    C     C_R   0.497641 0.200123 0.454068 0.801598
C2    C     C_R   0.502324 0.799871 0.545936 0.801391
C3    C     C_2   0.496572 0.033190 0.427660 0.326818
C4    C     C_2   0.503372 0.966812 0.572347 0.323471
C5    C     C_R   0.351099 0.493679 0.522807 0.921976
C6    C     C_R   0.648985 0.495515 0.475946 0.907656
C7    C     C_R   0.267008 0.466054 0.527328 -0.410655
C8    C     C_R   0.733738 0.494657 0.470426 -0.406520
C9    C     C_R   0.227768 0.363421 0.375574 0.595171
C10   C     C_R   0.774405 0.448420 0.614336 0.624135
C11   C     C_R   0.146506 0.344225 0.366532 -0.193826
C12   C     C_R   0.855127 0.472978 0.635338 -0.221819
C13   C     C_R   0.105256 0.427624 0.514437 -0.252987
C14   C     C_R   0.895852 0.533691 0.501085 -0.312287
C15   C     C_R   0.144837 0.523501 0.669761 0.612644
C16   C     C_R   0.855427 0.576020 0.355177 0.651474
C17   C     C_R   0.225427 0.542657 0.676257 0.528986
C18   C     C_R   0.774657 0.556787 0.339737 0.511247
C19   C     C_2   0.020476 0.417140 0.507847 0.417866
C20   C     C_2   0.980966 0.544710 0.504740 0.636836
Cu1   Cu    Cu3+1 0.508700 0.517250 0.683000 1.142067
Cu2   Cu    Cu3+1 0.491300 0.482750 0.317000 1.146608
H1    H     H_    0.439133 0.378320 0.957316 0.268003
H2    H     H_    0.560874 0.621659 0.042687 0.277692
N1    N     N_2   0.478180 0.456750 0.041980 -0.161662
N2    N     N_2   0.521820 0.543250 0.958020 -0.157368
O1    O     O_R   0.505650 0.286040 0.618880 -0.568518
O2    O     O_R   0.494350 0.713960 0.381120 -0.569737
O3    O     O_R   0.490960 0.256910 0.309800 -0.518459
O4    O     O_R   0.509040 0.743090 0.690200 -0.524448
O5    O     O_R   0.394600 0.516230 0.672450 -0.560579
O6    O     O_R   0.605400 0.483770 0.327550 -0.551309
O7    O     O_R   0.379910 0.487100 0.363380 -0.530884
O8    O     O_R   0.620090 0.512900 0.636620 -0.531977
F1    F     F_    0.269115 0.282834 0.235942 -0.567036
F2    F     F_    0.734823 0.383472 0.737956 -0.548408
F3    F     F_    0.736574 0.603962 0.201470 -0.569816
F4    F     F_    0.262449 0.640353 0.824410 -0.548763
F5    F     F_    0.018907 0.683599 0.495466 -0.558117
F6    F     F_    0.982719 0.273799 0.496089 -0.642918
F7    F     F_    0.104981 0.600337 0.814180 -0.578663
F8    F     F_    0.894522 0.635910 0.227380 -0.561513
C21   C     C_2   0.896095 0.442778 0.801756 0.715707
H3    H     H_    0.954039 0.495176 0.842474 0.095107
O9    O     O_2   0.865991 0.358996 0.895426 -0.421702
C22   C     C_2   0.104957 0.243516 0.200185 0.658229
H4    H     H_    0.042350 0.242674 0.183010 0.102789
O10   O     O_2   0.139922 0.160116 0.079020 -0.399192
F9    F     F_    0.488554 0.947111 0.250816 -0.598500
F10   F     F_    0.511380 0.052895 0.749192 -0.599807

loop_
_geom_bond_atom_site_label_1
_geom_bond_atom_site_label_2
_ccdc_geom_bond_type
C6    O6    A    
C21   H3    S    
C15   C17   A    
Cu2   O3    S    
C14   C20   S    
C11   C13   A    
Cu1   O4    S    
C2    C4    S    
C19   C20   D    
C13   C15   A    
C2    O4    A    
Cu1   O5    S    
C1    O3    A    
C3    F9    S    
C16   C18   A    
Cu2   O2    S    
Cu1   Cu2   S    
C21   O9    D    
C10   F2    S    
Cu2   O6    S    
Cu2   O7    S    
C10   C12   A    
C8    C10   A    
Cu1   N2    S    
H2    N2    S    
C12   C21   S    
C7    C9    A    
C17   F4    S    
C9    C11   A    
Cu1   O1    S    
C14   C16   A    
C2    O2    A    
C19   F6    S    
C13   C19   S    
C9    F1    S    
C3    C4    D    
C22   O10   D    
C16   F8    S    
H1    N1    S    
C15   F7    S    
C1    O1    A    
C4    F10   S    
C1    C3    S    
C5    C7    S    
C20   F5    S    
C22   H4    S    
C11   C22   S    
C6    C8    S    
Cu1   O8    S    
C7    C17   A    
N1    N2    D    
C18   F3    S    
C8    C18   A    
C6    O8    A    
C12   C14   A    
C5    O5    A    
Cu2   N1    S    
C5    O7    A    
