data_mof_unit_38145.cif
_audit_creation_date              2013-03-05T15:48:31-0500
_audit_creation_method            fapswitch 2.2
_symmetry_space_group_name_H-M    P1
_symmetry_Int_Tables_number       1
_space_group_crystal_system       triclinic
_cell_length_a                    18.140105
_cell_length_b                    18.936964
_cell_length_c                    19.355836
_cell_angle_alpha                 110.468914
_cell_angle_beta                  109.036184
_cell_angle_gamma                 108.132316
_cell_volume                      5165.27570252

loop_
_atom_site_label
_atom_site_type_symbol
_atom_site_description
_atom_site_fract_x
_atom_site_fract_y
_atom_site_fract_z
_atom_type_partial_charge
O1    O     O_R   0.408690 0.356690 0.448570 -0.582834
O2    O     O_R   0.408090 0.460090 0.551440 -0.630245
C1    C     C_R   0.377540 0.379869 0.498091 0.858884
O3    O     O_R   0.592400 0.448300 0.540670 -0.638308
O4    O     O_R   0.591800 0.551700 0.643540 -0.604000
C2    C     C_R   0.622301 0.500451 0.618284 0.839955
Zn1   Zn    Zn3+2 0.500400 0.430960 0.431310 1.047259
Zn2   Zn    Zn3+2 0.499600 0.569040 0.568690 1.001984
O5    O     O_R   0.591910 0.539910 0.448560 -0.624633
O6    O     O_R   0.591310 0.643310 0.551430 -0.616202
O7    O     O_R   0.408200 0.448300 0.356460 -0.551103
O8    O     O_R   0.407600 0.551700 0.459330 -0.648442
C3    C     C_R   0.618789 0.619062 0.499019 0.835058
C4    C     C_R   0.377210 0.499805 0.380854 0.875093
C5    C     C_3   0.716274 0.428096 0.646423 0.052248
H1    H     H_    0.655801 0.363917 0.602522 0.182169
C6    C     C_3   0.775945 0.424251 0.721837 -0.541466
H2    H     H_    0.743237 0.359531 0.713022 0.227489
H3    H     H_    0.834931 0.428193 0.717040 0.189051
H4    H     H_    0.795425 0.610481 0.704688 0.135834
H5    H     H_    0.887947 0.577993 0.779814 0.179363
C7    C     C_3   0.769163 0.586892 0.741167 -0.375274
C8    C     C_3   0.641694 0.468691 0.729478 -0.541446
C9    C     C_3   0.687645 0.496322 0.682052 0.043088
H6    H     H_    0.606595 0.505316 0.744686 0.246507
H7    H     H_    0.587908 0.400643 0.685745 0.165480
C10   C     C_3   0.801201 0.498721 0.809537 -0.068039
C11   C     C_3   0.842362 0.584056 0.805911 -0.010789
C12   C     C_3   0.707653 0.479772 0.811562 0.523630
H8    H     H_    0.749352 0.633536 0.771816 0.247809
C13   C     C_R   0.402196 0.400994 0.658119 -0.229977
C14   C     C_R   0.406226 0.428701 0.736244 0.323856
C15   C     C_R   0.341463 0.375399 0.743738 -0.174932
C16   C     C_R   0.274189 0.294291 0.674842 0.096094
C17   C     C_R   0.262826 0.269415 0.590366 0.050126
C18   C     C_R   0.326364 0.327993 0.583051 0.003185
C19   C     C_R   0.194848 0.190208 0.513385 -0.121514
C20   C     C_R   0.198548 0.167888 0.437297 0.019215
C21   C     C_R   0.248699 0.232253 0.426754 -0.095158
C22   C     C_R   0.314429 0.313165 0.501582 -0.138104
C23   C     C_R   0.151888 0.081130 0.371216 -0.184347
C24   C     C_R   0.147157 0.058414 0.292799 0.046457
C25   C     C_R   0.184230 0.123445 0.276796 0.281836
C26   C     C_R   0.231582 0.210405 0.341891 0.202084
H9    H     H_    0.460396 0.437742 0.657898 0.184249
H10   H     H_    0.346521 0.395933 0.805620 0.184809
H11   H     H_    0.119293 0.029674 0.380544 0.156317
H12   H     H_    0.500995 0.546589 0.206196 0.227003
C27   C     C_R   0.216176 0.514376 0.388332 0.169589
C28   C     C_R   0.158413 0.546350 0.400124 -0.151947
C29   C     C_R   0.115324 0.569127 0.344940 0.227816
C30   C     C_R   0.125785 0.555091 0.274244 -0.155950
C31   C     C_R   0.184286 0.524021 0.260251 -0.009934
C32   C     C_R   0.238421 0.513027 0.322772 0.088878
C33   C     C_R   0.190067 0.505648 0.185131 -0.137557
C34   C     C_R   0.265598 0.500802 0.180921 0.084398
C35   C     C_R   0.332104 0.512444 0.253677 0.030715
C36   C     C_R   0.313216 0.506268 0.317756 -0.142811
C37   C     C_R   0.281770 0.489596 0.110474 0.183705
C38   C     C_R   0.367480 0.509055 0.121915 -0.109905
C39   C     C_R   0.435156 0.531890 0.197783 -0.106879
C40   C     C_R   0.417600 0.531390 0.261843 -0.158632
H13   H     H_    0.145205 0.551538 0.451979 0.144214
H14   H     H_    0.089194 0.571328 0.231498 0.133010
H15   H     H_    0.381576 0.504341 0.070652 0.181657
H16   H     H_    0.473254 0.548013 0.318592 0.153440
H17   H     H_    0.897450 0.618645 0.616567 0.140239
C41   C     C_R   0.571450 0.725668 0.442491 -0.217187
C42   C     C_R   0.547365 0.780776 0.420063 0.274611
C43   C     C_R   0.613071 0.851555 0.428473 0.235457
C44   C     C_R   0.699487 0.862367 0.454899 -0.190304
C45   C     C_R   0.723183 0.802266 0.470697 0.090081
C46   C     C_R   0.658841 0.736397 0.469161 0.029747
C47   C     C_R   0.808543 0.806267 0.489496 -0.160227
C48   C     C_R   0.828724 0.745643 0.509194 0.070141
C49   C     C_R   0.768894 0.692532 0.523453 0.042927
C50   C     C_R   0.683381 0.684043 0.497310 -0.137778
C51   C     C_R   0.906204 0.735425 0.517595 0.218997
C52   C     C_R   0.931889 0.693549 0.560244 -0.135928
C53   C     C_R   0.877675 0.652016 0.585011 -0.186425
C54   C     C_R   0.795156 0.647789 0.563289 -0.154176
H18   H     H_    0.520586 0.674328 0.439368 0.148031
H19   H     H_    0.746242 0.920552 0.464142 0.182251
H20   H     H_    0.992131 0.688824 0.570051 0.141392
H21   H     H_    0.752308 0.609677 0.578678 0.129095
O9    O     O_R   0.946100 0.356720 0.906240 -0.605617
O10   O     O_R   0.049540 0.460090 0.906170 -0.634756
C55   C     C_R   0.997130 0.381002 0.875726 0.849342
O11   O     O_R   0.853530 0.448360 0.905250 -0.511988
O12   O     O_R   0.956970 0.551730 0.905180 -0.646692
C56   C     C_R   0.873942 0.501079 0.878424 0.938634
Zn3   Zn    Zn3+2 0.928290 0.431030 0.997370 1.118787
Zn4   Zn    Zn3+2 0.066410 0.569060 0.997270 0.942698
O13   O     O_R   0.945170 0.540000 0.088470 -0.591159
O14   O     O_R   0.048600 0.643370 0.088400 -0.614798
O15   O     O_R   0.037740 0.448360 0.089460 -0.597684
O16   O     O_R   0.141170 0.551730 0.089390 -0.640149
C57   C     C_R   0.998559 0.619398 0.119572 0.926076
C58   C     C_R   0.119779 0.499598 0.116107 0.844799
O17   O     O_R   0.948510 0.908450 0.356890 -0.598849
O18   O     O_R   0.052500 0.908420 0.460860 -0.633970
C59   C     C_R   0.003720 0.881925 0.382407 0.834955
O19   O     O_R   0.039610 0.091640 0.448030 -0.604437
O20   O     O_R   0.143600 0.091610 0.551990 -0.629514
C60   C     C_R   0.121187 0.126347 0.508788 0.834625
Zn5   Zn    Zn3+2 0.930570 0.000030 0.430590 0.997034
Zn6   Zn    Zn3+2 0.069430 0.999990 0.569430 0.947602
O21   O     O_R   0.947500 0.091600 0.539170 -0.634835
O22   O     O_R   0.051490 0.091570 0.643140 -0.609017
O23   O     O_R   0.856400 0.908420 0.448030 -0.619894
O24   O     O_R   0.960390 0.908390 0.552000 -0.612545
C61   C     C_R   0.994241 0.116180 0.617540 0.858852
C62   C     C_R   0.878407 0.877538 0.496575 0.849336
C63   C     C_R   0.035561 0.408262 0.738857 0.219001
C64   C     C_R   0.073448 0.422264 0.689219 -0.132550
C65   C     C_R   0.079016 0.357556 0.634151 -0.180877
C66   C     C_R   0.046464 0.277998 0.627552 -0.167668
C67   C     C_R   0.017576 0.263433 0.683835 0.030110
C68   C     C_R   0.016708 0.330996 0.745090 0.061508
C69   C     C_R   0.990074 0.182468 0.679471 -0.163541
C70   C     C_R   0.971621 0.169480 0.741077 0.070786
C71   C     C_R   0.992161 0.241691 0.812795 -0.012932
C72   C     C_R   0.001350 0.317674 0.809571 -0.167753
C73   C     C_R   0.937187 0.088169 0.736881 0.167247
C74   C     C_R   0.948794 0.084523 0.810415 -0.204425
C75   C     C_R   0.985680 0.158934 0.886784 0.304932
C76   C     C_R   0.003747 0.236158 0.886786 -0.229163
H22   H     H_    0.092312 0.481938 0.688045 0.144896
H23   H     H_    0.104160 0.367603 0.592854 0.153583
H24   H     H_    0.047606 0.229463 0.578660 0.154001
H25   H     H_    0.926112 0.022711 0.807160 0.193611
H26   H     H_    0.027998 0.291574 0.946021 0.186620
H27   H     H_    0.690925 0.538126 0.084986 0.238454
C77   C     C_R   0.163445 0.755571 0.266619 -0.158615
C78   C     C_R   0.244435 0.827173 0.331201 -0.124874
C79   C     C_R   0.246077 0.896877 0.389164 -0.118865
C80   C     C_R   0.166912 0.893494 0.384948 -0.170394
C81   C     C_R   0.083612 0.819777 0.321472 0.061081
C82   C     C_R   0.081396 0.752374 0.258144 0.056839
C83   C     C_R   0.003065 0.812004 0.320046 -0.143426
C84   C     C_R   0.920918 0.736930 0.259298 -0.004605
C85   C     C_R   0.916375 0.673796 0.190031 -0.024820
C86   C     C_R   0.997969 0.683230 0.188926 -0.181922
C87   C     C_R   0.842332 0.724943 0.265702 -0.258140
C88   C     C_R   0.760536 0.652091 0.205662 0.318160
C89   C     C_R   0.755144 0.592008 0.135517 -0.233804
C90   C     C_R   0.829565 0.604549 0.124710 0.295355
H28   H     H_    0.166855 0.702621 0.224994 0.147885
H29   H     H_    0.306106 0.828635 0.335988 0.139741
H30   H     H_    0.308996 0.953194 0.438610 0.146909
H31   H     H_    0.172696 0.949297 0.432543 0.155463
H32   H     H_    0.842617 0.771916 0.317121 0.197621
C91   C     C_3   0.763705 0.444065 0.595471 -0.896362
H33   H     H_    0.724079 0.449652 0.542463 0.266669
H34   H     H_    0.829183 0.502881 0.636187 0.226049
H35   H     H_    0.775312 0.389113 0.567810 0.247759
N1    N     N_R   0.712957 0.551328 0.880945 0.248412
O25   O     O_R   0.665054 0.534144 0.916269 -0.238287
O26   O     O_R   0.740519 0.627509 0.889571 -0.375563
C92   C     C_3   0.903380 0.671832 0.889595 -0.700298
H36   H     H_    0.974392 0.691952 0.907489 0.220332
H37   H     H_    0.891525 0.723987 0.883431 0.245340
H38   H     H_    0.896273 0.669980 0.943253 0.304676
N2    N     N_R   0.169835 0.101757 0.192943 0.238245
O27   O     O_R   0.200406 0.054406 0.158334 -0.368710
O28   O     O_R   0.122714 0.126025 0.149584 -0.236944
N3    N     N_R   0.476317 0.510963 0.807957 0.231419
O29   O     O_R   0.490411 0.529472 0.884041 -0.316469
O30   O     O_R   0.520286 0.571116 0.796968 -0.359207
C93   C     C_3   0.223035 0.239122 0.699865 -0.752948
H39   H     H_    0.240961 0.187573 0.696250 0.271126
H40   H     H_    0.236043 0.274361 0.765699 0.215079
H41   H     H_    0.153281 0.215976 0.660386 0.223740
C94   C     C_3   0.096018 0.965152 0.224552 -0.727738
H42   H     H_    0.043000 0.955690 0.167684 0.265966
H43   H     H_    0.141722 0.944774 0.207621 0.260429
H44   H     H_    0.063606 0.922751 0.245105 0.221482
N4    N     N_R   0.249303 0.273690 0.316779 0.203272
O31   O     O_R   0.298798 0.277327 0.280916 -0.307490
O32   O     O_R   0.190168 0.298647 0.297710 -0.377486
C95   C     C_3   0.242965 0.477425 0.443827 -0.751239
H45   H     H_    0.269473 0.434923 0.421634 0.257974
H46   H     H_    0.291698 0.530082 0.509889 0.236750
H47   H     H_    0.183754 0.436508 0.443818 0.221072
C96   C     C_3   0.055000 0.605083 0.358710 -0.917188
H48   H     H_    0.051512 0.610634 0.416488 0.235096
H49   H     H_    0.080097 0.670041 0.365751 0.250676
H50   H     H_    0.986843 0.562638 0.303640 0.254561
C97   C     C_3   0.212284 0.450811 0.020548 -0.821855
H51   H     H_    0.146127 0.411579 0.008886 0.216237
H52   H     H_    0.214524 0.502031 0.004607 0.264701
H53   H     H_    0.224437 0.405718 0.976459 0.225595
C98   C     C_3   0.452412 0.763790 0.389695 -0.923742
H54   H     H_    0.449972 0.818451 0.433550 0.243772
H55   H     H_    0.423624 0.754866 0.325175 0.249662
H56   H     H_    0.409860 0.704786 0.386601 0.239029
C99   C     C_3   0.595077 0.917772 0.410679 -0.897983
H57   H     H_    0.525376 0.904706 0.389880 0.249870
H58   H     H_    0.638545 0.981980 0.468787 0.239694
H59   H     H_    0.610358 0.920013 0.360164 0.254645
C100  C     C_3   0.955536 0.752915 0.471541 -0.826696
H60   H     H_    0.922880 0.770374 0.427107 0.225473
H61   H     H_    0.025427 0.803827 0.517448 0.262857
H62   H     H_    0.955886 0.693761 0.432979 0.222823
N5    N     N_R   0.999911 0.155479 0.963032 0.232671
O33   O     O_R   0.980470 0.082776 0.962001 -0.326974
O34   O     O_R   0.034334 0.225181 0.034596 -0.329943
C101  C     C_3   0.005731 0.472238 0.769714 -0.859884
H63   H     H_    0.955825 0.445908 0.785888 0.239099
H64   H     H_    0.063246 0.534383 0.824048 0.263513
H65   H     H_    0.972721 0.484278 0.718846 0.204757
C102  C     C_3   0.877064 0.003905 0.656305 -0.887590
H66   H     H_    0.857027 0.011452 0.600273 0.222297
H67   H     H_    0.910132 0.963651 0.653596 0.257765
H68   H     H_    0.814385 0.970202 0.655720 0.239932
N6    N     N_R   0.681723 0.642210 0.212553 0.219784
O35   O     O_R   0.603521 0.583964 0.148121 -0.397955
O36   O     O_R   0.687046 0.693018 0.281965 -0.418246
N7    N     N_R   0.811544 0.556252 0.041168 0.236840
O37   O     O_R   0.759859 0.473384 0.997382 -0.323910
O38   O     O_R   0.848729 0.596115 0.009503 -0.451113
N8    N     N_R   0.664638 0.398681 0.812026 0.229000
O39   O     O_R   0.694675 0.344032 0.804930 -0.381960
O40   O     O_R   0.586125 0.373890 0.805993 -0.328692

loop_
_geom_bond_atom_site_label_1
_geom_bond_atom_site_label_2
_geom_bond_distance
_ccdc_geom_bond_type
O18   Zn6   2.053361 S    
O10   C55   1.274834 A    
N1    O25   1.302171 A    
C28   H13   1.084925 S    
C57   C86   1.464871 S    
C10   C12   1.638361 S    
Zn6   O22   2.018092 S    
C23   C24   1.389828 A    
Zn3   O13   2.042281 S    
C17   C18   1.414050 A    
C77   C82   1.422502 A    
C51   C100  1.499173 S    
Zn3   O15   2.025736 S    
C33   C34   1.427655 A    
C88   C89   1.382468 A    
C35   C36   1.422364 A    
O14   C57   1.298645 A    
C35   C40   1.418851 A    
N3    O30   1.301398 A    
C31   C32   1.414357 A    
C65   C66   1.377412 A    
C99   H59   1.110483 S    
Zn1   O7    2.024352 S    
O18   C59   1.286435 A    
C93   H40   1.111693 S    
C8    C12   1.539621 S    
N2    O27   1.300782 A    
C17   C19   1.441409 A    
N6    O36   1.301382 A    
C42   C43   1.403620 A    
O3    Zn1   2.059612 S    
C32   C36   1.432492 A    
O4    C2    1.290675 A    
C53   C54   1.383918 A    
O7    C4    1.297155 A    
O9    C55   1.303393 A    
C96   H49   1.110263 S    
Zn4   O14   2.028455 S    
C93   H39   1.108266 S    
O13   C57   1.281138 A    
C75   N5    1.441706 S    
C64   C65   1.371728 A    
O15   C58   1.293338 A    
C95   H45   1.094235 S    
C11   C92   1.553697 S    
C34   C35   1.412897 A    
C99   H58   1.110595 S    
C16   C17   1.455650 A    
C100  H60   1.090118 S    
C8    H7    1.115706 S    
C71   C76   1.424274 A    
C97   H52   1.109339 S    
O5    C3    1.284100 A    
C67   C68   1.416593 A    
C70   C73   1.431272 A    
C94   H42   1.110369 S    
C82   C86   1.420140 A    
C65   H23   1.083220 S    
C63   C101  1.493355 S    
C41   C42   1.394745 A    
C98   H55   1.110377 S    
C8    C9    1.541063 S    
C10   C56   1.514924 S    
C43   C44   1.401732 A    
O11   C56   1.288909 A    
C27   C32   1.446213 A    
C13   C18   1.422063 A    
C101  H65   1.112356 S    
C63   C68   1.453038 A    
C16   C93   1.493593 S    
O24   C62   1.297699 A    
C25   N2    1.435873 S    
C95   H46   1.110415 S    
C37   C38   1.401389 A    
N1    O26   1.298926 A    
C7    C11   1.530500 S    
C15   H10   1.083819 S    
C100  H61   1.109779 S    
C33   C58   1.454151 S    
C99   H57   1.107039 S    
C55   C72   1.459717 S    
O17   C59   1.289666 A    
O20   C60   1.275406 A    
O16   C58   1.281466 A    
N4    O31   1.301628 A    
C44   H19   1.070940 S    
C49   C50   1.401417 A    
C31   C33   1.419360 A    
C12   N8    1.495141 S    
C4    C36   1.456806 S    
C3    C50   1.429880 S    
C47   C48   1.440161 A    
C40   H16   1.077878 S    
C29   C30   1.387638 A    
C6    C10   1.580006 S    
C92   H38   1.098412 S    
C78   C79   1.385617 A    
C83   C84   1.411924 A    
C20   C23   1.417804 A    
C45   C47   1.440822 A    
C24   C94   1.507923 S    
O22   C61   1.291624 A    
C26   N4    1.430166 S    
N3    O29   1.301753 A    
C61   C69   1.443668 S    
C51   C52   1.401548 A    
C101  H63   1.085954 S    
C96   H50   1.110599 S    
C12   N1    1.486880 S    
C73   C102  1.494902 S    
C28   C29   1.387551 A    
C41   C46   1.418872 A    
C78   H29   1.082678 S    
C47   C62   1.462616 S    
C64   H22   1.084872 S    
O21   C61   1.287671 A    
C38   C39   1.378401 A    
O11   Zn3   2.057916 S    
C92   H37   1.110770 S    
C97   H53   1.111880 S    
C48   C49   1.405627 A    
C19   C60   1.448204 S    
C19   C20   1.413819 A    
C29   C96   1.503066 S    
N7    O38   1.294928 A    
C88   N6    1.439467 S    
C74   H25   1.084044 S    
N4    O32   1.299844 A    
C13   C14   1.384346 A    
O23   C62   1.291968 A    
C102  H68   1.111373 S    
C18   C22   1.429008 A    
Zn2   O8    2.059610 S    
C98   H56   1.110901 S    
C2    C9    1.450997 S    
C42   C98   1.509385 S    
C6    H2    1.103787 S    
C23   H11   1.079722 S    
O19   C60   1.312879 A    
C59   C83   1.439921 S    
N6    O35   1.301643 A    
C91   H35   1.110912 S    
N8    O40   1.303638 A    
C66   H24   1.075661 S    
C76   H26   1.073057 S    
C94   H44   1.109419 S    
C70   C71   1.397704 A    
C21   C26   1.441443 A    
C81   C83   1.412194 A    
C27   C95   1.508795 S    
O3    C2    1.274266 A    
C5    C9    1.562895 S    
H5    C11   1.114971 S    
C102  H67   1.104908 S    
C38   H15   1.084286 S    
C98   H54   1.110166 S    
C43   C99   1.510317 S    
C25   C26   1.414057 A    
C30   H14   1.079999 S    
C74   C75   1.389077 A    
C100  H62   1.111194 S    
C7    C9    1.543586 S    
C37   C97   1.502111 S    
C91   H34   1.106558 S    
C24   C25   1.397123 A    
O12   C56   1.304314 A    
Zn4   O16   2.057920 S    
N7    O37   1.302171 A    
C30   C31   1.417867 A    
O12   Zn4   2.025618 S    
C89   C90   1.393591 A    
Zn5   O23   2.046173 S    
C95   H47   1.111675 S    
C97   H51   1.092786 S    
C5    C6    1.549310 S    
N5    O33   1.301653 A    
C7    H8    1.109721 S    
C52   H20   1.084285 S    
O1    Zn1   2.022918 S    
Zn6   O24   2.013706 S    
C85   C90   1.433271 A    
O2    Zn2   2.036840 S    
H17   C53   1.081307 S    
H4    C7    1.110235 S    
C45   C46   1.401538 A    
O6    C3    1.278669 A    
C49   C54   1.417022 A    
C1    C22   1.456335 S    
O4    Zn2   2.024354 S    
C79   H30   1.082577 S    
C63   C64   1.400453 A    
C77   C78   1.391475 A    
C84   C87   1.425715 A    
C68   C72   1.449910 A    
C77   H28   1.079111 S    
C80   C81   1.420571 A    
O17   Zn5   2.018005 S    
C34   C37   1.444892 A    
C87   C88   1.391100 A    
C41   H18   1.079065 S    
C14   C15   1.376783 A    
N2    O28   1.300958 A    
O2    C1    1.298753 A    
O8    C4    1.284320 A    
C44   C45   1.426802 A    
C87   H32   1.075359 S    
C101  H64   1.110815 S    
O9    Zn3   2.028455 S    
C66   C67   1.424809 A    
C92   H36   1.111623 S    
C96   H48   1.110786 S    
C20   C21   1.399922 A    
Zn5   O21   2.053495 S    
C75   C76   1.395581 A    
O10   Zn4   2.042364 S    
C6    H3    1.085860 S    
C94   H43   1.109779 S    
C15   C16   1.402108 A    
O19   Zn5   2.013714 S    
C8    H6    1.107900 S    
C39   C40   1.379443 A    
C48   C51   1.442737 A    
C67   C69   1.418684 A    
C5    C91   1.550659 S    
C90   N7    1.411675 S    
C81   C82   1.405350 A    
C52   C53   1.380369 A    
C21   C22   1.432257 A    
Zn1   O5    2.036840 S    
C102  H66   1.101076 S    
Zn2   O6    2.022917 S    
C27   C28   1.403898 A    
C13   H9    1.070821 S    
C14   N3    1.440011 S    
H12   C39   1.079315 S    
C10   C11   1.592586 S    
C85   C86   1.442878 A    
C46   C50   1.404361 A    
C69   C70   1.417285 A    
C80   H31   1.078640 S    
H27   C89   1.083396 S    
O1    C1    1.282250 A    
C71   C72   1.422107 A    
C84   C85   1.406845 A    
N5    O34   1.301878 A    
N8    O39   1.298894 A    
O20   Zn6   2.046303 S    
C54   H21   1.079804 S    
C79   C80   1.391293 A    
C5    H1    1.114608 S    
C73   C74   1.398990 A    
C91   H33   1.105785 S    
C93   H41   1.080234 S    
