data_mof_unit_57408.cif
_audit_creation_date              2012-12-11T14:23:06-0500
_audit_creation_method            fapswitch 2.2
_symmetry_space_group_name_H-M    P1
_symmetry_Int_Tables_number       1
_space_group_crystal_system       triclinic
_cell_length_a                    11.044702
_cell_length_b                    11.120298
_cell_length_c                    18.676318
_cell_angle_alpha                 89.498991
_cell_angle_beta                  89.280774
_cell_angle_gamma                 59.425156
_cell_volume                      1974.74743854

loop_
_atom_site_label
_atom_site_type_symbol
_atom_type_description
_atom_site_fract_x
_atom_site_fract_y
_atom_site_fract_z
_atom_type_partial_charge
C1    C     C_R   0.241308 0.642438 0.610941 0.541140
C2    C     C_3   0.760418 0.494981 0.802440 0.147997
C3    C     C_3   0.676255 0.656189 0.819438 0.083867
C4    C     C_3   0.640031 0.611000 0.685222 -0.015959
C5    C     C_3   0.689407 0.716244 0.686866 -0.217358
C6    C     C_3   0.752506 0.474353 0.721594 -0.176237
C7    C     C_R   0.715711 0.099898 0.812861 0.040754
C8    C     C_R   0.819292 0.116406 0.775197 0.021181
C9    C     C_R   0.815475 0.122404 0.698840 0.044910
C10   C     C_R   0.604160 0.105302 0.701563 -0.158759
C11   C     C_R   0.610998 0.094362 0.774251 -0.141860
C12   C     C_R   0.625009 0.584317 0.608841 0.545817
C13   C     C_R   0.922352 0.133142 0.810300 -0.083911
C14   C     C_R   0.022143 0.147968 0.772274 -0.192638
C15   C     C_R   0.031244 0.133636 0.698899 -0.143652
C16   C     C_R   0.929266 0.120599 0.660693 0.288172
C17   C     C_R   0.694615 0.135192 0.664071 0.030181
C18   C     C_R   0.198001 0.664340 0.838426 0.011707
C19   C     C_R   0.237825 0.535428 0.805837 0.042572
C20   C     C_R   0.231071 0.528940 0.729798 0.044314
C21   C     C_R   0.178349 0.769802 0.722439 -0.141225
C22   C     C_R   0.176277 0.776979 0.795563 -0.121608
C23   C     C_R   0.634118 0.219783 0.599337 0.557336
C24   C     C_R   0.269154 0.417804 0.847956 -0.064450
C25   C     C_R   0.275793 0.301575 0.817456 -0.115757
C26   C     C_R   0.257820 0.297721 0.744229 -0.144146
C27   C     C_R   0.236094 0.409208 0.700595 -0.072866
C28   C     C_R   0.206664 0.647969 0.687695 0.005725
C29   C     C_R   0.642139 0.662258 0.162678 -0.000281
C30   C     C_R   0.696380 0.523876 0.186103 0.031378
C31   C     C_R   0.708275 0.496025 0.260438 0.018795
C32   C     C_R   0.560365 0.745881 0.282204 -0.148715
C33   C     C_R   0.578731 0.771721 0.211647 -0.154228
C34   C     C_R   0.224727 0.651379 0.400096 0.557816
C35   C     C_R   0.756560 0.411901 0.136964 -0.080230
C36   C     C_R   0.857258 0.279830 0.159626 -0.104978
C37   C     C_R   0.887344 0.255890 0.231770 -0.139672
C38   C     C_R   0.807043 0.358243 0.282197 -0.100438
C39   C     C_R   0.628645 0.609231 0.308722 -0.001105
C40   C     C_R   0.680291 0.080047 0.188880 0.005946
C41   C     C_R   0.549307 0.132998 0.225098 -0.017568
C42   C     C_R   0.551914 0.116983 0.299787 0.019216
C43   C     C_R   0.790362 0.067911 0.302463 -0.169653
C44   C     C_R   0.802408 0.034651 0.229880 -0.152517
C45   C     C_R   0.616943 0.588072 0.385774 0.553370
C46   C     C_R   0.416255 0.207360 0.191995 -0.116264
C47   C     C_R   0.294238 0.244441 0.230956 -0.201953
C48   C     C_R   0.302681 0.201482 0.301711 -0.075432
C49   C     C_R   0.432695 0.123100 0.334743 0.325467
C50   C     C_R   0.660505 0.124622 0.336078 -0.007238
C51   C     C_R   0.162762 0.653327 0.180242 -0.004100
C52   C     C_R   0.234305 0.715186 0.207910 0.005545
C53   C     C_R   0.205064 0.761288 0.279265 0.037748
C54   C     C_R   0.123450 0.595410 0.299427 -0.153341
C55   C     C_R   0.109535 0.590566 0.226115 -0.152581
C56   C     C_R   0.621344 0.218946 0.398623 0.540914
C57   C     C_R   0.299730 0.764219 0.160526 -0.076875
C58   C     C_R   0.286467 0.892027 0.173300 -0.124594
C59   C     C_R   0.235965 0.954531 0.238943 -0.134302
C60   C     C_R   0.203883 0.888770 0.294100 0.097417
C61   C     C_R   0.170419 0.680790 0.327379 0.009867
C62   C     C_R   0.721903 0.060348 0.888742 0.577995
C63   C     C_R   0.715592 0.682988 0.891890 0.565070
C64   C     C_R   0.124541 0.703407 0.908177 0.552665
C65   C     C_R   0.697864 0.049108 0.111922 0.557769
C66   C     C_R   0.692823 0.688356 0.095509 0.519383
C67   C     C_3   0.518365 0.703679 0.808467 -0.061785
C68   C     C_R   0.094583 0.706173 0.111808 0.525396
C69   C     C_3   0.499761 0.671389 0.729017 -0.218587
C70   C     C_3   0.706919 0.744304 0.764324 -0.078624
Cr1   Cr    Cr6+3 0.392940 0.397950 0.502230 1.026250
Cr2   Cr    Cr6+3 0.398400 0.708500 0.501260 1.042285
Cr3   Cr    Cr6+3 0.708640 0.393530 0.496460 0.983011
Cr4   Cr    Cr6+3 0.937880 0.938320 0.007620 0.991009
Cr5   Cr    Cr6+3 0.625560 0.937220 0.994510 1.022701
Cr6   Cr    Cr6+3 0.938080 0.625010 0.001190 1.001057
H1    H     H_    0.857841 0.437679 0.696839 0.114708
H2    H     H_    0.789410 0.675069 0.655820 0.172856
H3    H     H_    0.518072 0.103321 0.675530 0.143041
H4    H     H_    0.927379 0.140938 0.867080 0.165828
H5    H     H_    0.532769 0.078110 0.800220 0.169834
H6    H     H_    0.096480 0.165431 0.800538 0.151659
H7    H     H_    0.120232 0.129805 0.671920 0.107162
H8    H     H_    0.160167 0.860927 0.692772 0.176323
H9    H     H_    0.485823 0.646151 0.845369 0.180837
H10   H     H_    0.284510 0.416885 0.905149 0.120762
H11   H     H_    0.142516 0.877677 0.818274 0.194624
H12   H     H_    0.293496 0.215070 0.851267 0.150130
H13   H     H_    0.261960 0.207131 0.720945 0.114410
H14   H     H_    0.213695 0.401919 0.645432 0.150486
H15   H     H_    0.498581 0.834174 0.316688 0.172290
H16   H     H_    0.735841 0.428839 0.080140 0.105646
H17   H     H_    0.541985 0.878397 0.195225 0.139826
H18   H     H_    0.914910 0.197190 0.121199 0.138373
H19   H     H_    0.968765 0.154724 0.248967 0.131967
H20   H     H_    0.465939 0.592960 0.729024 0.126868
H21   H     H_    0.832156 0.326719 0.336898 0.183132
H22   H     H_    0.879167 0.054682 0.331456 0.158372
H23   H     H_    0.401901 0.247475 0.138125 0.166563
H24   H     H_    0.905434 0.985191 0.204750 0.155193
H25   H     H_    0.192960 0.301484 0.205346 0.120685
H26   H     H_    0.207099 0.226939 0.330506 0.150123
H27   H     H_    0.093657 0.536270 0.334395 0.138260
H28   H     H_    0.335034 0.718506 0.107838 0.119290
H29   H     H_    0.051407 0.544141 0.205615 0.144059
H30   H     H_    0.418167 0.768122 0.702479 0.166225
H31   H     H_    0.314775 0.943023 0.132289 0.126788
H32   H     H_    0.218669 0.057043 0.245903 0.132418
H33   H     H_    0.631575 0.854806 0.774315 0.172281
H34   H     H_    0.611393 0.816168 0.660736 0.139998
H35   H     H_    0.874271 0.446310 0.815095 0.156099
H36   H     H_    0.725726 0.392347 0.712222 0.156730
O1    O     O_R   0.507340 0.255690 0.581430 -0.533805
O2    O     O_R   0.524510 0.695820 0.424050 -0.497631
O3    O     O_R   0.736370 0.504260 0.414810 -0.537224
O4    O     O_R   0.691220 0.277270 0.422180 -0.531670
O5    O     O_3   0.499990 0.499990 0.499980 -0.297406
O6    O     O_R   0.089570 0.825450 0.930590 -0.516293
O7    O     O_R   0.818700 0.054260 0.929860 -0.525498
O8    O     O_R   0.606310 0.077010 0.915520 -0.513132
O9    O     O_R   0.646730 0.806540 0.917560 -0.469888
O10   O     O_R   0.837290 0.593240 0.915240 -0.527461
O11   O     O_R   0.065320 0.635310 0.931580 -0.483322
O12   O     O_R   0.280360 0.527380 0.578910 -0.519983
O13   O     O_R   0.068470 0.828620 0.091850 -0.528939
O14   O     O_R   0.799150 0.057200 0.079350 -0.514649
O15   O     O_R   0.585220 0.080180 0.076770 -0.533439
O16   O     O_R   0.627170 0.809480 0.067050 -0.517165
O17   O     O_R   0.816200 0.596410 0.076500 -0.528373
O18   O     O_R   0.045770 0.638240 0.081070 -0.512642
O19   O     O_3   0.833840 0.833520 0.001110 -0.262894
O20   O     O_R   0.260600 0.739610 0.584580 -0.504207
O21   O     O_R   0.532370 0.695050 0.573830 -0.508456
O22   O     O_R   0.744850 0.503430 0.576380 -0.539527
O23   O     O_R   0.699080 0.276500 0.571950 -0.491030
O24   O     O_R   0.498860 0.256520 0.419860 -0.472114
O25   O     O_R   0.272490 0.528150 0.429140 -0.497438
O26   O     O_R   0.252110 0.740440 0.423010 -0.474319
I1    I     I_    0.373938 0.919332 0.835654 -0.575688
I2    I     I_    0.895187 0.740324 0.773496 -0.438474
O27   O     O_3   0.948261 0.088661 0.588117 -0.545233
C71   C     C_3   0.997244 0.167298 0.550769 -0.048101
H37   H     H_    0.946988 0.195288 0.497674 0.185056
H38   H     H_    0.113180 0.103749 0.543866 0.133624
H39   H     H_    0.968443 0.268388 0.576538 0.109145
O28   O     O_3   0.431535 0.072842 0.403586 -0.550365
C72   C     C_3   0.563479 0.961248 0.426002 -0.076403
H40   H     H_    0.630894 0.893332 0.381652 0.095978
H41   H     H_    0.544364 0.895973 0.464199 0.181269
H42   H     H_    0.621284 0.000515 0.456770 0.132091
I3    I     I_    0.126315 0.023176 0.384658 -0.460008
O29   O     O_3   0.700531 0.423040 0.838115 -0.602508
C73   C     C_3   0.730815 0.402897 0.911940 -0.122595
H43   H     H_    0.843560 0.363289 0.923168 0.122604
H44   H     H_    0.706294 0.323688 0.932031 0.158380
H45   H     H_    0.660762 0.499217 0.942517 0.117628

loop_
_geom_bond_atom_site_label_1
_geom_bond_atom_site_label_2
_ccdc_geom_bond_type
C46   H23   S    
C70   I2    S    
C8    C13   A    
C47   H25   S    
C29   C33   A    
C41   C42   A    
C35   C36   A    
C43   H22   S    
C1    O20   A    
C54   H27   S    
C57   C58   A    
C7    C8    A    
Cr1   O25   S    
C11   H5    S    
C26   H13   S    
C7    C11   A    
Cr4   O7    S    
C37   H19   S    
C26   C27   A    
C17   C23   S    
Cr3   O4    S    
C30   C35   A    
C55   H29   S    
C65   O15   A    
C36   C37   A    
C72   H41   S    
C9    C16   A    
Cr5   O16   S    
C30   C31   A    
Cr6   O19   S    
C32   H15   S    
C5    H34   S    
C10   C17   A    
C15   C16   A    
Cr2   O2    S    
C64   O6    A    
Cr1   O1    S    
C27   H14   S    
C58   H31   S    
C32   C39   A    
C72   H40   S    
C63   O9    A    
C54   C55   A    
C53   C61   A    
C45   O2    A    
Cr3   O23   S    
C66   O16   A    
C8    C9    A    
Cr2   O5    S    
C1    C28   S    
C41   C46   A    
C19   C24   A    
C13   C14   A    
C73   H44   S    
C67   I1    S    
C62   O8    A    
C39   C45   S    
C66   O17   A    
C35   H16   S    
C69   H20   S    
Cr2   O26   S    
C13   H4    S    
C59   C60   A    
C18   C22   A    
C21   C22   A    
C71   H39   S    
C2    C6    S    
Cr6   O18   S    
C38   H21   S    
C4    C69   S    
C56   O24   A    
C53   C60   A    
Cr5   O19   S    
Cr2   O20   S    
C2    O29   S    
Cr4   O6    S    
C2    H35   S    
C67   H9    S    
Cr3   O5    S    
Cr1   O5    S    
C51   C52   A    
Cr1   O12   S    
C3    C70   S    
C24   C25   A    
C4    C6    S    
C52   C57   A    
Cr1   O24   S    
C18   C19   A    
C6    H1    S    
C15   H7    S    
C20   C28   A    
C58   C59   A    
C34   O26   A    
C25   H12   S    
C50   C56   S    
C67   C69   S    
C60   I3    S    
C37   C38   A    
C43   C44   A    
C7    C62   S    
C5    H2    S    
C29   C30   A    
C70   H33   S    
C23   O1    A    
Cr6   O17   S    
C45   O3    A    
C47   C48   A    
C14   C15   A    
C21   H8    S    
C10   H3    S    
C48   H26   S    
C72   H42   S    
C56   O4    A    
C22   H11   S    
O29   C73   S    
C73   H45   S    
C68   O18   A    
C62   O7    A    
C42   C50   A    
C9    C17   A    
C48   C49   A    
C54   C61   A    
C21   C28   A    
C40   C65   S    
C71   H38   S    
C4    C12   S    
C14   H6    S    
C63   O10   A    
C52   C53   A    
O28   C72   S    
C57   H28   S    
C46   C47   A    
C40   C41   A    
Cr5   O9    S    
Cr6   O11   S    
C6    H36   S    
C3    C67   S    
Cr5   O8    S    
C4    C5    S    
C5    C70   S    
C33   H17   S    
C69   H30   S    
C43   C50   A    
C20   C27   A    
C3    C63   S    
C64   O11   A    
C34   O25   A    
C59   H32   S    
Cr3   O3    S    
C31   C38   A    
C23   O23   A    
C12   O21   A    
Cr6   O10   S    
C32   C33   A    
C19   C20   A    
C2    C3    S    
C25   C26   A    
C1    O12   A    
O27   C71   S    
C65   O14   A    
C44   H24   S    
C18   C64   S    
Cr2   O21   S    
Cr4   O14   S    
C31   C39   A    
C49   O28   S    
C16   O27   S    
C51   C55   A    
C51   C68   S    
C34   C61   S    
C10   C11   A    
C42   C49   A    
C29   C66   S    
Cr4   O13   S    
C36   H18   S    
C40   C44   A    
Cr3   O22   S    
C71   H37   S    
C12   O22   A    
C73   H43   S    
Cr4   O19   S    
C24   H10   S    
C68   O13   A    
Cr5   O15   S    
