data_mof_unit_30340.cif
_audit_creation_date              2012-10-26T21:05:12-0400
_audit_creation_method            fapswitch 2.2
_symmetry_space_group_name_H-M    P1
_symmetry_Int_Tables_number       1
_space_group_crystal_system       triclinic
_cell_length_a                    9.69638
_cell_length_b                    10.992518
_cell_length_c                    13.872793
_cell_angle_alpha                 96.558393
_cell_angle_beta                  85.422795
_cell_angle_gamma                 89.660022
_cell_volume                      1464.13757741

loop_
_atom_site_label
_atom_site_type_symbol
_atom_type_description
_atom_site_fract_x
_atom_site_fract_y
_atom_site_fract_z
_atom_type_partial_charge
C1    C     C_R   0.497233 0.737506 0.512087 0.531779
C2    C     C_R   0.614331 0.934209 0.517688 -0.143943
C3    C     C_R   0.617756 0.055108 0.496526 -0.020999
C4    C     C_R   0.477951 0.499952 0.682493 0.533620
C5    C     C_R   0.493548 0.125295 0.502157 0.021094
C6    C     C_R   0.868284 0.363012 0.351636 -0.086017
C7    C     C_R   0.936497 0.327889 0.262056 -0.177381
C8    C     C_R   0.077548 0.335902 0.251298 -0.071953
C9    C     C_R   0.152117 0.369772 0.332092 0.265238
C10   C     C_R   0.082768 0.434060 0.421581 0.137413
C11   C     C_R   0.932973 0.432407 0.425718 0.110224
C12   C     C_1   0.465340 0.493940 0.784875 -0.031887
C13   C     C_R   0.920006 0.568246 0.570878 0.122400
C14   C     C_R   0.066755 0.561428 0.572429 0.009122
C15   C     C_R   0.499247 0.261161 0.498317 0.570279
C16   C     C_R   0.522167 0.502213 0.317758 0.596169
C17   C     C_1   0.534424 0.505270 0.215093 0.010325
C18   C     C_2   0.548536 0.511051 0.025266 -0.100650
C19   C     C_2   0.440869 0.477323 0.973545 0.026616
C20   C     C_1   0.453782 0.486855 0.870832 -0.047523
C21   C     C_1   0.542848 0.508063 0.128644 -0.044754
C22   C     C_3   0.305627 0.433231 0.018773 -0.258279
C23   C     C_R   0.233805 0.881452 0.544435 -0.127142
C24   C     C_3   0.210102 0.540810 0.059677 -0.418385
C25   C     C_3   0.747077 0.088759 0.438499 -0.249584
C26   C     C_3   0.718112 0.083970 0.330959 -0.389820
C27   C     C_3   0.842127 0.649807 0.653710 -0.255690
C28   C     C_3   0.899341 0.779104 0.671757 -0.482897
C29   C     C_R   0.128617 0.913212 0.489345 -0.095617
C30   C     C_R   0.140155 0.021018 0.447309 0.224440
C31   C     C_R   0.241179 0.103084 0.475226 -0.041568
C32   C     C_R   0.365244 0.060744 0.508591 -0.008364
C33   C     C_R   0.363868 0.938661 0.532422 0.012461
C34   C     C_R   0.490435 0.872797 0.528699 -0.013007
Cl1   Cl    Cl    0.309129 0.284322 0.309819 -0.626810
Cl2   Cl    Cl    0.060276 0.039862 0.341370 -0.664728
Cu1   Cu    Cu3+1 0.359340 0.500010 0.500010 0.976737
Cu2   Cu    Cu3+1 0.640660 0.499990 0.499990 0.919682
H1    H     H_    0.763760 0.335029 0.360546 0.187210
H2    H     H_    0.257986 0.598400 0.118744 0.179393
H3    H     H_    0.188629 0.597744 0.001213 0.158931
H4    H     H_    0.110565 0.505915 0.090060 0.138039
H5    H     H_    0.252537 0.374252 0.963020 0.143322
H6    H     H_    0.324646 0.375954 0.077524 0.173749
H7    H     H_    0.683824 0.990939 0.303727 0.175178
H8    H     H_    0.636245 0.151293 0.320870 0.163116
H9    H     H_    0.812109 0.104469 0.285702 0.197805
H10   H     H_    0.791495 0.176316 0.467270 0.186691
H11   H     H_    0.829786 0.020915 0.443997 0.185174
H12   H     H_    0.880942 0.285131 0.202777 0.125019
H13   H     H_    0.004650 0.778825 0.697376 0.134919
H14   H     H_    0.899367 0.825010 0.604888 0.143913
H15   H     H_    0.831355 0.833685 0.729314 0.147092
H16   H     H_    0.734877 0.665264 0.639127 0.215808
H17   H     H_    0.842951 0.605250 0.721636 0.132711
H18   H     H_    0.128927 0.296153 0.182489 0.162854
H19   H     H_    0.117038 0.608784 0.632210 0.113868
H20   H     H_    0.643107 0.542983 0.989468 0.114619
H21   H     H_    0.710425 0.882158 0.511460 0.135744
H22   H     H_    0.218514 0.803273 0.584259 0.134754
H23   H     H_    0.045041 0.851122 0.474104 0.133092
H24   H     H_    0.223135 0.191483 0.456353 0.218377
N1    N     N_R   0.852210 0.498790 0.499090 -0.243651
N2    N     N_R   0.148080 0.498710 0.499060 -0.257743
O1    O     O_R   0.381190 0.680360 0.500010 -0.506494
O2    O     O_R   0.618760 0.680340 0.500000 -0.519782
O3    O     O_R   0.364420 0.499990 0.637850 -0.507918
O4    O     O_R   0.601990 0.499960 0.637840 -0.520827
O5    O     O_R   0.381240 0.319660 0.500000 -0.475787
O6    O     O_R   0.618810 0.319640 0.499990 -0.526029
O7    O     O_R   0.398010 0.500040 0.362160 -0.436388
O8    O     O_R   0.635580 0.500010 0.362150 -0.517357

loop_
_geom_bond_atom_site_label_1
_geom_bond_atom_site_label_2
_ccdc_geom_bond_type
C8    C9    A    
C4    O3    A    
C1    O1    A    
C28   H15   S    
Cu2   O6    S    
C6    C7    A    
C6    H1    S    
Cu1   O5    S    
C2    C3    A    
C4    C12   S    
C18   C21   S    
C24   H4    S    
C9    C10   A    
C27   H17   S    
C10   N2    A    
C22   H5    S    
C16   O8    A    
C30   Cl2   S    
C30   C31   A    
C5    C32   A    
C14   N2    A    
C32   C33   A    
C2    C34   A    
C1    O2    A    
C27   H16   S    
C7    C8    A    
C29   H23   S    
C13   C14   A    
C24   H3    S    
C28   H14   S    
C31   H24   S    
C12   C20   T    
C8    H18   S    
C29   C30   A    
C16   O7    A    
C26   H9    S    
C6    C11   A    
Cu1   O3    S    
C22   C24   S    
C24   H2    S    
Cu1   Cu2   S    
Cu2   O4    S    
C1    C34   S    
C33   C34   A    
C11   N1    A    
Cu1   O7    S    
C23   H22   S    
C15   O5    A    
C28   H13   S    
Cu2   O8    S    
C5    C15   S    
C16   C17   S    
C10   C11   A    
C26   H8    S    
C15   O6    A    
C23   C29   A    
C3    C25   S    
C19   C22   S    
C4    O4    A    
C18   C19   D    
C27   C28   S    
C9    Cl1   S    
C14   H19   S    
Cu2   O2    S    
C2    H21   S    
C13   C27   S    
C22   H6    S    
C26   H7    S    
C23   C33   A    
C25   C26   S    
Cu2   N1    S    
C25   H10   S    
C18   H20   S    
C31   C32   A    
C17   C21   T    
C19   C20   S    
C7    H12   S    
Cu1   O1    S    
Cu1   N2    S    
C3    C5    A    
C25   H11   S    
C13   N1    A    
