data_mof_unit_11816.cif
_audit_creation_date              2012-12-10T17:56:16-0500
_audit_creation_method            fapswitch 2.2
_symmetry_space_group_name_H-M    P1
_symmetry_Int_Tables_number       1
_space_group_crystal_system       triclinic
_cell_length_a                    13.02945
_cell_length_b                    10.777849
_cell_length_c                    9.588275
_cell_angle_alpha                 89.368827
_cell_angle_beta                  97.2704
_cell_angle_gamma                 91.911756
_cell_volume                      1334.8756244

loop_
_atom_site_label
_atom_site_type_symbol
_atom_type_description
_atom_site_fract_x
_atom_site_fract_y
_atom_site_fract_z
_atom_type_partial_charge
Br1   Br    Br    0.790474 0.303932 0.344966 -0.387057
Br2   Br    Br    0.209534 0.696068 0.655038 -0.387069
Br3   Br    Br    0.808682 0.634377 0.814155 -0.520006
Br4   Br    Br    0.191314 0.365633 0.185846 -0.519986
Br5   Br    Br    0.697124 0.159224 0.679509 -0.372117
Br6   Br    Br    0.302877 0.840776 0.320495 -0.372121
C1    C     C_R   0.499143 0.262617 0.500386 0.854767
C2    C     C_R   0.699647 0.500623 0.528194 0.887398
C3    C     C_R   0.813333 0.501670 0.547984 -0.203239
C4    C     C_R   0.186667 0.498336 0.452016 -0.203245
C5    C     C_R   0.020361 0.427780 0.329537 0.162243
C6    C     C_R   0.979637 0.572236 0.670458 0.162234
C7    C     C_R   0.128424 0.436830 0.337431 0.167228
C8    C     C_R   0.871575 0.563181 0.662567 0.167210
C9    C     C_R   0.135673 0.559269 0.550834 0.262324
C10   C     C_R   0.864329 0.440738 0.449165 0.262327
C11   C     C_R   0.029120 0.533941 0.555799 -0.038101
C12   C     C_R   0.500859 0.737383 0.499614 0.854772
C13   C     C_R   0.970881 0.466068 0.444200 -0.038111
C14   C     C_R   0.582391 0.067892 0.576550 0.307415
C15   C     C_R   0.417611 0.932108 0.423452 0.307431
C16   C     C_R   0.583781 0.938905 0.574834 0.055941
C17   C     C_R   0.416218 0.061095 0.425178 0.055932
C18   C     C_R   0.500992 0.871293 0.498687 -0.239163
C19   C     C_R   0.499010 0.128707 0.501314 -0.239156
C20   C     C_R   0.448426 0.409241 0.068297 0.054910
C21   C     C_R   0.551573 0.590759 0.931703 0.054914
C22   C     C_R   0.448006 0.407968 0.920993 0.271422
C23   C     C_R   0.551992 0.592033 0.079007 0.271421
C24   C     C_R   0.300352 0.499379 0.471806 0.887405
Cu1   Cu    Cu3+1 0.500000 0.500020 0.640660 1.015155
Cu2   Cu    Cu3+1 0.500000 0.499980 0.359340 1.015155
H1    H     H_    0.408073 0.335850 0.118831 0.166756
H2    H     H_    0.298423 0.179843 0.422294 0.226294
H3    H     H_    0.347295 0.333954 0.759410 0.266759
H4    H     H_    0.446974 0.240197 0.826829 0.254946
H5    H     H_    0.652691 0.666059 0.240598 0.266760
H6    H     H_    0.553010 0.759807 0.173161 0.254944
H7    H     H_    0.591923 0.664153 0.881168 0.166743
H8    H     H_    0.978347 0.445871 0.119110 0.261328
H9    H     H_    0.980051 0.296684 0.179894 0.290198
H10   H     H_    0.021640 0.554198 0.880894 0.261336
H11   H     H_    0.019942 0.703368 0.820051 0.290189
H12   H     H_    0.646004 0.824345 0.728902 0.257685
H13   H     H_    0.701584 0.820130 0.577795 0.226313
H14   H     H_    0.353964 0.175676 0.271170 0.257693
N1    N     N_R   0.500030 0.500030 0.852080 -0.204721
N2    N     N_R   0.499970 0.499970 0.147920 -0.204725
N3    N     N_3   0.960649 0.387330 0.201028 -0.485399
N4    N     N_3   0.039344 0.612713 0.798953 -0.485390
N5    N     N_3   0.671185 0.878150 0.647950 -0.479533
N6    N     N_3   0.328806 0.121847 0.352111 -0.479559
N7    N     N_3   0.393826 0.305119 0.849221 -0.565212
N8    N     N_3   0.606165 0.694887 0.150778 -0.565206
O1    O     O_R   0.499990 0.319660 0.618740 -0.588710
O2    O     O_R   0.500010 0.680340 0.381260 -0.588716
O3    O     O_R   0.499990 0.319630 0.381170 -0.575203
O4    O     O_R   0.500010 0.680370 0.618830 -0.575205
O5    O     O_R   0.349000 0.499990 0.599490 -0.576597
O6    O     O_R   0.651000 0.500010 0.400510 -0.576596
O7    O     O_R   0.348990 0.499960 0.361920 -0.527702
O8    O     O_R   0.651010 0.500040 0.638080 -0.527700

loop_
_geom_bond_atom_site_label_1
_geom_bond_atom_site_label_2
_ccdc_geom_bond_type
C6    C11   A    
C6    N4    S    
C22   N7    S    
H11   N4    S    
C5    N3    S    
C20   N2    A    
C21   C23   A    
Cu2   N2    S    
C4    C24   S    
C20   H1    S    
H2    N6    S    
Cu1   Cu2   S    
H6    N8    S    
C12   O2    A    
C3    C8    A    
C24   O5    A    
C15   C17   A    
C22   N1    A    
Br1   C10   S    
Cu1   N1    S    
C2    O6    A    
C1    O3    A    
Br2   C9    S    
C5    C7    A    
Cu1   O8    S    
C5    C13   A    
C17   N6    S    
Br3   C8    S    
C21   H7    S    
Cu2   O3    S    
H10   N4    S    
C10   C13   A    
C12   C18   S    
H5    N8    S    
Cu1   O4    S    
H9    N3    S    
C11   C13   A    
C3    C10   A    
C6    C8    A    
Cu2   O7    S    
C4    C9    A    
C17   C19   A    
C1    O1    A    
C16   C18   A    
C15   C18   A    
H3    N7    S    
C23   N8    S    
H13   N5    S    
C23   N2    A    
Cu1   O5    S    
H8    N3    S    
H14   N6    S    
H12   N5    S    
C9    C11   A    
C14   C19   A    
C24   O7    A    
C21   N1    A    
Br4   C7    S    
Br5   C14   S    
Cu2   O6    S    
C2    C3    S    
H4    N7    S    
Cu1   O1    S    
Br6   C15   S    
C20   C22   A    
Cu2   O2    S    
C16   N5    S    
C2    O8    A    
C14   C16   A    
C12   O4    A    
C4    C7    A    
C1    C19   S    
