data_mof_unit_43866.cif
_audit_creation_date              2012-12-10T17:02:32-0500
_audit_creation_method            fapswitch 2.2
_symmetry_space_group_name_H-M    P1
_symmetry_Int_Tables_number       1
_space_group_crystal_system       triclinic
_cell_length_a                    10.845969
_cell_length_b                    10.871324
_cell_length_c                    9.719837
_cell_angle_alpha                 109.347653
_cell_angle_beta                  97.955529
_cell_angle_gamma                 90.922743
_cell_volume                      1068.57943901

loop_
_atom_site_label
_atom_site_type_symbol
_atom_type_description
_atom_site_fract_x
_atom_site_fract_y
_atom_site_fract_z
_atom_type_partial_charge
C1    C     C_R   0.499133 0.254011 0.443588 0.846880
C2    C     C_R   0.515825 0.746284 0.556289 0.850822
C3    C     C_2   0.514140 0.115402 0.420351 -0.421923
C4    C     C_2   0.537155 0.885793 0.580532 -0.423752
C5    C     C_2   0.591997 0.073171 0.514809 0.179396
C6    C     C_2   0.589126 0.931313 0.486161 0.193221
C7    C     C_2   0.511346 0.509060 0.079726 -0.076437
C8    C     C_2   0.493843 0.484457 0.918063 -0.084702
C9    C     C_R   0.261982 0.484570 0.499032 0.815516
C10   C     C_R   0.738158 0.514930 0.500960 0.785871
C11   C     C_R   0.144304 0.511873 0.770237 -0.134317
C12   C     C_R   0.856558 0.487088 0.230316 -0.127141
C13   C     C_R   0.103080 0.575449 0.903927 -0.147630
C14   C     C_R   0.897489 0.423248 0.096533 -0.151521
C15   C     C_R   0.994457 0.641379 0.905465 -0.156513
C16   C     C_R   0.005890 0.356957 0.094972 -0.160464
C17   C     C_R   0.921681 0.633928 0.772758 -0.134244
C18   C     C_R   0.078596 0.364311 0.227687 -0.129783
C19   C     C_R   0.956596 0.559321 0.635641 0.082363
C20   C     C_R   0.043645 0.438940 0.364756 0.080516
C21   C     C_R   0.077330 0.513414 0.634972 0.081102
C22   C     C_R   0.923081 0.485055 0.365429 0.083016
C23   C     C_R   0.874428 0.529962 0.500479 -0.239027
C24   C     C_R   0.125881 0.468722 0.499801 -0.244574
Cu1   Cu    Cu3+1 0.521920 0.521810 0.644910 0.921671
Cu2   Cu    Cu3+1 0.478080 0.478190 0.355090 0.928037
H1    H     H_    0.035734 0.303038 0.991126 0.130436
H2    H     H_    0.964747 0.695460 0.009371 0.134244
H3    H     H_    0.225736 0.457023 0.774077 0.140377
H4    H     H_    0.776151 0.543064 0.227067 0.135771
H5    H     H_    0.156431 0.574883 0.006458 0.149725
H6    H     H_    0.844307 0.424217 0.994069 0.147628
H7    H     H_    0.838906 0.688507 0.778652 0.145680
H8    H     H_    0.161523 0.309971 0.221915 0.142573
H9    H     H_    0.510570 0.954369 0.680160 0.144002
H10   H     H_    0.460298 0.044967 0.322401 0.143967
H11   H     H_    0.428409 0.406015 0.845051 0.146359
H12   H     H_    0.581452 0.582347 0.150892 0.140865
H13   H     H_    0.616379 0.628826 0.934330 0.189273
H14   H     H_    0.378597 0.375833 0.067103 0.184657
N1    N     N_2   0.445130 0.445420 0.137360 -0.285641
N2    N     N_2   0.554870 0.554580 0.862640 -0.288224
O1    O     O_R   0.511700 0.332340 0.577400 -0.589341
O2    O     O_R   0.488300 0.667660 0.422600 -0.576055
O3    O     O_R   0.474680 0.295500 0.332650 -0.568020
O4    O     O_R   0.525320 0.704500 0.667350 -0.566789
O5    O     O_R   0.338170 0.518410 0.622370 -0.572783
O6    O     O_R   0.661830 0.481590 0.377630 -0.580853
O7    O     O_R   0.301150 0.481570 0.377630 -0.569904
O8    O     O_R   0.698850 0.518430 0.622370 -0.580120
C25   C     C_3   0.636069 0.841977 0.349097 -0.367915
C26   C     C_3   0.726954 0.909470 0.285207 -0.868369
H15   H     H_    0.679838 0.981521 0.241275 0.262248
H16   H     H_    0.807740 0.959046 0.370242 0.258722
H17   H     H_    0.762371 0.835113 0.192656 0.225988
H18   H     H_    0.686311 0.762879 0.376657 0.193105
H19   H     H_    0.554290 0.798852 0.262694 0.206241
C27   C     C_3   0.679037 0.165741 0.647516 -0.333939
C28   C     C_3   0.780947 0.099323 0.717214 -0.871247
H20   H     H_    0.739990 0.035068 0.769473 0.255440
H21   H     H_    0.836540 0.041423 0.633518 0.255522
H22   H     H_    0.844748 0.175045 0.804341 0.240791
H23   H     H_    0.727132 0.238580 0.611949 0.215624
H24   H     H_    0.623307 0.218073 0.734256 0.213579

loop_
_geom_bond_atom_site_label_1
_geom_bond_atom_site_label_2
_ccdc_geom_bond_type
Cu1   N2    S    
C1    C3    S    
C19   C23   A    
C9    C24   S    
C25   H19   S    
C10   C23   S    
C11   C13   A    
Cu1   O5    S    
C2    C4    S    
C26   H17   S    
Cu2   O6    S    
Cu1   O1    S    
C16   H1    S    
C7    N1    D    
C12   C14   A    
C4    H9    S    
Cu2   O2    S    
C28   H20   S    
Cu1   Cu2   S    
C2    O4    A    
C27   H24   S    
C18   H8    S    
C1    O3    A    
C15   H2    S    
C17   H7    S    
C5    C27   S    
C3    H10   S    
C16   C18   A    
H14   N1    S    
C19   C21   A    
C7    H12   S    
C26   H16   S    
C9    O5    A    
H13   N2    S    
C18   C20   A    
C13   C15   A    
C10   O6    A    
C5    C6    S    
C6    C25   S    
C14   C16   A    
C28   H21   S    
C8    H11   S    
C20   C22   A    
C11   C21   A    
C25   C26   S    
C10   O8    A    
C12   C22   A    
C7    C8    S    
C9    O7    A    
C26   H15   S    
C11   H3    S    
C4    C6    D    
C25   H18   S    
C21   C24   A    
C14   H6    S    
C27   H23   S    
C15   C17   A    
C13   H5    S    
Cu1   O8    S    
C17   C19   A    
C28   H22   S    
Cu2   O3    S    
C12   H4    S    
C27   C28   S    
C22   C23   A    
Cu1   O4    S    
C1    O1    A    
C2    O2    A    
C20   C24   A    
Cu2   N1    S    
C8    N2    D    
C3    C5    D    
Cu2   O7    S    
