data_mof_unit_50228.cif
_audit_creation_date              2012-12-10T19:09:23-0500
_audit_creation_method            fapswitch 2.2
_symmetry_space_group_name_H-M    P1
_symmetry_Int_Tables_number       1
_space_group_crystal_system       triclinic
_cell_length_a                    15.17398
_cell_length_b                    14.871473
_cell_length_c                    9.766897
_cell_angle_alpha                 89.984319
_cell_angle_beta                  89.984983
_cell_angle_gamma                 90.011802
_cell_volume                      2203.99224268

loop_
_atom_site_label
_atom_site_type_symbol
_atom_type_description
_atom_site_fract_x
_atom_site_fract_y
_atom_site_fract_z
_atom_type_partial_charge
C1    C     C_R   0.121054 0.378835 0.499814 0.827959
C2    C     C_R   0.121520 0.620643 0.499665 0.828372
C3    C     C_R   0.621499 0.879330 0.500321 0.827317
C4    C     C_R   0.621474 0.120685 0.499665 0.828194
C5    C     C_3   0.907710 0.496799 0.080338 -0.267597
C6    C     C_3   0.907908 0.506630 0.919760 -0.267899
C7    C     C_3   0.407827 0.994841 0.080288 -0.267819
C8    C     C_3   0.407819 0.005065 0.919765 -0.268233
C9    C     C_R   0.879516 0.378149 0.499711 0.830188
C10   C     C_R   0.879516 0.621846 0.500308 0.830185
C11   C     C_R   0.379562 0.878109 0.499711 0.829827
C12   C     C_R   0.379012 0.121307 0.499796 0.830314
C13   C     C_3   0.842468 0.227182 0.583167 -0.414292
C14   C     C_3   0.792431 0.278749 0.349476 -0.397035
C15   C     C_3   0.842548 0.772824 0.416889 -0.414426
C16   C     C_3   0.792384 0.721224 0.650566 -0.397125
C17   C     C_3   0.342320 0.727365 0.583908 -0.414592
C18   C     C_3   0.292928 0.778263 0.349543 -0.397093
C19   C     C_3   0.285830 0.214332 0.349660 -0.412804
C20   C     C_3   0.344810 0.275021 0.572884 -0.401322
C21   C     C_3   0.270074 0.655110 0.583469 -0.400300
C22   C     C_3   0.221117 0.707114 0.349422 -0.404435
C23   C     C_3   0.212710 0.283808 0.349916 -0.390190
C24   C     C_3   0.273065 0.347858 0.570435 -0.409585
C25   C     C_3   0.770269 0.154875 0.582567 -0.401029
C26   C     C_3   0.720536 0.207700 0.349337 -0.404481
C27   C     C_3   0.770297 0.845063 0.417244 -0.401035
C28   C     C_3   0.720628 0.792413 0.650647 -0.403881
C29   C     C_3   0.726256 0.348627 0.561840 -0.411415
C30   C     C_3   0.726277 0.651377 0.438185 -0.411307
C31   C     C_3   0.226167 0.848747 0.561023 -0.410970
C32   C     C_3   0.228042 0.153211 0.573886 -0.403106
C33   C     C_3   0.811640 0.309584 0.498613 0.202668
C34   C     C_3   0.811655 0.690415 0.501429 0.203108
C35   C     C_3   0.311717 0.809523 0.498609 0.202885
C36   C     C_3   0.310855 0.189513 0.499133 0.199855
C37   C     C_3   0.190213 0.688402 0.498481 0.199014
C38   C     C_3   0.189401 0.310657 0.499267 0.199673
C39   C     C_3   0.690137 0.188463 0.498485 0.199173
C40   C     C_3   0.690173 0.811547 0.501505 0.199560
C41   C     C_3   0.153855 0.776618 0.560982 -0.405179
C42   C     C_3   0.156445 0.226108 0.576694 -0.413951
C43   C     C_3   0.653986 0.276454 0.562007 -0.404429
C44   C     C_3   0.653988 0.723506 0.438190 -0.405019
C45   C     C_3   0.047904 0.421050 0.082113 0.066402
C46   C     C_3   0.040817 0.416318 0.919526 -0.014772
C47   C     C_3   0.050845 0.577013 0.917895 0.067123
C48   C     C_3   0.043470 0.582272 0.080427 -0.015523
C49   C     C_3   0.549563 0.922132 0.082121 0.067308
C50   C     C_3   0.542121 0.916989 0.919579 -0.015507
C51   C     C_3   0.549520 0.077921 0.917820 0.066924
C52   C     C_3   0.542067 0.083060 0.080366 -0.015408
H1    H     H_    0.856462 0.247123 0.690791 0.167657
H2    H     H_    0.770670 0.336747 0.285644 0.165706
H3    H     H_    0.856762 0.752860 0.309311 0.167022
H4    H     H_    0.770414 0.663219 0.714247 0.165779
H5    H     H_    0.356127 0.747623 0.691465 0.167471
H6    H     H_    0.271222 0.836064 0.285255 0.165722
H7    H     H_    0.263191 0.153655 0.292720 0.164753
H8    H     H_    0.362220 0.259364 0.681006 0.169412
H9    H     H_    0.904379 0.199158 0.539296 0.146229
H10   H     H_    0.853096 0.250326 0.302099 0.164815
H11   H     H_    0.904364 0.800926 0.460958 0.146244
H12   H     H_    0.853072 0.749456 0.698165 0.164254
H13   H     H_    0.404296 0.699168 0.540512 0.146335
H14   H     H_    0.353758 0.749848 0.302639 0.164548
H15   H     H_    0.344090 0.242249 0.294808 0.164767
H16   H     H_    0.405398 0.300639 0.521675 0.144406
H17   H     H_    0.296532 0.591636 0.539176 0.143942
H18   H     H_    0.246954 0.644407 0.301658 0.162323
H19   H     H_    0.234258 0.343604 0.289844 0.165386
H20   H     H_    0.297742 0.408111 0.514630 0.145296
H21   H     H_    0.796625 0.091594 0.537474 0.143608
H22   H     H_    0.746149 0.145149 0.300803 0.162786
H23   H     H_    0.796615 0.908451 0.462059 0.143482
H24   H     H_    0.746390 0.854980 0.698951 0.162771
H25   H     H_    0.249878 0.640636 0.690856 0.170445
H26   H     H_    0.165017 0.731285 0.285752 0.174758
H27   H     H_    0.153868 0.254518 0.299013 0.175066
H28   H     H_    0.257871 0.368929 0.677251 0.166377
H29   H     H_    0.750404 0.139950 0.689960 0.169736
H30   H     H_    0.664224 0.232156 0.286367 0.173673
H31   H     H_    0.750421 0.859778 0.309809 0.169651
H32   H     H_    0.664312 0.768118 0.713814 0.173760
H33   H     H_    0.738431 0.371536 0.668721 0.164777
H34   H     H_    0.703752 0.408018 0.501851 0.146972
H35   H     H_    0.738471 0.628562 0.331256 0.164726
H36   H     H_    0.703773 0.591922 0.498069 0.146926
H37   H     H_    0.238038 0.871868 0.667882 0.165015
H38   H     H_    0.203876 0.908036 0.500609 0.146320
H39   H     H_    0.202598 0.092372 0.520498 0.146445
H40   H     H_    0.244503 0.133309 0.680778 0.166362
H41   H     H_    0.131222 0.765141 0.667754 0.176603
H42   H     H_    0.096158 0.800742 0.500872 0.144654
H43   H     H_    0.095076 0.199937 0.528542 0.145097
H44   H     H_    0.140769 0.243080 0.684984 0.173915
H45   H     H_    0.631830 0.264601 0.668934 0.176798
H46   H     H_    0.596015 0.300736 0.502691 0.144577
H47   H     H_    0.631714 0.735296 0.331326 0.176274
H48   H     H_    0.596086 0.699215 0.497737 0.144803
H49   H     H_    0.119082 0.430248 0.107050 0.080593
H50   H     H_    0.109569 0.412088 0.879986 0.114191
H51   H     H_    0.121707 0.564928 0.893522 0.079724
H52   H     H_    0.112144 0.584463 0.120508 0.114825
H53   H     H_    0.620603 0.933075 0.106483 0.079686
H54   H     H_    0.610800 0.913692 0.879613 0.114387
H55   H     H_    0.620569 0.067042 0.893432 0.079851
H56   H     H_    0.610734 0.086455 0.120310 0.114483
H57   H     H_    0.873770 0.433631 0.108927 0.140054
H58   H     H_    0.863551 0.456229 0.872521 0.147833
H59   H     H_    0.876535 0.571207 0.891373 0.140463
H60   H     H_    0.865317 0.548965 0.127483 0.148596
H61   H     H_    0.375484 0.930687 0.108394 0.140533
H62   H     H_    0.364279 0.954007 0.872308 0.148319
H63   H     H_    0.375413 0.069175 0.891647 0.141150
H64   H     H_    0.364275 0.045864 0.127754 0.147635
N1    N     N_3   0.998760 0.500000 0.138610 -0.057345
N2    N     N_3   0.998760 0.500000 0.861390 -0.057150
N3    N     N_3   0.498760 0.000000 0.138610 -0.056895
N4    N     N_3   0.498760 0.000000 0.861390 -0.057227
O1    O     O_R   0.092530 0.407440 0.616040 -0.649761
O2    O     O_R   0.092530 0.407440 0.383960 -0.605726
O3    O     O_R   0.092530 0.592560 0.383960 -0.652219
O4    O     O_R   0.092530 0.592560 0.616040 -0.601725
O5    O     O_R   0.592530 0.907440 0.616040 -0.651965
O6    O     O_R   0.592530 0.907440 0.383960 -0.602652
O7    O     O_R   0.592530 0.092560 0.383960 -0.651801
O8    O     O_R   0.592530 0.092560 0.616040 -0.602464
O9    O     O_R   0.907330 0.407420 0.616040 -0.643575
O10   O     O_R   0.907330 0.407420 0.383960 -0.614875
O11   O     O_R   0.907330 0.592580 0.383960 -0.644022
O12   O     O_R   0.907330 0.592580 0.616040 -0.616131
O13   O     O_R   0.407330 0.907420 0.616040 -0.643657
O14   O     O_R   0.407330 0.907420 0.383960 -0.615701
O15   O     O_R   0.407330 0.092580 0.383960 -0.644916
O16   O     O_R   0.407330 0.092580 0.616040 -0.614148
Zn1   Zn    Zn3+2 0.999890 0.500000 0.654960 0.903934
Zn2   Zn    Zn3+2 0.999890 0.500000 0.345040 0.902895
Zn3   Zn    Zn3+2 0.499890 0.000000 0.654960 0.903717
Zn4   Zn    Zn3+2 0.499890 0.000000 0.345040 0.903141
N5    N     N_3   0.022063 0.337027 0.150634 -0.398882
H65   H     H_    0.062109 0.285190 0.113778 0.154650
H66   H     H_    0.957282 0.318904 0.128787 0.175553
N6    N     N_3   0.997074 0.332962 0.874573 -0.491553
H67   H     H_    0.002990 0.324285 0.769443 0.236589
H68   H     H_    0.930479 0.331131 0.900384 0.169982
N7    N     N_3   0.028742 0.661901 0.848755 -0.397890
H69   H     H_    0.071400 0.711982 0.884261 0.155538
H70   H     H_    0.964702 0.683033 0.869616 0.174757
N8    N     N_3   0.001860 0.667004 0.124558 -0.492135
H71   H     H_    0.004835 0.674464 0.230149 0.238160
H72   H     H_    0.936087 0.671632 0.094782 0.167424
N9    N     N_3   0.525997 0.837667 0.151322 -0.397346
H73   H     H_    0.568261 0.787028 0.116549 0.154927
H74   H     H_    0.461894 0.817276 0.129193 0.175088
N10   N     N_3   0.499324 0.832944 0.875294 -0.491993
H75   H     H_    0.504068 0.824636 0.769952 0.236806
H76   H     H_    0.433031 0.829974 0.902721 0.168971
N11   N     N_3   0.525943 0.162365 0.848582 -0.396974
H77   H     H_    0.567997 0.213116 0.883610 0.155187
H78   H     H_    0.461706 0.182583 0.870194 0.175171
N12   N     N_3   0.499189 0.167048 0.124613 -0.492676
H79   H     H_    0.503628 0.175245 0.230010 0.236707
H80   H     H_    0.432991 0.170001 0.096706 0.169149

loop_
_geom_bond_atom_site_label_1
_geom_bond_atom_site_label_2
_ccdc_geom_bond_type
C16   C28   S    
C9    C33   S    
N9    H74   S    
C48   N8    S    
C28   H32   S    
C6    H59   S    
N1    Zn2   S    
C43   H46   S    
N7    H69   S    
C13   C25   S    
C14   C33   S    
C3    O6    A    
C7    C8    S    
C32   H40   S    
C45   C46   S    
O5    Zn3   S    
C46   H50   S    
O3    Zn2   S    
O6    Zn4   S    
C42   H44   S    
N3    Zn4   S    
C32   C36   S    
C49   N9    S    
N10   H75   S    
N7    H70   S    
O8    Zn3   S    
C38   C42   S    
C19   C36   S    
C11   O13   A    
N11   H77   S    
O14   Zn4   S    
C5    C6    S    
C44   H47   S    
C26   C39   S    
C32   H39   S    
C52   N12   S    
C28   C40   S    
C48   H52   S    
C29   C33   S    
C46   N2    S    
O1    Zn1   S    
C1    O2    A    
C8    H63   S    
C16   C34   S    
C10   O11   A    
N10   H76   S    
C18   H6    S    
C47   N2    S    
C41   H41   S    
C20   C24   S    
C50   N10   S    
C31   H37   S    
C12   O15   A    
C24   C38   S    
N11   H78   S    
C19   H15   S    
C20   H8    S    
N2    Zn1   S    
C18   C35   S    
C15   C34   S    
C29   H33   S    
C8    H62   S    
C14   H10   S    
C26   H30   S    
C46   N6    S    
C29   C43   S    
C25   H29   S    
C6    H58   S    
C13   H9    S    
C30   C44   S    
O16   Zn3   S    
C27   H23   S    
C24   H28   S    
N12   H80   S    
O15   Zn4   S    
C47   N7    S    
C47   H51   S    
C30   C34   S    
C42   H43   S    
C47   C48   S    
C23   H19   S    
O4    Zn1   S    
O2    Zn2   S    
N6    H68   S    
C11   O14   A    
C4    O8    A    
C39   C43   S    
C19   H7    S    
O12   Zn1   S    
C9    O10   A    
C22   C37   S    
C17   C21   S    
C51   C52   S    
C21   H17   S    
N5    H66   S    
C15   H3    S    
C7    H64   S    
C19   C23   S    
C16   H4    S    
C13   H1    S    
C13   C33   S    
N8    H72   S    
C7    N3    S    
C15   C27   S    
C41   H42   S    
C4    C39   S    
C27   C40   S    
C31   H38   S    
C51   N4    S    
C21   C37   S    
C10   C34   S    
N4    Zn3   S    
C14   C26   S    
C22   H26   S    
C29   H34   S    
C45   H49   S    
C1    C38   S    
C45   N5    S    
C14   H2    S    
C3    C40   S    
O13   Zn3   S    
C2    O4    A    
C50   N4    S    
C12   C36   S    
O7    Zn4   S    
C30   H36   S    
O10   Zn2   S    
C24   H20   S    
N12   H79   S    
C45   N1    S    
C8    N4    S    
C32   C42   S    
C31   C41   S    
C4    O7    A    
C18   C22   S    
C20   H16   S    
C43   H45   S    
N6    H67   S    
C5    N1    S    
C49   H53   S    
C3    O5    A    
C48   N1    S    
C5    H60   S    
C9    O9    A    
C18   H14   S    
C23   C38   S    
C17   C35   S    
C17   H13   S    
C7    H61   S    
C11   C35   S    
C30   H35   S    
O11   Zn2   S    
N5    H65   S    
C25   C39   S    
C44   H48   S    
C2    C37   S    
C49   N3    S    
C5    H57   S    
C31   C35   S    
C51   N11   S    
C26   H22   S    
C22   H18   S    
C25   H21   S    
C37   C41   S    
C10   O12   A    
C1    O1    A    
C27   H31   S    
C20   C36   S    
C52   N3    S    
C40   C44   S    
O9    Zn1   S    
C52   H56   S    
C51   H55   S    
C49   C50   S    
C12   O16   A    
C21   H25   S    
C50   H54   S    
C15   H11   S    
N8    H71   S    
C16   H12   S    
C23   H27   S    
N9    H73   S    
C6    N2    S    
C2    O3    A    
C17   H5    S    
C28   H24   S    
