data_mof_unit_42381.cif
_audit_creation_date              2012-12-10T17:35:51-0500
_audit_creation_method            fapswitch 2.2
_symmetry_space_group_name_H-M    P1
_symmetry_Int_Tables_number       1
_space_group_crystal_system       triclinic
_cell_length_a                    10.556235
_cell_length_b                    12.118632
_cell_length_c                    12.724182
_cell_angle_alpha                 93.414825
_cell_angle_beta                  90.652002
_cell_angle_gamma                 86.315002
_cell_volume                      1621.47181335

loop_
_atom_site_label
_atom_site_type_symbol
_atom_type_description
_atom_site_fract_x
_atom_site_fract_y
_atom_site_fract_z
_atom_type_partial_charge
C1    C     C_R   0.497157 0.522231 0.699956 0.919242
C2    C     C_R   0.616267 0.160244 0.581142 0.359588
C3    C     C_R   0.556597 0.857162 0.539013 0.278750
C4    C     C_R   0.442157 0.142053 0.463240 0.265864
C5    C     C_R   0.550392 0.974598 0.529791 -0.017542
C6    C     C_R   0.456654 0.023891 0.465203 -0.022224
C7    C     C_R   0.741789 0.499909 0.498856 0.949121
C8    C     C_R   0.257892 0.500522 0.501673 0.955380
C9    C     C_3   0.953113 0.555579 0.587257 0.064358
C10   C     C_3   0.045253 0.447248 0.413427 0.016724
C11   C     C_3   0.031143 0.607688 0.504251 0.657741
C12   C     C_R   0.503090 0.477754 0.300030 0.909604
C13   C     C_3   0.967410 0.394987 0.496681 0.600255
C14   C     C_3   0.123096 0.502585 0.502398 -0.354219
C15   C     C_3   0.875847 0.499758 0.498693 -0.328583
C16   C     C_3   0.044070 0.451701 0.585579 0.039506
C17   C     C_3   0.954270 0.551031 0.415550 0.057160
C18   C     C_R   0.514977 0.463025 0.189015 -0.147144
C19   C     C_R   0.485493 0.536924 0.810940 -0.159920
C20   C     C_R   0.352188 0.580087 0.961390 -0.278160
C21   C     C_R   0.648336 0.419825 0.038563 -0.279703
C22   C     C_R   0.373693 0.586961 0.854877 0.599526
C23   C     C_R   0.579234 0.486350 0.871945 -0.358958
C24   C     C_R   0.626756 0.412906 0.145078 0.584514
C25   C     C_3   0.980435 0.662111 0.754592 -0.606647
C26   C     C_3   0.019558 0.338074 0.246804 -0.640027
C27   C     C_3   0.012105 0.345847 0.739952 -0.751104
C28   C     C_3   0.979815 0.658070 0.260734 -0.738261
C29   C     C_3   0.214316 0.177844 0.446755 -0.659105
C30   C     C_3   0.607927 0.817904 0.719480 -0.721913
C31   C     C_3   0.681310 0.223315 0.754922 -0.812318
C32   C     C_3   0.318422 0.776013 0.239483 -0.809032
C33   C     C_R   0.421243 0.513445 0.127939 -0.351698
C34   C     C_R   0.557852 0.476780 0.977540 0.109930
C35   C     C_R   0.442728 0.523189 0.022395 0.105418
C36   C     C_R   0.378516 0.954227 0.405432 -0.352310
C37   C     C_R   0.632701 0.044207 0.584823 -0.345614
C38   C     C_R   0.390901 0.838746 0.412372 0.355439
F1    F     F_    0.065490 0.716028 0.509986 -0.673715
F2    F     F_    0.931365 0.287172 0.491186 -0.683857
F3    F     F_    0.716765 0.362772 0.206175 -0.696877
F4    F     F_    0.283380 0.636591 0.793701 -0.688810
H1    H     H_    0.333577 0.547355 0.163730 0.157974
H2    H     H_    0.035617 0.595744 0.794959 0.268096
H3    H     H_    0.171398 0.434048 0.287345 0.213545
H4    H     H_    0.076033 0.282913 0.189647 0.209119
H5    H     H_    0.964848 0.401811 0.202832 0.249442
H6    H     H_    0.953569 0.287056 0.287122 0.310053
H7    H     H_    0.182417 0.354301 0.662477 0.247077
H8    H     H_    0.058394 0.326097 0.815910 0.232079
H9    H     H_    0.986729 0.267335 0.698012 0.261008
H10   H     H_    0.924907 0.399594 0.757132 0.233825
H11   H     H_    0.835357 0.552889 0.283750 0.253544
H12   H     H_    0.666696 0.451976 0.836065 0.157998
H13   H     H_    0.925052 0.693993 0.194573 0.229937
H14   H     H_    0.055740 0.598843 0.227771 0.217146
H15   H     H_    0.022407 0.726711 0.307175 0.277549
H16   H     H_    0.347483 0.179611 0.326371 0.213443
H17   H     H_    0.149193 0.154832 0.380957 0.242743
H18   H     H_    0.215010 0.112994 0.505074 0.224320
H19   H     H_    0.176060 0.255229 0.487205 0.284007
H20   H     H_    0.737209 0.820361 0.597324 0.241291
H21   H     H_    0.625822 0.901996 0.753314 0.210435
H22   H     H_    0.665015 0.756343 0.764436 0.235588
H23   H     H_    0.264520 0.616747 0.995481 0.158497
H24   H     H_    0.505774 0.804068 0.729093 0.272751
H25   H     H_    0.790913 0.211336 0.621732 0.270068
H26   H     H_    0.748748 0.277077 0.796981 0.228369
H27   H     H_    0.702222 0.137857 0.780270 0.226512
H28   H     H_    0.582816 0.251945 0.777672 0.272806
H29   H     H_    0.216217 0.784391 0.377234 0.265733
H30   H     H_    0.250376 0.720887 0.200044 0.226752
H31   H     H_    0.416245 0.749292 0.213263 0.272435
H32   H     H_    0.293297 0.860959 0.214588 0.226972
H33   H     H_    0.735941 0.383040 0.004460 0.159482
H34   H     H_    0.307140 0.988439 0.352992 0.173216
H35   H     H_    0.709972 0.010009 0.631689 0.165857
H36   H     H_    0.824590 0.572188 0.711608 0.203475
H37   H     H_    0.925279 0.714881 0.814456 0.198886
H38   H     H_    0.046170 0.714740 0.715930 0.305937
N1    N     N_R   0.523490 0.207800 0.519350 -0.124937
N2    N     N_2   0.308725 0.770898 0.352523 -0.250173
N3    N     N_R   0.476510 0.792200 0.480650 -0.125953
N4    N     N_2   0.894251 0.614362 0.678339 -0.299143
N5    N     N_2   0.104325 0.389889 0.321697 -0.296724
N6    N     N_2   0.099022 0.401213 0.677407 -0.271001
N7    N     N_2   0.895676 0.602798 0.325887 -0.265805
N8    N     N_2   0.340009 0.193575 0.406874 -0.275781
N9    N     N_2   0.643667 0.805268 0.609591 -0.261213
N10   N     N_2   0.697323 0.227784 0.642399 -0.246060
O1    O     O_R   0.506270 0.421700 0.658830 -0.618298
O2    O     O_R   0.493730 0.578300 0.341170 -0.614317
O3    O     O_R   0.491200 0.609310 0.646410 -0.581803
O4    O     O_R   0.508800 0.390690 0.353590 -0.582706
O5    O     O_R   0.693580 0.406210 0.506230 -0.560482
O6    O     O_R   0.306420 0.593790 0.493770 -0.563839
O7    O     O_R   0.678510 0.593830 0.493810 -0.606974
O8    O     O_R   0.321490 0.406170 0.506190 -0.628927
Zn1   Zn    Zn3+2 0.510060 0.374730 0.508290 1.009097
Zn2   Zn    Zn3+2 0.489940 0.625270 0.491710 1.016691

loop_
_geom_bond_atom_site_label_1
_geom_bond_atom_site_label_2
_ccdc_geom_bond_type
C10   N5    S    
C30   H22   S    
C38   N3    A    
C25   H38   S    
C19   C23   A    
C8    O6    A    
C28   H14   S    
C32   H30   S    
C28   H15   S    
C18   C24   A    
C9    C16   S    
C5    C37   A    
C32   H32   S    
C5    C6    A    
C11   C14   S    
O5    Zn1   S    
C10   C17   S    
H20   N9    S    
C34   C35   A    
C2    N10   S    
C8    O8    A    
C29   N8    S    
C36   H34   S    
C20   C35   A    
C31   H28   S    
C4    N1    A    
C29   H17   S    
C13   F2    S    
C25   N4    S    
C27   H8    S    
C26   H6    S    
H29   N2    S    
C31   N10   S    
C7    C15   S    
C1    O1    A    
C25   H37   S    
C30   H21   S    
C38   N2    S    
C16   N6    S    
C24   F3    S    
C12   O4    A    
C30   N9    S    
C25   H2    S    
C28   H13   S    
C27   H9    S    
C31   H26   S    
C29   H19   S    
C1    C19   S    
C33   H1    S    
C20   H23   S    
C19   C22   A    
C4    C6    A    
C10   C14   S    
C32   H31   S    
C21   C34   A    
N1    Zn1   S    
C37   H35   S    
H25   N10   S    
C27   N6    S    
H3    N5    S    
C29   H18   S    
C23   C34   A    
C28   N7    S    
H11   N7    S    
C11   F1    S    
C9    C11   S    
O3    Zn2   S    
C30   H24   S    
C26   H5    S    
C20   C22   A    
N3    Zn2   S    
C13   C15   S    
C3    N3    A    
C14   C16   S    
C21   C24   A    
O7    Zn2   S    
C32   N2    S    
C27   H10   S    
O2    Zn2   S    
C23   H12   S    
C15   C17   S    
C11   C17   S    
C8    C14   S    
C7    O7    A    
C17   N7    S    
H7    N6    S    
C12   O2    A    
C3    C5    A    
C10   C13   S    
H16   N8    S    
C4    N8    S    
C7    O5    A    
C21   H33   S    
C3    N9    S    
C36   C38   A    
C9    C15   S    
C2    C37   A    
C22   F4    S    
O4    Zn1   S    
C26   N5    S    
O6    Zn2   S    
C33   C35   A    
C6    C36   A    
C18   C33   A    
C26   H4    S    
C9    N4    S    
H36   N4    S    
C31   H27   S    
C1    O3    A    
O8    Zn1   S    
C13   C16   S    
C12   C18   S    
C2    N1    A    
O1    Zn1   S    
