data_mof_unit_42512.cif
_audit_creation_date              2012-12-10T20:30:59-0500
_audit_creation_method            fapswitch 2.2
_symmetry_space_group_name_H-M    P1
_symmetry_Int_Tables_number       1
_space_group_crystal_system       triclinic
_cell_length_a                    14.855178
_cell_length_b                    10.64993
_cell_length_c                    9.916134
_cell_angle_alpha                 89.16258
_cell_angle_beta                  90.12563
_cell_angle_gamma                 90.308442
_cell_volume                      1568.60410764

loop_
_atom_site_label
_atom_site_type_symbol
_atom_type_description
_atom_site_fract_x
_atom_site_fract_y
_atom_site_fract_z
_atom_type_partial_charge
C1    C     C_R   0.500409 0.260621 0.500618 0.931205
C2    C     C_R   0.906316 0.612956 0.460092 0.011833
C3    C     C_R   0.952381 0.281968 0.569083 -0.336576
C4    C     C_R   0.046469 0.280949 0.570814 0.496265
C5    C     C_R   0.093400 0.390838 0.532231 0.035781
C6    C     C_R   0.047030 0.502588 0.495595 -0.015536
C7    C     C_R   0.094585 0.614296 0.459883 -0.012930
C8    C     C_R   0.047502 0.724966 0.422527 -0.170596
C9    C     C_R   0.952876 0.722904 0.420883 0.389714
C10   C     C_R   0.186580 0.391824 0.531990 -0.117527
C11   C     C_R   0.232204 0.501683 0.499766 -0.053916
C12   C     C_R   0.327324 0.500597 0.499941 0.909853
C13   C     C_R   0.188231 0.612235 0.466146 -0.159493
C14   C     C_R   0.563317 0.063089 0.578568 0.090069
C15   C     C_R   0.502781 0.128997 0.498123 -0.124460
C16   C     C_R   0.453384 0.068023 0.398188 -0.303510
C17   C     C_R   0.455930 0.938198 0.390761 0.447072
C18   C     C_R   0.502929 0.871916 0.492651 -0.201007
C19   C     C_R   0.561829 0.935056 0.577781 0.054726
C20   C     C_3   0.578436 0.924428 0.726099 -0.448036
C21   C     C_3   0.581496 0.067138 0.726531 -0.455463
C22   C     C_R   0.420814 0.501398 0.071368 0.133839
C23   C     C_R   0.499252 0.739661 0.498641 0.922901
C24   C     C_R   0.578045 0.510381 0.071689 -0.121925
C25   C     C_R   0.578022 0.510702 0.928264 -0.131369
C26   C     C_R   0.420776 0.499560 0.929511 0.131781
C27   C     C_3   0.341966 0.408716 0.926130 -0.239527
C28   C     C_3   0.344524 0.409338 0.082327 -0.378052
C29   C     C_R   0.672748 0.500113 0.500143 0.860026
C30   C     C_R   0.812774 0.610690 0.462513 -0.235911
C31   C     C_R   0.767961 0.501123 0.500353 -0.055721
C32   C     C_R   0.813219 0.392245 0.536666 -0.220624
C33   C     C_R   0.906322 0.391758 0.534520 0.090690
C34   C     C_R   0.953404 0.502584 0.496653 0.001423
H1    H     H_    0.774023 0.693465 0.435748 0.169975
H2    H     H_    0.520030 0.884327 0.782145 0.211730
H3    H     H_    0.644468 0.880601 0.749706 0.200214
H4    H     H_    0.525983 0.110145 0.783780 0.234847
H5    H     H_    0.649547 0.105593 0.748852 0.193151
H6    H     H_    0.641401 0.516858 0.124972 0.152405
H7    H     H_    0.641323 0.517561 0.875094 0.154465
H8    H     H_    0.775692 0.308244 0.565243 0.129039
H9    H     H_    0.367390 0.321152 0.132723 0.205293
H10   H     H_    0.915055 0.197000 0.593455 0.162239
H11   H     H_    0.224391 0.307948 0.557416 0.209788
H12   H     H_    0.228419 0.695360 0.445927 0.189435
H13   H     H_    0.410033 0.120454 0.329829 0.187126
N1    N     N_R   0.499390 0.499140 0.142800 -0.107177
N2    N     N_R   0.499390 0.499180 0.857150 -0.114704
O1    O     O_R   0.500010 0.316790 0.614690 -0.589349
O2    O     O_R   0.500000 0.316760 0.385350 -0.633487
O3    O     O_R   0.367850 0.499990 0.614680 -0.583208
O4    O     O_R   0.367840 0.499950 0.385340 -0.612917
O5    O     O_R   0.500000 0.683240 0.614650 -0.620144
O6    O     O_R   0.499990 0.683210 0.385310 -0.594444
O7    O     O_R   0.632160 0.500050 0.614660 -0.633516
O8    O     O_R   0.632150 0.500010 0.385320 -0.633096
Zn1   Zn    Zn3+2 0.500010 0.500020 0.653130 0.981547
Zn2   Zn    Zn3+2 0.499990 0.499980 0.346870 0.969184
O9    O     O_3   0.402492 0.876828 0.297598 -0.577975
C35   C     C_3   0.439250 0.896184 0.167337 0.077563
H14   H     H_    0.504087 0.845001 0.158390 0.145062
H15   H     H_    0.450997 0.997415 0.143316 0.159699
C36   C     C_3   0.374078 0.846266 0.062456 -0.675719
H16   H     H_    0.309055 0.896882 0.067992 0.267756
H17   H     H_    0.402736 0.859619 0.959967 0.174695
H18   H     H_    0.362214 0.744908 0.080573 0.293710
C37   C     C_2   0.257006 0.466006 0.865570 0.969842
O10   O     O_2   0.256714 0.574564 0.823307 -0.607568
O11   O     O_R   0.177760 0.394668 0.863322 -0.813824
H19   H     H_    0.124976 0.443101 0.824323 0.331286
C38   C     C_2   0.362254 0.280991 0.867519 0.939643
O12   O     O_2   0.347709 0.262080 0.748218 -0.634579
O13   O     O_R   0.391732 0.182028 0.950416 -0.848449
H20   H     H_    0.393193 0.098999 0.901891 0.327145
C39   C     C_2   0.260990 0.459910 0.148689 0.999755
O14   O     O_2   0.210418 0.387232 0.208177 -0.613592
O15   O     O_R   0.239455 0.587234 0.137774 -0.781382
H21   H     H_    0.178948 0.606818 0.179173 0.364315
O16   O     O_3   0.093997 0.171791 0.600014 -0.568358
C40   C     C_3   0.069027 0.121377 0.727300 0.127062
H22   H     H_    0.006308 0.064758 0.717927 0.151282
H23   H     H_    0.059074 0.195947 0.803639 0.152258
C41   C     C_3   0.143325 0.034997 0.778336 -0.701718
H24   H     H_    0.207035 0.088808 0.789750 0.273377
H25   H     H_    0.124294 0.993828 0.877865 0.200795
H26   H     H_    0.154042 0.957742 0.706125 0.266203
C42   C     C_2   0.094857 0.843386 0.383366 0.923080
O17   O     O_2   0.072311 0.942582 0.433427 -0.542408
O18   O     O_R   0.162590 0.842369 0.285696 -0.807991
H27   H     H_    0.189071 0.928888 0.267468 0.365474
O19   O     O_3   0.905614 0.830606 0.386607 -0.588750
C43   C     C_3   0.890436 0.832364 0.245904 0.100981
H28   H     H_    0.853564 0.746544 0.213292 0.126415
H29   H     H_    0.955188 0.839627 0.189893 0.153098
C44   C     C_3   0.833494 0.946044 0.208863 -0.798668
H30   H     H_    0.868953 0.033571 0.238379 0.274408
H31   H     H_    0.821265 0.948878 0.098339 0.198308
H32   H     H_    0.767723 0.940407 0.261790 0.244372

loop_
_geom_bond_atom_site_label_1
_geom_bond_atom_site_label_2
_ccdc_geom_bond_type
C22   N1    A    
C43   H28   S    
O6    Zn2   S    
C19   C20   S    
C41   H26   S    
C40   H22   S    
O4    Zn2   S    
C7    C8    A    
C26   C27   S    
C30   H1    S    
N1    Zn2   S    
C5    C6    A    
C14   C21   S    
C39   O15   S    
C4    O16   S    
C30   C31   A    
O8    Zn2   S    
C16   C17   A    
C3    C33   A    
C15   C16   A    
C44   H32   S    
C16   H13   S    
C18   C19   A    
C35   H15   S    
C27   C37   S    
C40   H23   S    
C37   O10   D    
C41   H24   S    
C21   H4    S    
C8    C9    A    
C44   H31   S    
O11   H19   S    
C1    C15   S    
C1    O1    A    
C12   O4    A    
C2    C34   A    
C43   H29   S    
C22   C28   S    
C9    O19   S    
C12   O3    A    
C33   C34   A    
C3    H10   S    
O13   H20   S    
C29   O8    A    
C18   C23   S    
C24   N1    A    
C36   H18   S    
C39   O14   D    
C38   O13   S    
C26   N2    A    
C25   H7    S    
O15   H21   S    
O16   C40   S    
N2    Zn1   S    
C6    C34   A    
O9    C35   S    
C8    C42   S    
C36   H17   S    
C35   C36   S    
C31   C32   A    
C21   H5    S    
C7    C13   A    
C44   H30   S    
C20   C21   S    
C10   H11   S    
C17   C18   A    
O1    Zn1   S    
C24   C25   A    
C1    O2    A    
O3    Zn1   S    
C42   O18   S    
C43   C44   S    
O2    Zn2   S    
C3    C4    A    
C28   C39   S    
C40   C41   S    
C23   O5    A    
O5    Zn1   S    
C14   C19   A    
C41   H25   S    
C38   O12   D    
C11   C12   S    
C23   O6    A    
C6    C7    A    
C29   O7    A    
C28   H9    S    
C2    C30   A    
C32   C33   A    
C5    C10   A    
C29   C31   S    
C36   H16   S    
C20   H3    S    
C11   C13   A    
O18   H27   S    
C13   H12   S    
O19   C43   S    
C24   H6    S    
O7    Zn1   S    
C35   H14   S    
C25   N2    A    
C10   C11   A    
C17   O9    S    
C20   H2    S    
C4    C5    A    
C42   O17   D    
C37   O11   S    
C22   C26   A    
C27   C28   S    
C32   H8    S    
C14   C15   A    
C2    C9    A    
C27   C38   S    
