data_mof_unit_39194.cif
_audit_creation_date              2012-12-10T19:27:37-0500
_audit_creation_method            fapswitch 2.2
_symmetry_space_group_name_H-M    P1
_symmetry_Int_Tables_number       1
_space_group_crystal_system       triclinic
_cell_length_a                    23.217162
_cell_length_b                    10.498091
_cell_length_c                    9.842136
_cell_angle_alpha                 89.479228
_cell_angle_beta                  88.947171
_cell_angle_gamma                 89.61718
_cell_volume                      2398.32670531

loop_
_atom_site_label
_atom_site_type_symbol
_atom_type_description
_atom_site_fract_x
_atom_site_fract_y
_atom_site_fract_z
_atom_type_partial_charge
C1    C     C_R   0.500708 0.258110 0.500658 1.023263
C2    C     C_R   0.499875 0.741993 0.499450 1.024380
C3    C     C_R   0.244552 0.657841 0.465677 -0.154736
C4    C     C_R   0.768823 0.438635 0.542947 -0.133118
C5    C     C_R   0.304773 0.639945 0.463564 0.410741
C6    C     C_R   0.708721 0.421315 0.550973 0.294729
C7    C     C_R   0.328012 0.521495 0.503651 -0.222913
C8    C     C_R   0.672179 0.513649 0.493986 -0.170274
C9    C     C_R   0.292547 0.422195 0.547281 -0.239450
C10   C     C_R   0.694349 0.621718 0.429041 -0.222551
C11   C     C_R   0.233217 0.437339 0.545539 0.512506
C12   C     C_R   0.753108 0.641443 0.422822 0.471738
C13   C     C_R   0.209232 0.553877 0.503391 0.046086
C14   C     C_R   0.790517 0.550818 0.479131 0.116886
C15   C     C_3   0.511604 0.039219 0.628111 -0.233284
C16   C     C_3   0.489482 0.961259 0.372574 -0.226766
C17   C     C_3   0.551806 0.956144 0.538695 0.361132
C18   C     C_3   0.449245 0.044221 0.462218 0.377548
C19   C     C_3   0.500023 0.876893 0.498497 -0.331058
C20   C     C_3   0.501032 0.123373 0.502223 -0.341467
C21   C     C_3   0.459678 0.958563 0.586502 0.374997
C22   C     C_3   0.541437 0.041874 0.414445 0.358437
C23   C     C_R   0.389706 0.501613 0.501165 0.956574
C24   C     C_R   0.610293 0.499963 0.498661 0.959844
C25   C     C_3   0.477148 0.397449 0.050020 0.408934
C26   C     C_3   0.522891 0.602469 0.949912 0.411175
C27   C     C_3   0.528764 0.404536 0.951574 0.310684
C28   C     C_3   0.471282 0.595436 0.048266 0.308539
C29   C     C_3   0.448410 0.493085 0.954581 -0.273713
C30   C     C_3   0.551615 0.506885 0.045366 -0.271042
C31   C     C_R   0.876869 0.621207 0.584705 0.648779
C32   C     C_R   0.123128 0.541285 0.373992 0.579694
C33   C     C_R   0.880700 0.547544 0.356027 0.679206
C34   C     C_R   0.117489 0.605344 0.605848 0.608670
C35   C     C_R   0.941177 0.558079 0.350616 -0.090201
C36   C     C_R   0.057779 0.627021 0.597421 -0.089697
C37   C     C_R   0.969386 0.597443 0.469794 -0.050550
C38   C     C_R   0.030002 0.591595 0.476019 -0.050269
C39   C     C_R   0.936807 0.640178 0.584078 -0.068888
C40   C     C_R   0.062736 0.547199 0.362371 -0.073460
C41   C     C_R   0.974216 0.525356 0.233296 0.352807
C42   C     C_R   0.025381 0.684483 0.704351 0.338713
C43   C     C_R   0.034370 0.514252 0.240812 -0.142945
C44   C     C_R   0.965200 0.694647 0.695784 -0.133411
H1    H     H_    0.311063 0.331978 0.579298 0.232988
H2    H     H_    0.665654 0.692014 0.384830 0.227990
H3    H     H_    0.520286 0.072109 0.732383 0.279733
H4    H     H_    0.480770 0.928331 0.268316 0.280517
N1    N     N_R   0.850980 0.574835 0.472784 -0.338923
N2    N     N_R   0.148101 0.565525 0.494941 -0.360687
N3    N     N_3   0.499960 0.500030 0.863290 -0.200995
N4    N     N_3   0.500040 0.499970 0.136710 -0.200694
O1    O     O_R   0.500000 0.313960 0.616610 -0.584167
O2    O     O_R   0.500000 0.686040 0.383390 -0.583699
O3    O     O_R   0.500030 0.313950 0.383350 -0.565237
O4    O     O_R   0.499970 0.686050 0.616650 -0.566436
O5    O     O_R   0.416140 0.499970 0.616650 -0.650949
O6    O     O_R   0.583860 0.500030 0.383350 -0.662078
O7    O     O_R   0.416170 0.499960 0.383400 -0.542722
O8    O     O_R   0.583830 0.500040 0.616600 -0.540654
O9    O     O_2   0.844576 0.641890 0.697840 -0.469222
O10   O     O_2   0.157443 0.513688 0.266039 -0.478651
O11   O     O_2   0.851274 0.504772 0.249034 -0.420442
O12   O     O_2   0.145399 0.621894 0.723210 -0.432759
Zn1   Zn    Zn3+2 0.499980 0.500010 0.655740 1.089053
Zn2   Zn    Zn3+2 0.500020 0.499990 0.344260 1.084746
Cl1   Cl    Cl    0.942198 0.495932 0.073608 -0.498028
Cl2   Cl    Cl    0.059021 0.756922 0.844903 -0.499978
Cl3   Cl    Cl    0.569467 0.274749 0.884390 -0.418460
Cl4   Cl    Cl    0.430938 0.726204 0.114005 -0.420205
Cl5   Cl    Cl    0.446084 0.255345 0.117902 -0.360297
Cl6   Cl    Cl    0.553998 0.744490 0.881908 -0.361151
C45   C     C_2   0.388466 0.490713 0.901439 0.641752
H5    H     H_    0.371261 0.574078 0.850002 0.101587
O13   O     O_2   0.358585 0.396350 0.916678 -0.466365
C46   C     C_2   0.611570 0.509489 0.098436 0.635566
H6    H     H_    0.628808 0.426294 0.150107 0.106004
O14   O     O_2   0.641436 0.603833 0.082818 -0.471550
C47   C     C_2   0.065554 0.460793 0.121161 0.680984
H7    H     H_    0.064517 0.510362 0.024007 0.114467
O15   O     O_2   0.089905 0.357608 0.129133 -0.435592
C48   C     C_2   0.933644 0.769994 0.800860 0.677072
H8    H     H_    0.942747 0.756069 0.907727 0.118398
O16   O     O_2   0.899184 0.852599 0.768037 -0.456325
C49   C     C_2   0.217065 0.781957 0.428386 0.649447
H9    H     H_    0.171996 0.785862 0.401568 0.036449
O17   O     O_2   0.243338 0.882139 0.431214 -0.401123
C50   C     C_2   0.807876 0.339651 0.600943 0.610185
H10   H     H_    0.791421 0.269651 0.673095 0.150714
O18   O     O_2   0.858714 0.333028 0.567801 -0.536262
Cl7   Cl    Cl    0.351801 0.762475 0.408107 -0.413601
Cl8   Cl    Cl    0.678672 0.280820 0.622736 -0.455007
Cl9   Cl    Cl    0.189274 0.308268 0.594286 -0.402712
Cl10  Cl    Cl    0.779187 0.782068 0.345538 -0.401447
Cl11  Cl    Cl    0.620124 0.894719 0.587788 -0.391720
Cl12  Cl    Cl    0.381021 0.107322 0.414380 -0.362763
Cl13  Cl    Cl    0.405858 0.901097 0.702784 -0.388560
Cl14  Cl    Cl    0.595950 0.101005 0.301046 -0.394460

loop_
_geom_bond_atom_site_label_1
_geom_bond_atom_site_label_2
_ccdc_geom_bond_type
C9    H1    S    
C22   Cl14  S    
C3    C49   S    
C18   C21   S    
C26   Cl6   S    
C45   H5    S    
C31   O9    S    
C36   C42   A    
C15   H3    S    
C16   H4    S    
C41   Cl1   S    
C49   H9    S    
C23   O7    A    
O2    Zn2   S    
C28   C29   S    
C19   C21   S    
C46   O14   D    
C44   C48   S    
O7    Zn2   S    
C6    Cl8   S    
C14   N1    S    
C29   C45   S    
C33   N1    A    
O4    Zn1   S    
C18   Cl12  S    
C7    C9    A    
N3    Zn1   S    
C1    O1    A    
C33   C35   A    
O6    Zn2   S    
C40   C43   A    
C10   H2    S    
C25   Cl5   S    
O1    Zn1   S    
C41   C43   A    
C18   C20   S    
C3    C13   A    
C24   O8    A    
C11   Cl9   S    
C27   C30   S    
C42   Cl2   S    
C45   O13   D    
C12   Cl10  S    
C42   C44   A    
C31   N1    A    
C27   N3    S    
C49   O17   D    
C25   C29   S    
C15   C20   S    
C34   N2    A    
C46   H6    S    
C4    C6    A    
C2    O2    A    
O5    Zn1   S    
C5    C7    A    
C6    C8    A    
C47   H7    S    
C37   C38   A    
C30   C46   S    
C33   O11   S    
C34   O12   S    
C50   H10   S    
C9    C11   A    
C32   N2    A    
C5    Cl7   S    
C10   C12   A    
C17   Cl11  S    
C24   O6    A    
C20   C22   S    
O8    Zn1   S    
C26   C30   S    
C48   O16   D    
C28   N4    S    
O3    Zn2   S    
N4    Zn2   S    
C47   O15   D    
C29   N3    S    
C23   O5    A    
C30   N4    S    
C1    C20   S    
C16   C22   S    
C35   C37   A    
C2    C19   S    
C8    C10   A    
C28   Cl4   S    
C12   C14   A    
C3    C5    A    
C27   Cl3   S    
C15   C17   S    
C39   C44   A    
C4    C50   S    
C25   C27   S    
C26   C28   S    
C17   C22   S    
C36   C38   A    
C50   O18   D    
C1    O3    A    
C25   N4    S    
C32   O10   S    
C37   C39   A    
C2    O4    A    
C26   N3    S    
C38   C40   A    
C11   C13   A    
C16   C19   S    
C7    C23   S    
C17   C19   S    
C31   C39   A    
C34   C36   A    
C32   C40   A    
C4    C14   A    
C35   C41   A    
C21   Cl13  S    
C13   N2    S    
C15   C21   S    
C8    C24   S    
C16   C18   S    
C48   H8    S    
C43   C47   S    
