data_mof_unit_48591.cif
_audit_creation_date              2013-03-05T16:32:18-0500
_audit_creation_method            fapswitch 2.2
_symmetry_space_group_name_H-M    P1
_symmetry_Int_Tables_number       1
_space_group_crystal_system       triclinic
_cell_length_a                    15.878233
_cell_length_b                    10.896277
_cell_length_c                    9.522996
_cell_angle_alpha                 89.336075
_cell_angle_beta                  89.799669
_cell_angle_gamma                 90.054306
_cell_volume                      1647.48656962

loop_
_atom_site_label
_atom_site_type_symbol
_atom_site_description
_atom_site_fract_x
_atom_site_fract_y
_atom_site_fract_z
_atom_type_partial_charge
O1    O     O_R   0.500000 0.319640 0.618810 -0.572581
O2    O     O_R   0.500010 0.319680 0.381230 -0.598512
C1    C     C_R   0.498736 0.262730 0.500583 0.840142
O3    O     O_R   0.379430 0.499990 0.618840 -0.583333
O4    O     O_R   0.379440 0.500030 0.381260 -0.570778
C2    C     C_R   0.340205 0.499929 0.500373 0.836238
Cu1   Cu    Cu3+1 0.500000 0.499980 0.640670 0.959405
Cu2   Cu    Cu3+1 0.500000 0.500020 0.359330 0.988574
O5    O     O_R   0.499990 0.680320 0.618770 -0.585365
O6    O     O_R   0.500000 0.680360 0.381190 -0.529545
O7    O     O_R   0.620560 0.499970 0.618740 -0.586506
O8    O     O_R   0.620570 0.500010 0.381160 -0.578695
C3    C     C_R   0.498370 0.737466 0.498483 0.832719
C4    C     C_R   0.659827 0.500018 0.499709 0.817594
C5    C     C_3   0.046083 0.430197 0.648650 0.712487
C6    C     C_3   0.050608 0.428824 0.376267 -0.475155
C7    C     C_3   0.952969 0.432094 0.369067 0.211609
H1    H     H_    0.927585 0.324483 0.620508 0.169969
H2    H     H_    0.078597 0.473201 0.281189 0.210424
H3    H     H_    0.072100 0.331929 0.374486 0.201790
H4    H     H_    0.930193 0.335210 0.370773 0.112480
C8    C     C_1   0.749443 0.499159 0.499223 -0.143192
C9    C     C_3   0.082945 0.494534 0.510350 0.098791
C10   C     C_3   0.948001 0.421757 0.631367 -0.443840
C11   C     C_3   0.917169 0.496374 0.501698 0.068260
C12   C     C_3   0.952068 0.628883 0.513370 -0.324992
C13   C     C_3   0.049316 0.628310 0.503477 -0.389811
C14   C     C_1   0.824964 0.498038 0.499619 -0.014242
C15   C     C_1   0.175199 0.497172 0.505759 -0.040012
C16   C     C_1   0.250676 0.498792 0.501964 -0.157772
H5    H     H_    0.075945 0.683969 0.589893 0.195113
H6    H     H_    0.069366 0.673351 0.403259 0.211459
H7    H     H_    0.932681 0.668161 0.615933 0.191590
H8    H     H_    0.915865 0.455393 0.727774 0.226559
H9    H     H_    0.925339 0.690113 0.430825 0.220314
C17   C     C_R   0.491923 0.059486 0.620796 0.108100
C18   C     C_R   0.496925 0.130409 0.499093 -0.164828
C19   C     C_R   0.499806 0.068323 0.370031 -0.277437
H10   H     H_    0.501919 0.119173 0.271628 0.185646
C20   C     C_R   0.497534 0.939578 0.365415 0.355360
C21   C     C_R   0.495987 0.870353 0.493552 -0.197480
C22   C     C_R   0.493468 0.935866 0.617449 -0.020423
C23   C     C_3   0.486627 0.920583 0.772216 -0.437996
C24   C     C_3   0.483589 0.062342 0.777257 0.288883
H11   H     H_    0.426974 0.873912 0.803166 0.218862
H12   H     H_    0.544739 0.880935 0.818895 0.188676
H13   H     H_    0.538274 0.107464 0.828553 0.095740
C25   C     C_R   0.544880 0.586347 0.072363 0.351327
N1    N     N_R   0.500530 0.500930 0.147930 -0.188970
C26   C     C_R   0.448907 0.423584 0.075775 -0.087670
H14   H     H_    0.408632 0.360627 0.133040 0.143128
C27   C     C_R   0.448912 0.423554 0.926670 -0.087882
H15   H     H_    0.408710 0.360596 0.871252 0.173810
N2    N     N_R   0.500530 0.500890 0.852020 -0.191528
C28   C     C_R   0.544822 0.586425 0.924850 0.255853
C29   C     C_3   0.637616 0.607274 0.918202 -0.492184
C30   C     C_3   0.637657 0.607033 0.077513 -0.455161
H16   H     H_    0.672604 0.528311 0.873809 0.230915
H17   H     H_    0.653671 0.698149 0.871064 0.205552
H18   H     H_    0.672546 0.527850 0.123330 0.234845
H19   H     H_    0.653833 0.697693 0.122439 0.234675
O9    O     O_3   0.059304 0.503954 0.769927 -0.613723
C31   C     C_3   0.143578 0.508917 0.818196 0.082546
H20   H     H_    0.174222 0.592456 0.773570 0.141380
H21   H     H_    0.182184 0.427780 0.789856 0.177022
C32   C     C_3   0.142253 0.518831 0.978193 -0.296164
H22   H     H_    0.104275 0.599919 0.009014 0.257014
H23   H     H_    0.112195 0.435219 0.023950 0.248661
C33   C     C_3   0.230831 0.531723 0.037838 -0.899622
H24   H     H_    0.269259 0.450494 0.010392 0.244319
H25   H     H_    0.227415 0.538066 0.154059 0.268113
H26   H     H_    0.261742 0.615920 0.995413 0.271803
N3    N     N_R   0.494529 0.882983 0.230381 0.107566
O10   O     O_R   0.426772 0.824794 0.192856 -0.397423
O11   O     O_R   0.549852 0.913289 0.135001 -0.433113
O12   O     O_3   0.403633 0.107332 0.817022 -0.580473
C34   C     C_3   0.394848 0.098235 0.964490 0.055259
H27   H     H_    0.441377 0.158601 0.017010 0.132144
H28   H     H_    0.404332 0.002167 0.001559 0.217427
C35   C     C_3   0.305814 0.137043 0.006171 -0.331800
H29   H     H_    0.294908 0.233664 0.972968 0.211571
H30   H     H_    0.259298 0.078319 0.951472 0.258228
C36   C     C_3   0.291858 0.124862 0.164496 -0.856143
H31   H     H_    0.298864 0.027613 0.198721 0.282973
H32   H     H_    0.227279 0.156065 0.191312 0.269668
H33   H     H_    0.337769 0.181973 0.222320 0.245748
N4    N     N_R   0.078146 0.304327 0.674011 0.080052
O13   O     O_R   0.052339 0.243183 0.784291 -0.338100
O14   O     O_R   0.135173 0.255020 0.594066 -0.399739
N5    N     N_R   0.923674 0.489725 0.237752 0.143918
O15   O     O_R   0.950945 0.597242 0.197573 -0.377847
O16   O     O_R   0.873337 0.429656 0.155711 -0.352270

loop_
_geom_bond_atom_site_label_1
_geom_bond_atom_site_label_2
_geom_bond_distance
_ccdc_geom_bond_type
C25   C28   1.404758 A    
C32   H23   1.111855 S    
N4    O13   1.301898 A    
C31   H21   1.111584 S    
C21   C22   1.386547 A    
C17   C22   1.347984 A    
C28   C29   1.491623 S    
C3    C21   1.448727 S    
C25   C30   1.491123 S    
C34   H27   1.112618 S    
C29   C30   1.517089 S    
C11   C14   1.464390 S    
Cu1   O7    1.924910 S    
C12   C13   1.546693 S    
C15   C16   1.198968 T    
H1    C10   1.114146 S    
C9    C15   1.465584 S    
C17   C18   1.387529 A    
C18   C19   1.410421 A    
C35   C36   1.527402 S    
O4    C2    1.292208 A    
O7    C4    1.291775 A    
C32   C33   1.525630 S    
C20   N3    1.433499 S    
C33   H25   1.110866 S    
N3    O10   1.301474 A    
C24   O12   1.413375 S    
O5    C3    1.297789 A    
C6    C7    1.552513 S    
C26   C27   1.419931 A    
C9    C13   1.553599 S    
C24   H13   1.114456 S    
Cu2   O8    1.926414 S    
C5    C9    1.594067 S    
C32   H22   1.111869 S    
C31   C32   1.528797 S    
C8    C14   1.199226 T    
N3    O11   1.301019 A    
O3    Cu1   1.926417 S    
C27   N2    1.366725 A    
C34   H28   1.111378 S    
C13   H5    1.112349 S    
Cu1   Cu2   2.679195 S    
C10   C11   1.551532 S    
C35   H30   1.111667 S    
C30   H18   1.111563 S    
C11   C12   1.551377 S    
C10   H8    1.114653 S    
O1    C1    1.291830 A    
C33   H26   1.111295 S    
C23   C24   1.546746 S    
O9    C31   1.417567 S    
C12   H7    1.113424 S    
N5    O16   1.301087 A    
C36   H31   1.110825 S    
C6    H3    1.110174 S    
C26   H14   1.079354 S    
O12   C34   1.413095 S    
C23   H11   1.111896 S    
O3    C2    1.290570 A    
C20   C21   1.427226 A    
C36   H32   1.110442 S    
O8    C4    1.291504 A    
C6    C9    1.559404 S    
N4    O14   1.301444 A    
C17   C24   1.496065 S    
C22   C23   1.484893 S    
C27   H15   1.080059 S    
C5    N4    1.480901 S    
C34   C35   1.528395 S    
Cu1   O5    1.973665 S    
N2    C28   1.364342 A    
C5    C10   1.569338 S    
C2    C16   1.421632 S    
C13   H6    1.113450 S    
O1    Cu1   1.978428 S    
O2    Cu2   1.973665 S    
C7    N5    1.470005 S    
C35   H29   1.109681 S    
O6    C3    1.285084 A    
O4    Cu2   1.924914 S    
C30   H19   1.111281 S    
C29   H17   1.111487 S    
C7    C11   1.557308 S    
C4    C8    1.422973 S    
O2    C1    1.288726 A    
C19   C20   1.404469 A    
N5    O15   1.301492 A    
C19   H10   1.083496 S    
C6    H2    1.112551 S    
C25   N1    1.363708 A    
C5    O9    1.430627 S    
C29   H16   1.111454 S    
C33   H24   1.108719 S    
C23   H12   1.111215 S    
C7    H4    1.115498 S    
C31   H20   1.111164 S    
C12   H9    1.110800 S    
C36   H33   1.109863 S    
C1    C18   1.442307 S    
Cu2   O6    1.978428 S    
N1    C26   1.367606 A    
Cu1   N2    2.012871 S    
Cu2   N1    2.013059 S    
