data_mof_unit_66603.cif
_audit_creation_date              2012-10-26T19:39:05-0400
_audit_creation_method            fapswitch 2.2
_symmetry_space_group_name_H-M    P1
_symmetry_Int_Tables_number       1
_space_group_crystal_system       triclinic
_cell_length_a                    12.02194
_cell_length_b                    12.616881
_cell_length_c                    7.539666
_cell_angle_alpha                 89.954351
_cell_angle_beta                  108.676898
_cell_angle_gamma                 89.97422
_cell_volume                      1083.38806333

loop_
_atom_site_label
_atom_site_type_symbol
_atom_type_description
_atom_site_fract_x
_atom_site_fract_y
_atom_site_fract_z
_atom_type_partial_charge
C1    C     C_R   0.346209 0.854252 0.453303 0.562110
C2    C     C_2   0.752575 0.786374 0.567714 0.022279
C3    C     C_2   0.752030 0.214222 0.568437 -0.017374
C4    C     C_2   0.247970 0.785778 0.431563 -0.017373
C5    C     C_2   0.747425 0.713626 0.432286 0.022279
C6    C     C_2   0.252575 0.286374 0.567714 0.022279
C7    C     C_2   0.252030 0.714222 0.568437 -0.017374
C8    C     C_2   0.747970 0.285778 0.431563 -0.017373
C9    C     C_2   0.637930 0.682416 0.280370 0.260788
C10   C     C_2   0.362069 0.317583 0.719630 0.260788
C11   C     C_2   0.360262 0.685277 0.725067 0.229082
C12   C     C_R   0.653791 0.145748 0.546697 0.562109
C13   C     C_2   0.639738 0.314723 0.274933 0.229082
C14   C     C_2   0.137931 0.182416 0.280370 0.260788
C15   C     C_2   0.862070 0.817583 0.719630 0.260788
C16   C     C_2   0.860262 0.185277 0.725067 0.229082
C17   C     C_2   0.139738 0.814722 0.274933 0.229082
C18   C     C_2   0.343121 0.025491 0.906730 0.458201
C19   C     C_2   0.656879 0.974508 0.093269 0.458199
C20   C     C_2   0.843121 0.525492 0.906731 0.458200
C21   C     C_2   0.156878 0.474508 0.093269 0.458199
C22   C     C_R   0.654007 0.854431 0.546724 0.567296
C23   C     C_R   0.345993 0.145569 0.453276 0.567296
C24   C     C_R   0.846209 0.354252 0.453303 0.562110
C25   C     C_R   0.153791 0.645748 0.546697 0.562109
C26   C     C_R   0.154007 0.354431 0.546724 0.567296
C27   C     C_R   0.845993 0.645569 0.453276 0.567296
C28   C     C_2   0.247425 0.213626 0.432286 0.022279
Cu1   Cu    Cu3+1 0.517640 0.000000 0.687200 1.074839
Cu2   Cu    Cu3+1 0.482360 0.000000 0.312800 1.074838
Cu3   Cu    Cu3+1 0.017640 0.500000 0.687200 1.074839
Cu4   Cu    Cu3+1 0.982360 0.500000 0.312800 1.074838
H1    H     H_    0.643671 0.651638 0.149220 0.175577
H2    H     H_    0.702276 0.027021 0.205865 0.102368
H3    H     H_    0.797724 0.472979 0.794135 0.102367
H4    H     H_    0.202276 0.527020 0.205866 0.102367
H5    H     H_    0.356329 0.348362 0.850780 0.175577
H6    H     H_    0.352782 0.657696 0.857200 0.130649
H7    H     H_    0.647218 0.342303 0.142799 0.130649
H8    H     H_    0.143671 0.151638 0.149220 0.175577
H9    H     H_    0.856329 0.848362 0.850780 0.175577
H10   H     H_    0.852781 0.157697 0.857201 0.130649
H11   H     H_    0.147218 0.842303 0.142799 0.130649
H12   H     H_    0.297723 0.972978 0.794137 0.102366
N1    N     N_2   0.455760 0.000000 0.031460 -0.179374
N2    N     N_2   0.544240 0.000000 0.968540 -0.179374
N3    N     N_2   0.955760 0.500000 0.031460 -0.179374
N4    N     N_2   0.044240 0.500000 0.968540 -0.179374
O1    O     O_R   0.398880 0.887420 0.621600 -0.515048
O2    O     O_R   0.630920 0.112580 0.694560 -0.518108
O3    O     O_R   0.630920 0.887420 0.694560 -0.459638
O4    O     O_R   0.369080 0.112580 0.305440 -0.459639
O5    O     O_R   0.869080 0.387420 0.305440 -0.518109
O6    O     O_R   0.130920 0.612580 0.694560 -0.518109
O7    O     O_R   0.130920 0.387420 0.694560 -0.459638
O8    O     O_R   0.869080 0.612580 0.305440 -0.459639
O9    O     O_2   0.542104 0.684161 0.304157 -0.470899
O10   O     O_2   0.457895 0.315839 0.695843 -0.470899
O11   O     O_2   0.456969 0.685185 0.704353 -0.434900
O12   O     O_R   0.601120 0.112580 0.378400 -0.515048
O13   O     O_2   0.543031 0.314815 0.295647 -0.434900
O14   O     O_2   0.042105 0.184161 0.304157 -0.470899
O15   O     O_2   0.957895 0.815839 0.695843 -0.470899
O16   O     O_2   0.956968 0.185185 0.704353 -0.434900
O17   O     O_2   0.043031 0.814815 0.295647 -0.434900
O18   O     O_2   0.293118 0.105698 0.930510 -0.488317
O19   O     O_2   0.706883 0.894303 0.069489 -0.488318
O20   O     O_2   0.793118 0.605697 0.930512 -0.488317
O21   O     O_2   0.206881 0.394302 0.069488 -0.488317
O22   O     O_R   0.601120 0.887420 0.378400 -0.499528
O23   O     O_R   0.398880 0.112580 0.621600 -0.499526
O24   O     O_R   0.898880 0.387420 0.621600 -0.515048
O25   O     O_R   0.101120 0.612580 0.378400 -0.515048
O26   O     O_R   0.101120 0.387420 0.378400 -0.499528
O27   O     O_R   0.898880 0.612580 0.621600 -0.499528
O28   O     O_R   0.369080 0.887420 0.305440 -0.518109

loop_
_geom_bond_atom_site_label_1
_geom_bond_atom_site_label_2
_ccdc_geom_bond_type
C8    C13   S    
Cu2   N1    S    
C26   O7    A    
C19   N2    S    
C21   H4    S    
Cu1   O1    S    
N1    N2    D    
C7    C11   S    
C10   H5    S    
C10   O10   D    
Cu4   O26   S    
C27   O27   A    
C14   O14   D    
C3    C12   S    
C26   O26   A    
C5    C27   S    
C20   H3    S    
C6    C28   D    
Cu3   Cu4   S    
Cu2   O12   S    
C2    C22   S    
C19   O19   D    
C9    O9    D    
C21   N4    S    
C9    H1    S    
C4    C7    D    
C11   O11   D    
Cu2   O22   S    
Cu1   O2    S    
C23   O23   A    
C25   O6    A    
C15   H9    S    
C3    C8    D    
Cu4   O25   S    
C27   O8    A    
C24   O5    A    
C21   O21   D    
C11   H6    S    
C17   H11   S    
C5    C9    S    
Cu1   Cu2   S    
C18   H12   S    
Cu2   O28   S    
Cu3   O27   S    
N3    N4    D    
C23   C28   S    
C2    C15   S    
C4    C17   S    
Cu3   O24   S    
Cu3   N4    S    
Cu4   N3    S    
C2    C5    D    
C18   N1    S    
C16   H10   S    
Cu4   O5    S    
C24   O24   A    
Cu1   O3    S    
Cu2   O4    S    
C1    O28   A    
C20   O20   D    
C19   H2    S    
C6    C10   S    
C12   O2    A    
C18   O18   D    
C17   O17   D    
C7    C25   S    
Cu1   N2    S    
C1    C4    S    
Cu3   O7    S    
C23   O4    A    
C6    C26   S    
C8    C24   S    
C22   O22   A    
C25   O25   A    
Cu3   O6    S    
C13   H7    S    
C20   N3    S    
C14   H8    S    
C12   O12   A    
C13   O13   D    
C15   O15   D    
C16   O16   D    
C14   C28   S    
C1    O1    A    
Cu4   O8    S    
C3    C16   S    
C22   O3    A    
Cu1   O23   S    
