data_mof_unit_24865.cif
_audit_creation_date              2012-12-10T18:21:14-0500
_audit_creation_method            fapswitch 2.2
_symmetry_space_group_name_H-M    P1
_symmetry_Int_Tables_number       1
_space_group_crystal_system       triclinic
_cell_length_a                    14.778102
_cell_length_b                    14.078122
_cell_length_c                    10.812008
_cell_angle_alpha                 90.531013
_cell_angle_beta                  88.51493
_cell_angle_gamma                 88.790974
_cell_volume                      2248.05123754

loop_
_atom_site_label
_atom_site_type_symbol
_atom_type_description
_atom_site_fract_x
_atom_site_fract_y
_atom_site_fract_z
_atom_type_partial_charge
C1    C     C_R   0.326844 0.501250 0.499493 0.856385
C2    C     C_R   0.041787 0.610209 0.678307 -0.232312
C3    C     C_R   0.090777 0.564740 0.582287 0.124968
C4    C     C_R   0.494996 0.499709 0.258169 0.732630
C5    C     C_R   0.046812 0.531686 0.476334 0.025992
C6    C     C_R   0.097099 0.492820 0.374735 -0.034245
C7    C     C_R   0.053966 0.471237 0.263307 0.480036
C8    C     C_R   0.958420 0.469821 0.262314 -0.111948
C9    C     C_R   0.183397 0.552740 0.589805 -0.263393
C10   C     C_R   0.231225 0.506619 0.494134 -0.083375
C11   C     C_R   0.189607 0.476219 0.387528 -0.271673
C12   C     C_3   0.586812 0.511989 0.922399 -0.310166
C13   C     C_R   0.556642 0.797261 0.418693 0.444743
C14   C     C_R   0.555600 0.200402 0.417751 0.519813
C15   C     C_R   0.441947 0.801229 0.577039 0.446142
C16   C     C_R   0.443735 0.203891 0.581865 0.485817
C17   C     C_R   0.451570 0.900921 0.590603 -0.093525
C18   C     C_R   0.452028 0.102828 0.593039 -0.107599
C19   C     C_R   0.673435 0.499203 0.500323 0.927511
C20   C     C_R   0.501780 0.949883 0.500811 0.022357
C21   C     C_R   0.501287 0.050995 0.500789 0.013453
C22   C     C_R   0.549882 0.897720 0.408642 -0.081907
C23   C     C_R   0.814891 0.482294 0.383467 -0.343915
C24   C     C_R   0.548950 0.099783 0.407511 -0.107798
C25   C     C_R   0.409782 0.952633 0.688503 -0.161864
C26   C     C_R   0.412503 0.051909 0.691738 -0.161515
C27   C     C_R   0.586993 0.046685 0.307306 -0.155759
C28   C     C_R   0.588286 0.947114 0.308502 -0.174337
C29   C     C_R   0.491791 0.500612 0.741994 0.840522
C30   C     C_3   0.441209 0.592593 0.076889 -0.213566
C31   C     C_3   0.434830 0.413806 0.071254 -0.232474
C32   C     C_3   0.426406 0.585041 0.934865 -0.232580
C33   C     C_3   0.447561 0.405398 0.928491 -0.223354
C34   C     C_R   0.769863 0.499914 0.496216 -0.144696
C35   C     C_3   0.594051 0.495274 0.064557 -0.057596
C36   C     C_3   0.493544 0.499596 0.121671 -0.061787
C37   C     C_3   0.488465 0.501124 0.878741 -0.146007
C38   C     C_2   0.478328 0.687986 0.119415 0.527669
C39   C     C_2   0.435924 0.318445 0.137195 0.552797
C40   C     C_3   0.151362 0.524935 0.109134 0.034319
C41   C     C_3   0.089309 0.594421 0.041194 -0.311142
C42   C     C_3   0.143385 0.678078 0.992387 -0.911851
C43   C     C_2   0.912238 0.443489 0.146272 0.431824
C44   C     C_3   0.703854 0.742615 0.392852 0.152446
C45   C     C_R   0.814326 0.533308 0.599443 0.389106
C46   C     C_3   0.767913 0.815868 0.337045 -0.405436
C47   C     C_3   0.866226 0.792579 0.368027 -0.917634
C48   C     C_3   0.707207 0.223844 0.354041 0.109793
C49   C     C_3   0.738466 0.202979 0.486152 -0.431352
C50   C     C_3   0.841519 0.192678 0.488637 -0.923264
C51   C     C_3   0.288052 0.784938 0.573706 0.097185
C52   C     C_3   0.212821 0.803826 0.671085 -0.302978
C53   C     C_3   0.123406 0.830228 0.611178 -0.973055
C54   C     C_3   0.293494 0.222357 0.656589 0.062531
C55   C     C_3   0.224241 0.300921 0.630398 -0.305428
C56   C     C_R   0.903784 0.562528 0.584123 -0.074871
C57   C     C_3   0.127605 0.271183 0.661720 -0.953002
C58   C     C_2   0.431385 0.681524 0.874419 0.556723
C59   C     C_2   0.499295 0.315429 0.886560 0.659103
C60   C     C_2   0.656496 0.567444 0.122202 0.406019
C61   C     C_2   0.640620 0.401422 0.095069 0.374210
C62   C     C_3   0.815221 0.461818 0.791307 0.097653
C63   C     C_3   0.797700 0.359380 0.750550 -0.409216
C64   C     C_3   0.848078 0.287643 0.830006 -0.789407
C65   C     C_2   0.896448 0.673057 0.771219 0.434746
C66   C     C_R   0.952795 0.531979 0.475948 -0.004092
C67   C     C_R   0.908225 0.494822 0.372222 -0.030681
C68   C     C_R   0.947671 0.614173 0.677189 -0.053499
H1    H     H_    0.076938 0.642255 0.753832 0.188036
H2    H     H_    0.355052 0.563400 0.921964 0.131615
H3    H     H_    0.378904 0.398934 0.889014 0.139709
H4    H     H_    0.607889 0.584766 0.897057 0.230879
H5    H     H_    0.633235 0.464226 0.868072 0.185921
H6    H     H_    0.776157 0.456371 0.307359 0.112783
H7    H     H_    0.443693 0.726723 0.194645 0.065355
H8    H     H_    0.374843 0.295175 0.184927 0.027083
H9    H     H_    0.203732 0.496897 0.042010 0.157838
H10   H     H_    0.188403 0.564237 0.180880 0.122664
H11   H     H_    0.057585 0.557096 0.962911 0.254746
H12   H     H_    0.218491 0.577105 0.670718 0.140744
H13   H     H_    0.034833 0.622254 0.105266 0.224258
H14   H     H_    0.176540 0.715286 0.069537 0.265176
H15   H     H_    0.097820 0.729786 0.946779 0.299896
H16   H     H_    0.196064 0.652476 0.924242 0.260264
H17   H     H_    0.844699 0.470355 0.128304 0.065810
H18   H     H_    0.733868 0.671935 0.368615 0.182720
H19   H     H_    0.702785 0.748624 0.496035 0.116863
H20   H     H_    0.761820 0.816598 0.234814 0.267767
H21   H     H_    0.750398 0.887477 0.375322 0.216994
H22   H     H_    0.874033 0.790020 0.469906 0.257361
H23   H     H_    0.230175 0.441775 0.314341 0.153092
H24   H     H_    0.910874 0.848223 0.329888 0.271815
H25   H     H_    0.887957 0.722932 0.326716 0.271366
H26   H     H_    0.747714 0.283548 0.318020 0.169725
H27   H     H_    0.725433 0.163209 0.291881 0.139519
H28   H     H_    0.714960 0.261077 0.549562 0.240355
H29   H     H_    0.709279 0.135612 0.519761 0.215664
H30   H     H_    0.865664 0.134931 0.424457 0.269180
H31   H     H_    0.862695 0.174498 0.583358 0.269892
H32   H     H_    0.873587 0.260244 0.461069 0.271104
H33   H     H_    0.267380 0.726755 0.511368 0.172066
H34   H     H_    0.376578 0.916314 0.764189 0.198217
H35   H     H_    0.293691 0.849698 0.515221 0.107446
H36   H     H_    0.204033 0.739773 0.728348 0.235136
H37   H     H_    0.231621 0.862918 0.733230 0.230054
H38   H     H_    0.129628 0.898427 0.561010 0.264540
H39   H     H_    0.069201 0.838579 0.683833 0.284572
H40   H     H_    0.103872 0.773934 0.544932 0.273408
H41   H     H_    0.278230 0.196267 0.751258 0.171622
H42   H     H_    0.283145 0.163831 0.588399 0.116673
H43   H     H_    0.239472 0.365309 0.685691 0.233193
H44   H     H_    0.228566 0.316960 0.530335 0.236023
H45   H     H_    0.383579 0.087814 0.772356 0.190219
H46   H     H_    0.110622 0.206679 0.607867 0.264746
H47   H     H_    0.079502 0.329542 0.638024 0.275456
H48   H     H_    0.119734 0.256504 0.762146 0.275213
H49   H     H_    0.494839 0.707332 0.836451 0.121597
H50   H     H_    0.568716 0.317465 0.852886 0.093256
H51   H     H_    0.657334 0.575987 0.221679 0.082499
H52   H     H_    0.647122 0.382330 0.191068 0.127751
H53   H     H_    0.788979 0.472413 0.887576 0.212612
H54   H     H_    0.889283 0.472202 0.796159 0.161222
H55   H     H_    0.723980 0.345843 0.755598 0.234862
H56   H     H_    0.614010 0.081455 0.226125 0.190608
H57   H     H_    0.822294 0.349115 0.653673 0.226601
H58   H     H_    0.922373 0.295027 0.816395 0.263709
H59   H     H_    0.829646 0.214477 0.802846 0.247680
H60   H     H_    0.830062 0.298341 0.929350 0.318335
H61   H     H_    0.825569 0.690947 0.758593 0.124316
H62   H     H_    0.618647 0.908955 0.230056 0.200178
H63   H     H_    0.372313 0.592310 0.121567 0.074485
H64   H     H_    0.362704 0.436367 0.087204 0.068840
N1    N     N_R   0.500070 0.750030 0.500050 -0.193365
N2    N     N_R   0.500070 0.249970 0.500050 -0.186470
O1    O     O_R   0.367860 0.580280 0.500020 -0.602293
O2    O     O_2   0.503504 0.267267 0.138826 -0.515504
O3    O     O_3   0.103804 0.446020 0.156672 -0.591966
O4    O     O_2   0.949482 0.391767 0.068361 -0.547582
O5    O     O_3   0.616384 0.746664 0.340900 -0.607210
O6    O     O_3   0.614464 0.251936 0.343792 -0.593518
O7    O     O_3   0.369287 0.756619 0.632443 -0.590882
O8    O     O_3   0.382670 0.259003 0.653912 -0.589549
O9    O     O_2   0.365414 0.735220 0.879317 -0.609037
O10   O     O_2   0.462135 0.238802 0.888413 -0.582125
O11   O     O_2   0.711031 0.611909 0.060027 -0.546479
O12   O     O_R   0.367860 0.419720 0.500020 -0.602795
O13   O     O_2   0.675060 0.348572 0.016479 -0.613618
O14   O     O_3   0.770906 0.529462 0.715028 -0.688298
O15   O     O_2   0.933035 0.703788 0.862796 -0.590390
O16   O     O_R   0.500000 0.580270 0.314790 -0.616072
O17   O     O_R   0.500000 0.419730 0.314790 -0.586248
O18   O     O_R   0.632160 0.580270 0.499960 -0.622363
O19   O     O_R   0.632160 0.419730 0.499960 -0.608250
O20   O     O_R   0.500030 0.580270 0.685200 -0.611808
O21   O     O_R   0.500030 0.419730 0.685200 -0.610621
O22   O     O_2   0.545151 0.722756 0.070780 -0.555886
Zn1   Zn    Zn3+2 0.500020 0.607200 0.499990 0.990462
Zn2   Zn    Zn3+2 0.500020 0.392800 0.499990 1.006345

loop_
_geom_bond_atom_site_label_1
_geom_bond_atom_site_label_2
_ccdc_geom_bond_type
C4    C36   S    
C40   C41   S    
O1    Zn1   S    
O16   Zn1   S    
C55   H44   S    
C18   C21   A    
C47   H24   S    
C35   C36   S    
C18   C26   A    
C8    C43   S    
C32   C58   S    
C16   N2    A    
C7    C8    A    
C57   H47   S    
C46   H21   S    
C54   H42   S    
C50   H31   S    
C31   H64   S    
C48   H26   S    
C60   H51   S    
C13   O5    S    
C48   H27   S    
C44   O5    S    
C2    C68   A    
C5    C6    A    
C25   H34   S    
C23   C67   A    
C30   H63   S    
C45   O14   S    
C12   C37   S    
C17   C20   A    
C30   C38   S    
C43   O4    D    
C41   C42   S    
C14   C24   A    
O19   Zn2   S    
C46   C47   S    
C53   H38   S    
C45   C56   A    
C64   H60   S    
C42   H14   S    
C24   C27   A    
C38   O22   D    
C44   H19   S    
C9    C10   A    
N1    Zn1   S    
C38   H7    S    
C65   C68   S    
C66   C67   A    
C12   H4    S    
C33   C59   S    
C22   C28   A    
C12   H5    S    
C61   H52   S    
C1    O12   A    
C44   H18   S    
C29   O21   A    
C58   O9    D    
C44   C46   S    
C57   H48   S    
C46   H20   S    
C39   O2    D    
C51   O7    S    
C50   H30   S    
C48   O6    S    
C51   C52   S    
C43   H17   S    
O17   Zn2   S    
C42   H16   S    
O20   Zn1   S    
C6    C11   A    
C7    O3    S    
C32   H2    S    
C14   N2    A    
C25   C26   A    
C39   H8    S    
C58   H49   S    
C33   C37   S    
C54   H41   S    
C35   C60   S    
C9    H12   S    
C16   O8    S    
C62   C63   S    
C3    C9    A    
C59   O10   D    
C53   H39   S    
C63   H55   S    
C23   C34   A    
C41   H13   S    
C40   O3    S    
C31   C33   S    
C19   O18   A    
C47   H25   S    
C35   C61   S    
C34   C45   A    
C32   C37   S    
C12   C35   S    
C63   H57   S    
O12   Zn2   S    
C48   C49   S    
C54   O8    S    
C14   O6    S    
C52   H37   S    
C59   H50   S    
C64   H58   S    
C55   C57   S    
C19   O19   A    
C47   H22   S    
C40   H10   S    
C60   O11   D    
C23   H6    S    
C2    H1    S    
C62   H54   S    
C52   C53   S    
C1    C10   S    
C15   C17   A    
C4    O17   A    
C54   C55   S    
C52   H36   S    
C55   H43   S    
C31   C36   S    
C13   N1    A    
C42   H15   S    
C20   C22   A    
C5    C66   A    
C3    C5    A    
C19   C34   S    
C41   H11   S    
C65   H61   S    
C27   H56   S    
C6    C7    A    
C15   N1    A    
C51   H33   S    
C4    O16   A    
C50   H32   S    
C30   C36   S    
C17   C25   A    
C2    C3    A    
C61   O13   D    
C26   H45   S    
C56   C68   A    
C64   H59   S    
C30   C32   S    
C53   H40   S    
C57   H46   S    
C56   C66   A    
C31   C39   S    
C13   C22   A    
O18   Zn1   S    
C28   H62   S    
N2    Zn2   S    
C49   H28   S    
C65   O15   D    
C10   C11   A    
C33   H3    S    
C49   H29   S    
C63   C64   S    
C11   H23   S    
C20   C21   A    
C8    C67   A    
C16   C18   A    
C49   C50   S    
C21   C24   A    
C29   C37   S    
C27   C28   A    
C15   O7    S    
C40   H9    S    
C62   O14   S    
C1    O1    A    
C51   H35   S    
C62   H53   S    
C29   O20   A    
O21   Zn2   S    
