data_mof_unit_17844.cif
_audit_creation_date              2012-12-10T16:48:49-0500
_audit_creation_method            fapswitch 2.2
_symmetry_space_group_name_H-M    P1
_symmetry_Int_Tables_number       1
_space_group_crystal_system       triclinic
_cell_length_a                    17.212902
_cell_length_b                    8.67989
_cell_length_c                    7.499162
_cell_angle_alpha                 102.863278
_cell_angle_beta                  91.5231
_cell_angle_gamma                 93.071616
_cell_volume                      1089.87955079

loop_
_atom_site_label
_atom_site_type_symbol
_atom_type_description
_atom_site_fract_x
_atom_site_fract_y
_atom_site_fract_z
_atom_type_partial_charge
C1    C     C_R   0.497615 0.199931 0.453746 0.885884
C2    C     C_R   0.502375 0.800069 0.546255 0.885278
C3    C     C_2   0.496489 0.031946 0.427847 -0.371576
C4    C     C_2   0.503476 0.968048 0.572156 -0.370517
C5    C     C_R   0.351150 0.507350 0.524140 0.795356
C6    C     C_R   0.648993 0.495664 0.476199 0.795536
C7    C     C_R   0.267512 0.530998 0.532938 -0.056616
C8    C     C_R   0.733580 0.485455 0.468496 -0.069753
C9    C     C_R   0.226057 0.537427 0.370819 -0.231511
C10   C     C_R   0.777303 0.501343 0.633281 -0.210061
C11   C     C_R   0.147286 0.566542 0.371419 0.199422
C12   C     C_R   0.857741 0.490466 0.634887 0.204467
C13   C     C_R   0.108874 0.585183 0.537076 0.158254
C14   C     C_R   0.895006 0.463281 0.466545 0.140673
C15   C     C_R   0.150424 0.585594 0.699473 -0.217705
C16   C     C_R   0.851174 0.439337 0.301918 -0.201013
C17   C     C_R   0.229489 0.558144 0.698631 -0.204950
C18   C     C_R   0.770888 0.452483 0.302058 -0.204330
C19   C     C_2   0.024436 0.590094 0.542287 -0.222116
C20   C     C_2   0.979536 0.463225 0.457333 -0.261014
Cu1   Cu    Cu3+1 0.508700 0.517250 0.683000 0.947000
Cu2   Cu    Cu3+1 0.491300 0.482750 0.317000 0.947152
H1    H     H_    0.255370 0.523265 0.242620 0.156455
H2    H     H_    0.748755 0.519604 0.762674 0.164278
H3    H     H_    0.738269 0.435978 0.173005 0.158244
H4    H     H_    0.260424 0.557449 0.826090 0.155066
H5    H     H_    0.004944 0.361379 0.372641 0.152263
H6    H     H_    0.999483 0.692113 0.627049 0.164838
H7    H     H_    0.120170 0.603458 0.824981 0.151147
H8    H     H_    0.879929 0.412770 0.173763 0.144284
H9    H     H_    0.489917 0.960510 0.288780 0.179893
H10   H     H_    0.510045 0.039482 0.711223 0.179650
H11   H     H_    0.438900 0.377756 0.958014 0.222925
H12   H     H_    0.561104 0.622240 0.041983 0.222767
N1    N     N_2   0.478180 0.456750 0.041980 -0.220732
N2    N     N_2   0.521820 0.543250 0.958020 -0.220713
O1    O     O_R   0.505650 0.286040 0.618880 -0.581726
O2    O     O_R   0.494350 0.713960 0.381120 -0.582218
O3    O     O_R   0.490960 0.256910 0.309800 -0.584739
O4    O     O_R   0.509040 0.743090 0.690200 -0.585102
O5    O     O_R   0.394600 0.516230 0.672450 -0.590093
O6    O     O_R   0.605400 0.483770 0.327550 -0.589909
O7    O     O_R   0.379910 0.487100 0.363380 -0.590251
O8    O     O_R   0.620090 0.512900 0.636620 -0.591173
C21   C     C_3   0.899794 0.494289 0.815910 -0.438084
C22   C     C_3   0.897153 0.655414 0.948752 -0.856008
H13   H     H_    0.922826 0.750936 0.887921 0.247743
H14   H     H_    0.836381 0.681276 0.985047 0.252710
H15   H     H_    0.930835 0.654981 0.076765 0.256519
H16   H     H_    0.871009 0.401447 0.875922 0.188727
H17   H     H_    0.961330 0.463879 0.799954 0.216834
C23   C     C_3   0.107471 0.586093 0.196729 -0.427266
C24   C     C_3   0.095655 0.760632 0.204258 -0.831965
H18   H     H_    0.057848 0.809885 0.318159 0.255882
H19   H     H_    0.152685 0.829651 0.223980 0.255074
H20   H     H_    0.067243 0.773885 0.074489 0.235775
H21   H     H_    0.144024 0.539048 0.080240 0.184909
H22   H     H_    0.050987 0.516281 0.168343 0.206134

loop_
_geom_bond_atom_site_label_1
_geom_bond_atom_site_label_2
_ccdc_geom_bond_type
C2    C4    S    
C5    O5    A    
C15   C17   A    
C19   H6    S    
C20   H5    S    
C2    O4    A    
Cu1   O8    S    
C11   C13   A    
C2    O2    A    
Cu2   O7    S    
C1    O1    A    
C24   H19   S    
C5    O7    A    
Cu1   N2    S    
Cu2   O6    S    
C21   C22   S    
C3    H9    S    
Cu2   N1    S    
C9    C11   A    
C22   H15   S    
C4    H10   S    
Cu1   O4    S    
C10   C12   A    
C21   H16   S    
Cu1   O5    S    
C17   H4    S    
C8    C10   A    
H11   N1    S    
C12   C14   A    
C15   H7    S    
H12   N2    S    
C13   C15   A    
C23   H22   S    
C18   H3    S    
C14   C16   A    
C23   H21   S    
C1    O3    A    
C16   H8    S    
C3    C4    D    
Cu2   O2    S    
C22   H14   S    
C14   C20   S    
Cu1   O1    S    
C23   C24   S    
C6    O8    A    
C7    C9    A    
C6    O6    A    
C24   H20   S    
C5    C7    S    
C21   H17   S    
C22   H13   S    
C9    H1    S    
C13   C19   S    
C6    C8    S    
C11   C23   S    
C10   H2    S    
Cu1   Cu2   S    
Cu2   O3    S    
C16   C18   A    
C8    C18   A    
C19   C20   D    
C24   H18   S    
C12   C21   S    
C1    C3    S    
N1    N2    D    
C7    C17   A    
