data_mof_unit_5718.cif
_audit_creation_date              2012-12-10T21:02:20-0500
_audit_creation_method            fapswitch 2.2
_symmetry_space_group_name_H-M    P1
_symmetry_Int_Tables_number       1
_space_group_crystal_system       triclinic
_cell_length_a                    15.059852
_cell_length_b                    15.853842
_cell_length_c                    16.829369
_cell_angle_alpha                 89.37211
_cell_angle_beta                  83.63864
_cell_angle_gamma                 87.906495
_cell_volume                      3990.61933643

loop_
_atom_site_label
_atom_site_type_symbol
_atom_type_description
_atom_site_fract_x
_atom_site_fract_y
_atom_site_fract_z
_atom_type_partial_charge
C1    C     C_R   0.498229 0.661159 0.500463 0.910021
C2    C     C_R   0.501641 0.338958 0.500091 0.885728
C3    C     C_R   0.422658 0.051447 0.484206 -0.057138
C4    C     C_R   0.579686 0.949681 0.493644 -0.056161
C5    C     C_R   0.506234 0.087474 0.486997 0.026527
C6    C     C_R   0.495501 0.913555 0.493255 0.032067
C7    C     C_R   0.585223 0.037861 0.490143 -0.058597
C8    C     C_R   0.417169 0.963386 0.487057 -0.057392
C9    C     C_1   0.508671 0.176391 0.492236 -0.046535
C10   C     C_1   0.491652 0.824351 0.495897 -0.046950
C11   C     C_1   0.493829 0.749525 0.498362 -0.199842
C12   C     C_1   0.506295 0.250938 0.496484 -0.187277
C13   C     C_R   0.037973 0.536059 0.564824 -0.069989
C14   C     C_R   0.962170 0.469707 0.433973 -0.072553
C15   C     C_R   0.095146 0.501281 0.499777 -0.189669
C16   C     C_R   0.904902 0.503688 0.499132 -0.194108
C17   C     C_R   0.056389 0.467695 0.434191 0.391645
C18   C     C_R   0.943616 0.538163 0.564365 0.387522
C19   C     C_1   0.192999 0.500412 0.500247 0.078180
C20   C     C_1   0.806991 0.501445 0.499460 0.088458
C21   C     C_R   0.486714 0.496004 0.653792 0.932966
C22   C     C_R   0.513329 0.501792 0.346320 0.886878
C23   C     C_R   0.477102 0.486190 0.741066 -0.258085
C24   C     C_R   0.525036 0.516467 0.260035 -0.247079
C25   C     C_R   0.547315 0.446672 0.779329 -0.180467
C26   C     C_R   0.470296 0.578406 0.225740 -0.182398
C27   C     C_R   0.545177 0.452739 0.862843 0.412766
C28   C     C_R   0.490407 0.601230 0.145046 0.414891
C29   C     C_R   0.476158 0.500753 0.905617 -0.046128
C30   C     C_R   0.559285 0.557075 0.098370 -0.049159
C31   C     C_R   0.401643 0.531010 0.869406 -0.098408
C32   C     C_R   0.615857 0.497663 0.132289 -0.097473
C33   C     C_R   0.400932 0.521717 0.787253 0.352401
C34   C     C_R   0.597803 0.475904 0.213041 0.355718
C35   C     C_2   0.481517 0.517553 0.989579 -0.085618
C36   C     C_2   0.553217 0.553406 0.012824 -0.046345
H1    H     H_    0.609973 0.569087 0.970295 0.157006
H2    H     H_    0.425400 0.501289 0.032760 0.149592
N1    N     N_1   0.729450 0.499980 0.500020 -0.078334
N2    N     N_1   0.270550 0.500020 0.499980 -0.082731
O1    O     O_R   0.426350 0.621980 0.500000 -0.604131
O2    O     O_R   0.573650 0.378020 0.500000 -0.606900
O3    O     O_R   0.573690 0.621980 0.499960 -0.606148
O4    O     O_R   0.426310 0.378020 0.500040 -0.609595
O5    O     O_R   0.417630 0.500010 0.615820 -0.605587
O6    O     O_R   0.582370 0.499990 0.384180 -0.593108
O7    O     O_R   0.564960 0.500010 0.615780 -0.603672
O8    O     O_R   0.435040 0.499990 0.384220 -0.600521
Zn1   Zn    Zn3+2 0.401630 0.500000 0.500020 0.983599
Zn2   Zn    Zn3+2 0.598370 0.500000 0.499980 0.992770
C37   C     C_R   0.623950 0.401501 0.732622 0.147036
C38   C     C_R   0.711064 0.430682 0.732172 -0.112149
C39   C     C_R   0.782685 0.389393 0.686702 -0.164311
C40   C     C_R   0.767816 0.319433 0.640830 -0.120630
C41   C     C_R   0.681406 0.290031 0.641027 -0.096690
C42   C     C_R   0.609689 0.330521 0.687067 -0.141914
H3    H     H_    0.723243 0.485550 0.766650 0.149556
H4    H     H_    0.849660 0.411914 0.686614 0.152638
H5    H     H_    0.823300 0.288221 0.605096 0.128911
H6    H     H_    0.669730 0.236227 0.605167 0.151984
H7    H     H_    0.542986 0.307358 0.686488 0.104658
C43   C     C_R   0.388111 0.614135 0.271524 0.143245
C44   C     C_R   0.393018 0.678740 0.326813 -0.135361
C45   C     C_R   0.315601 0.708508 0.372983 -0.090824
C46   C     C_R   0.232761 0.675780 0.362599 -0.131427
C47   C     C_R   0.227200 0.613103 0.305835 -0.156081
C48   C     C_R   0.304675 0.582002 0.260546 -0.108990
H8    H     H_    0.456897 0.704467 0.335225 0.112070
H9    H     H_    0.320206 0.755998 0.417624 0.161374
H10   H     H_    0.172970 0.698673 0.398668 0.126966
H11   H     H_    0.163008 0.588074 0.297507 0.167062
H12   H     H_    0.299936 0.532448 0.217572 0.136272
O9    O     O_3   0.650533 0.412745 0.243327 -0.781278
H13   H     H_    0.615174 0.383525 0.287777 0.331014
O10   O     O_3   0.328479 0.554382 0.752640 -0.758665
H14   H     H_    0.304248 0.506822 0.725064 0.347500
C49   C     C_R   0.324382 0.573548 0.916933 0.182629
C50   C     C_R   0.243229 0.532417 0.932327 -0.142244
C51   C     C_R   0.171157 0.571290 0.979355 -0.175646
C52   C     C_R   0.179585 0.651462 0.010844 -0.134124
C53   C     C_R   0.260080 0.692925 0.995310 -0.129435
C54   C     C_R   0.332345 0.654206 0.948432 -0.088056
H15   H     H_    0.236122 0.470165 0.908436 0.125870
H16   H     H_    0.108770 0.539284 0.991355 0.130322
H17   H     H_    0.123760 0.681446 0.047255 0.128725
H18   H     H_    0.266581 0.754945 0.019810 0.134760
H19   H     H_    0.394577 0.686667 0.937069 0.147529
C55   C     C_R   0.688634 0.451976 0.081375 0.219502
C56   C     C_R   0.686655 0.364190 0.071432 -0.026625
C57   C     C_R   0.754040 0.321967 0.021587 -0.170644
C58   C     C_R   0.823674 0.366970 0.981369 -0.116645
C59   C     C_R   0.826104 0.454269 0.990975 -0.127946
C60   C     C_R   0.758827 0.496741 0.040703 -0.198694
H20   H     H_    0.632481 0.328750 0.101478 0.127113
H21   H     H_    0.752085 0.254403 0.013901 0.125674
H22   H     H_    0.875677 0.334219 0.942697 0.121398
H23   H     H_    0.880033 0.489057 0.959752 0.124051
H24   H     H_    0.761284 0.564437 0.047536 0.119802
O11   O     O_3   0.440674 0.661844 0.107545 -0.786899
H25   H     H_    0.403766 0.697026 0.147622 0.335749
O12   O     O_3   0.608990 0.413177 0.905025 -0.779493
H26   H     H_    0.638896 0.365729 0.873709 0.338727
C61   C     C_R   0.329638 0.924650 0.481955 0.131485
C62   C     C_R   0.287941 0.933100 0.411444 -0.149226
C63   C     C_R   0.201706 0.904235 0.408828 -0.139913
C64   C     C_R   0.156478 0.867068 0.476534 -0.129973
C65   C     C_R   0.197627 0.858304 0.546756 -0.154218
C66   C     C_R   0.284172 0.886482 0.549524 -0.165263
H27   H     H_    0.321812 0.963084 0.359032 0.126536
H28   H     H_    0.169784 0.911073 0.354474 0.130444
H29   H     H_    0.089497 0.845193 0.474645 0.125429
H30   H     H_    0.161737 0.830905 0.599357 0.130506
H31   H     H_    0.314688 0.880848 0.604751 0.127449
C67   C     C_R   0.673002 0.078157 0.490459 0.130000
C68   C     C_R   0.706745 0.127719 0.425046 -0.150851
C69   C     C_R   0.789812 0.164353 0.424443 -0.128759
C70   C     C_R   0.840105 0.151427 0.488725 -0.131688
C71   C     C_R   0.807024 0.102302 0.554103 -0.149950
C72   C     C_R   0.723613 0.066045 0.555260 -0.149749
H32   H     H_    0.668942 0.137468 0.374385 0.126782
H33   H     H_    0.815293 0.202411 0.373927 0.137168
H34   H     H_    0.904515 0.179751 0.488020 0.116842
H35   H     H_    0.845791 0.092715 0.604089 0.130645
H36   H     H_    0.698433 0.028666 0.606542 0.128514
C73   C     C_R   0.340672 0.106435 0.480565 0.147136
C74   C     C_R   0.330417 0.156248 0.412379 -0.160478
C75   C     C_R   0.254457 0.209204 0.409626 -0.119265
C76   C     C_R   0.188169 0.212585 0.474680 -0.105818
C77   C     C_R   0.197781 0.163017 0.542619 -0.145294
C78   C     C_R   0.273821 0.110236 0.545756 -0.122061
H37   H     H_    0.381383 0.154152 0.361635 0.121812
H38   H     H_    0.247011 0.247701 0.357101 0.139300
H39   H     H_    0.129445 0.253668 0.472467 0.130848
H40   H     H_    0.146457 0.165751 0.593001 0.122990
H41   H     H_    0.280922 0.072728 0.598997 0.121211
C79   C     C_R   0.662026 0.894783 0.494972 0.141212
C80   C     C_R   0.726329 0.890707 0.427842 -0.124444
C81   C     C_R   0.802647 0.837813 0.428574 -0.149081
C82   C     C_R   0.815142 0.788521 0.496095 -0.106237
C83   C     C_R   0.751545 0.792379 0.563175 -0.114319
C84   C     C_R   0.675326 0.845440 0.562820 -0.162548
H42   H     H_    0.717012 0.928097 0.374964 0.122451
H43   H     H_    0.851949 0.834780 0.376664 0.123968
H44   H     H_    0.874047 0.747323 0.496436 0.133885
H45   H     H_    0.761261 0.754164 0.615409 0.143229
H46   H     H_    0.626478 0.847917 0.615135 0.126073
O13   O     O_3   0.892208 0.576129 0.628505 -0.795177
H47   H     H_    0.828302 0.578576 0.619938 0.335007
O14   O     O_3   0.107704 0.433403 0.368085 -0.795150
H48   H     H_    0.171867 0.431849 0.375658 0.336715
C85   C     C_R   0.075768 0.570662 0.635152 0.200740
C86   C     C_R   0.134003 0.638283 0.626258 -0.174061
C87   C     C_R   0.167290 0.671713 0.693142 -0.100092
C88   C     C_R   0.141678 0.638979 0.769297 -0.037334
C89   C     C_R   0.084278 0.571477 0.778640 -0.177551
C90   C     C_R   0.051642 0.537183 0.711911 -0.095013
H49   H     H_    0.153127 0.665326 0.567744 0.128088
H50   H     H_    0.212958 0.723048 0.686132 0.131865
H51   H     H_    0.167066 0.665468 0.820924 0.154915
H52   H     H_    0.064970 0.545713 0.837572 0.126935
H53   H     H_    0.007232 0.484803 0.720044 0.128535
C91   C     C_R   0.924642 0.438129 0.362566 0.205972
C92   C     C_R   0.937637 0.353022 0.340429 -0.087276
C93   C     C_R   0.907214 0.324806 0.270173 -0.199629
C94   C     C_R   0.863541 0.381145 0.221847 -0.045531
C95   C     C_R   0.849838 0.465784 0.243789 -0.059864
C96   C     C_R   0.880175 0.494300 0.313932 -0.175814
H54   H     H_    0.971991 0.308906 0.377150 0.124223
H55   H     H_    0.917890 0.259328 0.252969 0.127501
H56   H     H_    0.840475 0.359181 0.167391 0.152347
H57   H     H_    0.816121 0.509420 0.206275 0.141287
H58   H     H_    0.870378 0.560307 0.329702 0.123583

loop_
_geom_bond_atom_site_label_1
_geom_bond_atom_site_label_2
_ccdc_geom_bond_type
O4    Zn1   S    
C22   O8    A    
C41   C42   A    
O10   H14   S    
C74   C75   A    
C27   C29   A    
C65   H30   S    
C40   C41   A    
C35   C36   D    
C1    C11   S    
C80   H42   S    
C2    C12   S    
C76   C77   A    
C67   C68   A    
O14   H48   S    
C57   H21   S    
C49   C50   A    
C15   C19   S    
C94   C95   A    
C73   C74   A    
C43   C48   A    
C74   H37   S    
C7    C67   S    
C36   H1    S    
C63   H28   S    
C24   C26   A    
C48   H12   S    
C81   H43   S    
C62   H27   S    
C64   C65   A    
C46   H10   S    
C32   C55   S    
C87   H50   S    
C69   C70   A    
C37   C42   A    
O9    H13   S    
C56   H20   S    
C75   H38   S    
O13   H47   S    
C58   H22   S    
C71   C72   A    
C73   C78   A    
C1    O3    A    
C92   C93   A    
C2    O4    A    
C23   C33   A    
C85   C86   A    
C31   C33   A    
C61   C66   A    
C68   H32   S    
C67   C72   A    
C16   C20   S    
C4    C79   S    
C47   C48   A    
C95   H57   S    
C41   H6    S    
C14   C17   A    
C93   H55   S    
C4    C7    A    
C50   H15   S    
O1    Zn1   S    
C62   C63   A    
C9    C12   T    
C33   O10   S    
C59   H23   S    
C31   C49   S    
O7    Zn2   S    
C21   O5    A    
C40   H5    S    
C82   C83   A    
C69   H33   S    
C37   C38   A    
O12   H26   S    
C35   H2    S    
C83   C84   A    
C13   C85   S    
C4    C6    A    
C18   O13   S    
C81   C82   A    
C58   C59   A    
C5    C7    A    
C20   N1    T    
C55   C60   A    
C50   C51   A    
C52   C53   A    
C6    C8    A    
C72   H36   S    
C27   O12   S    
C91   C92   A    
C53   C54   A    
C51   C52   A    
C32   C34   A    
C66   H31   S    
C14   C91   S    
C70   H34   S    
C25   C37   S    
C5    C9    S    
C52   H17   S    
C82   H44   S    
C47   H11   S    
O5    Zn1   S    
C65   C66   A    
C43   C44   A    
C85   C90   A    
C55   C56   A    
N2    Zn1   S    
C88   C89   A    
C84   H46   S    
O2    Zn2   S    
C13   C18   A    
C28   O11   S    
C1    O1    A    
O8    Zn1   S    
C22   O6    A    
C78   H41   S    
C90   H53   S    
C3    C8    A    
C10   C11   T    
C21   C23   S    
C95   C96   A    
C22   C24   S    
C75   C76   A    
C56   C57   A    
C61   C62   A    
C38   C39   A    
C77   C78   A    
C80   C81   A    
C94   H56   S    
C15   C17   A    
O6    Zn2   S    
C44   H8    S    
C93   C94   A    
C89   H52   S    
C17   O14   S    
C53   H18   S    
C79   C80   A    
C3    C5    A    
C83   H45   S    
C6    C10   S    
C38   H3    S    
C39   H4    S    
C3    C73   S    
O3    Zn2   S    
C39   C40   A    
C96   H58   S    
C30   C36   S    
C25   C27   A    
C45   H9    S    
C63   C64   A    
C29   C35   S    
C26   C28   A    
O11   H25   S    
C64   H29   S    
C45   C46   A    
C13   C15   A    
C92   H54   S    
C26   C43   S    
C88   H51   S    
C29   C31   A    
C76   H39   S    
C30   C32   A    
C57   C58   A    
C51   H16   S    
C49   C54   A    
C2    O2    A    
C28   C30   A    
C59   C60   A    
C79   C84   A    
C86   H49   S    
C14   C16   A    
C71   H35   S    
C23   C25   A    
C8    C61   S    
C24   C34   A    
C77   H40   S    
C91   C96   A    
C19   N2    T    
C34   O9    S    
C44   C45   A    
N1    Zn2   S    
C86   C87   A    
C16   C18   A    
C46   C47   A    
C89   C90   A    
C42   H7    S    
C68   C69   A    
C87   C88   A    
C70   C71   A    
C60   H24   S    
C54   H19   S    
C21   O7    A    
