data_mof_unit_40189.cif
_audit_creation_date              2012-12-11T14:50:39-0500
_audit_creation_method            fapswitch 2.2
_symmetry_space_group_name_H-M    P1
_symmetry_Int_Tables_number       1
_space_group_crystal_system       triclinic
_cell_length_a                    10.925007
_cell_length_b                    10.855638
_cell_length_c                    18.806228
_cell_angle_alpha                 90.326474
_cell_angle_beta                  89.826645
_cell_angle_gamma                 60.160692
_cell_volume                      1934.6098435

loop_
_atom_site_label
_atom_site_type_symbol
_atom_type_description
_atom_site_fract_x
_atom_site_fract_y
_atom_site_fract_z
_atom_type_partial_charge
C1    C     C_R   0.294556 0.621308 0.615444 0.566734
C2    C     C_R   0.560245 0.188798 0.789936 -0.120153
C3    C     C_R   0.550408 0.193228 0.717750 -0.156892
C4    C     C_R   0.656933 0.625810 0.599151 0.570866
C5    C     C_R   0.661843 0.180766 0.676048 0.029207
C6    C     C_R   0.248044 0.526763 0.726962 -0.073876
C7    C     C_R   0.216782 0.539320 0.799567 0.198100
C8    C     C_R   0.194873 0.662086 0.837048 0.051603
C9    C     C_R   0.219674 0.761810 0.802167 -0.173053
C10   C     C_R   0.250493 0.748402 0.730309 -0.160683
C11   C     C_R   0.261270 0.632898 0.691588 0.014885
C12   C     C_3   0.638059 0.613166 0.800919 0.109703
C13   C     C_R   0.696030 0.528612 0.270084 -0.109658
C14   C     C_R   0.697925 0.545347 0.197364 -0.125649
C15   C     C_R   0.653720 0.679601 0.169705 0.012531
C16   C     C_R   0.627946 0.228656 0.603048 0.547466
C17   C     C_R   0.600971 0.798675 0.215393 -0.101574
C18   C     C_R   0.599696 0.781670 0.288725 -0.083911
C19   C     C_R   0.649672 0.645868 0.316205 0.038357
C20   C     C_R   0.529044 0.192721 0.283239 -0.190864
C21   C     C_R   0.533458 0.188862 0.210563 -0.201141
C22   C     C_R   0.655196 0.165706 0.175161 -0.016946
C23   C     C_3   0.725247 0.691074 0.807125 0.012654
C24   C     C_R   0.771447 0.156144 0.213919 0.226072
C25   C     C_R   0.769477 0.151823 0.287731 0.223650
C26   C     C_R   0.645100 0.177420 0.322413 -0.014257
C27   C     C_R   0.232222 0.743003 0.279390 0.256050
C28   C     C_R   0.231182 0.646127 0.398082 0.589296
C29   C     C_R   0.224833 0.733703 0.207271 -0.070212
C30   C     C_R   0.165313 0.658096 0.178193 -0.019284
C31   C     C_R   0.137161 0.568795 0.220162 -0.148262
C32   C     C_R   0.156462 0.566773 0.292928 -0.175114
C33   C     C_R   0.198413 0.657859 0.323396 0.034199
C34   C     C_3   0.682781 0.656569 0.672865 0.031776
C35   C     C_R   0.702459 0.101387 0.895842 0.562889
C36   C     C_R   0.753845 0.709773 0.882655 0.561623
C37   C     C_R   0.120643 0.704666 0.905917 0.554286
C38   C     C_R   0.674958 0.109972 0.103409 0.570035
C39   C     C_R   0.694940 0.691030 0.097693 0.557760
C40   C     C_R   0.641645 0.621851 0.391527 0.549712
C41   C     C_R   0.098059 0.705676 0.110772 0.551891
C42   C     C_R   0.617862 0.227360 0.395185 0.574977
C43   C     C_3   0.639847 0.837431 0.769377 -0.281847
C44   C     C_3   0.601040 0.816778 0.692753 -0.232941
C45   C     C_3   0.843518 0.596398 0.686660 0.094452
C46   C     C_3   0.867740 0.606794 0.766658 -0.196554
C47   C     C_3   0.631995 0.576554 0.722435 -0.234052
C48   C     C_R   0.789347 0.151944 0.708369 -0.117088
C49   C     C_R   0.803931 0.133481 0.782133 -0.090097
C50   C     C_R   0.687969 0.152778 0.823266 0.066413
Cl1   Cl    Cl    0.199548 0.402080 0.839498 -0.652554
Cl2   Cl    Cl    0.920572 0.151443 0.172861 -0.512454
Cl3   Cl    Cl    0.923998 0.112633 0.335706 -0.458630
Cl4   Cl    Cl    0.276111 0.871390 0.308445 -0.510139
Cl5   Cl    Cl    0.914061 0.684966 0.634475 -0.619705
Cl6   Cl    Cl    0.701549 0.455441 0.853200 -0.601099
Cr1   Cr    Cr6+3 0.392930 0.397900 0.502230 1.054553
Cr2   Cr    Cr6+3 0.398240 0.708600 0.501260 1.088824
Cr3   Cr    Cr6+3 0.708800 0.393470 0.496460 1.089705
Cr4   Cr    Cr6+3 0.937620 0.938540 0.007640 1.104871
Cr5   Cr    Cr6+3 0.625150 0.937450 0.994520 1.053736
Cr6   Cr    Cr6+3 0.937990 0.625080 0.001190 1.116426
H1    H     H_    0.704487 0.890432 0.767339 0.149400
H2    H     H_    0.739241 0.453114 0.162771 0.181944
H3    H     H_    0.568973 0.903225 0.194808 0.148470
H4    H     H_    0.561384 0.873235 0.323726 0.152476
H5    H     H_    0.443305 0.197332 0.182282 0.170896
H6    H     H_    0.485467 0.857537 0.689876 0.117402
H7    H     H_    0.134156 0.498184 0.325520 0.158240
H8    H     H_    0.932082 0.658928 0.775019 0.161297
H9    H     H_    0.528699 0.686376 0.820172 0.153601
H10   H     H_    0.523106 0.603277 0.709354 0.097936
H11   H     H_    0.876322 0.143849 0.676931 0.140677
H12   H     H_    0.699033 0.460144 0.713132 0.167206
H13   H     H_    0.904848 0.102156 0.806516 0.152317
H14   H     H_    0.451688 0.212006 0.695139 0.148156
H15   H     H_    0.207087 0.855779 0.829280 0.150740
H16   H     H_    0.431278 0.213162 0.308413 0.179864
H17   H     H_    0.249577 0.800185 0.174240 0.186626
H18   H     H_    0.091661 0.508618 0.197687 0.168275
H19   H     H_    0.625713 0.879744 0.654849 0.186457
H20   H     H_    0.927532 0.497629 0.788378 0.206647
H21   H     H_    0.904694 0.482110 0.671332 0.163421
H22   H     H_    0.469927 0.200518 0.819198 0.207657
H23   H     H_    0.257563 0.436211 0.697855 0.160255
H24   H     H_    0.541076 0.908940 0.799096 0.145673
H25   H     H_    0.265144 0.829531 0.704947 0.137207
H26   H     H_    0.730950 0.423495 0.290488 0.176067
O1    O     O_R   0.507430 0.255570 0.581420 -0.535986
O2    O     O_R   0.837200 0.593290 0.915250 -0.415693
O3    O     O_R   0.065330 0.635370 0.931590 -0.461261
O4    O     O_R   0.280190 0.527390 0.578910 -0.466772
O5    O     O_R   0.068300 0.828790 0.091860 -0.475596
O6    O     O_R   0.798730 0.057480 0.079370 -0.435417
O7    O     O_R   0.584680 0.080480 0.076790 -0.522124
O8    O     O_R   0.626790 0.809640 0.067050 -0.497869
O9    O     O_R   0.816010 0.596460 0.076500 -0.488403
O10   O     O_R   0.045680 0.638310 0.081070 -0.505847
O11   O     O_3   0.833590 0.833690 0.001120 -0.305431
O12   O     O_R   0.524460 0.695920 0.424060 -0.471646
O13   O     O_R   0.260310 0.739740 0.584580 -0.492515
O14   O     O_R   0.532250 0.695150 0.573830 -0.532497
O15   O     O_R   0.744930 0.503430 0.576380 -0.509744
O16   O     O_R   0.699250 0.276390 0.571950 -0.502047
O17   O     O_R   0.499020 0.256400 0.419850 -0.527469
O18   O     O_R   0.272400 0.528160 0.429140 -0.507542
O19   O     O_R   0.251910 0.740570 0.423020 -0.424261
O20   O     O_R   0.736530 0.504260 0.414810 -0.492272
O21   O     O_R   0.691460 0.277160 0.422180 -0.450049
O22   O     O_3   0.499990 0.499990 0.499980 -0.307456
O23   O     O_R   0.089490 0.825610 0.930610 -0.534695
O24   O     O_R   0.818370 0.054540 0.929880 -0.489456
O25   O     O_R   0.605870 0.077310 0.915530 -0.528011
O26   O     O_R   0.646440 0.806700 0.917570 -0.505462

loop_
_geom_bond_atom_site_label_1
_geom_bond_atom_site_label_2
_ccdc_geom_bond_type
C24   Cl2   S    
Cr1   O17   S    
Cr1   O4    S    
C27   C29   A    
C2    H22   S    
C1    C11   S    
Cr4   O11   S    
C36   O26   A    
Cr5   O8    S    
C43   H1    S    
C7    C8    A    
Cr5   O11   S    
C45   C46   S    
C27   C33   A    
C12   C23   S    
C6    H23   S    
Cr1   O1    S    
Cr3   O16   S    
C42   O21   A    
C25   Cl3   S    
C18   C19   A    
C30   C31   A    
C39   O9    A    
C28   O19   A    
C22   C38   S    
C4    O15   A    
Cr3   O22   S    
C23   C43   S    
Cr2   O19   S    
C5    C16   S    
C2    C50   A    
Cr6   O10   S    
C16   O16   A    
C41   O5    A    
Cr1   O22   S    
C28   O18   A    
C8    C9    A    
C4    O14   A    
C38   O7    A    
C49   H13   S    
C30   C41   S    
Cr2   O14   S    
C9    C10   A    
C40   O20   A    
Cr4   O5    S    
Cr1   O18   S    
C16   O1    A    
C23   C46   S    
C46   H20   S    
C21   C22   A    
C21   H5    S    
C45   H21   S    
C12   C47   S    
C6    C7    A    
C47   H10   S    
C5    C48   A    
C4    C34   S    
C10   H25   S    
C27   Cl4   S    
C46   H8    S    
C37   O3    A    
C31   H18   S    
C34   C44   S    
C24   C25   A    
C44   H19   S    
C10   C11   A    
C6    C11   A    
Cr2   O13   S    
C13   C19   A    
C25   C26   A    
C43   C44   S    
C29   C30   A    
Cr4   O24   S    
Cr6   O9    S    
C31   C32   A    
C29   H17   S    
C14   H2    S    
Cr6   O3    S    
C38   O6    A    
C35   C50   S    
C14   C15   A    
C17   C18   A    
Cr2   O12   S    
C34   C45   S    
C9    H15   S    
C3    H14   S    
C15   C39   S    
C12   Cl6   S    
C48   C49   A    
C12   H9    S    
C28   C33   S    
C23   C36   S    
C1    O4    A    
Cr5   O25   S    
C22   C24   A    
C44   H6    S    
C8    C37   S    
C1    O13   A    
C26   C42   S    
C36   O2    A    
C15   C17   A    
Cr2   O22   S    
C43   H24   S    
C48   H11   S    
C47   H12   S    
C3    C5    A    
C40   O12   A    
Cr5   O7    S    
C32   H7    S    
C18   H4    S    
C17   H3    S    
Cr3   O20   S    
C20   H16   S    
Cr3   O15   S    
C32   C33   A    
C2    C3    A    
C7    Cl1   S    
Cr4   O23   S    
C20   C26   A    
Cr6   O2    S    
C13   H26   S    
Cr3   O21   S    
C35   O25   A    
C42   O17   A    
C39   O8    A    
C37   O23   A    
C19   C40   S    
Cr6   O11   S    
C20   C21   A    
C45   Cl5   S    
C49   C50   A    
Cr5   O26   S    
C41   O10   A    
C34   C47   S    
C13   C14   A    
C35   O24   A    
Cr4   O6    S    
