data_mof_unit_57659.cif
_audit_creation_date              2012-12-11T18:07:23-0500
_audit_creation_method            fapswitch 2.2
_symmetry_space_group_name_H-M    P1
_symmetry_Int_Tables_number       1
_space_group_crystal_system       triclinic
_cell_length_a                    8.236801
_cell_length_b                    12.703559
_cell_length_c                    26.982628
_cell_angle_alpha                 96.686966
_cell_angle_beta                  92.93024
_cell_angle_gamma                 81.201263
_cell_volume                      2769.56961917

loop_
_atom_site_label
_atom_site_type_symbol
_atom_type_description
_atom_site_fract_x
_atom_site_fract_y
_atom_site_fract_z
_atom_type_partial_charge
Ba1   Ba    Ba6+2 0.859560 0.448380 0.523550 1.667725
Ba2   Ba    Ba6+2 0.330270 0.551530 0.476440 1.666341
C1    C     C_3   0.945885 0.230864 0.754791 -0.341202
C2    C     C_R   0.948459 0.621213 0.183219 0.591170
C3    C     C_2   0.772271 0.593955 0.275454 -0.118113
C4    C     C_3   0.268417 0.183962 0.655192 0.355622
C5    C     C_3   0.740808 0.613885 0.330778 -0.069610
C6    C     C_1   0.984349 0.481000 0.343365 0.033159
C7    C     C_2   0.027877 0.478173 0.296199 -0.085086
C8    C     C_2   0.914467 0.534920 0.258859 0.223418
C9    C     C_R   0.022982 0.516919 0.103585 -0.080711
C10   C     C_R   0.034086 0.422880 0.127412 -0.031041
C11   C     C_R   0.077707 0.323720 0.099245 -0.063635
C12   C     C_3   0.799684 0.294264 0.730025 0.261788
C13   C     C_R   0.979793 0.616633 0.131876 -0.028287
C14   C     C_2   0.844066 0.533614 0.360426 -0.244228
C15   C     C_2   0.335783 0.450429 0.638130 -0.241473
C16   C     C_3   0.340260 0.109246 0.693580 -0.382768
C17   C     C_R   0.140791 0.404969 0.972194 0.020019
C18   C     C_R   0.066142 0.601141 0.975436 0.019886
C19   C     C_R   0.120120 0.500361 0.948126 0.048572
C20   C     C_R   0.200151 0.307265 0.943647 -0.103373
C21   C     C_R   0.235700 0.303213 0.893531 -0.069267
C22   C     C_R   0.213720 0.396181 0.869200 -0.026444
C23   C     C_3   0.486421 0.705459 0.626501 0.271734
C24   C     C_R   0.154660 0.494904 0.896212 -0.079889
C25   C     C_R   0.131258 0.588126 0.871390 -0.035561
C26   C     C_R   0.168171 0.581450 0.820146 0.590622
C27   C     C_R   0.251671 0.391925 0.818445 0.565205
C28   C     C_3   0.219759 0.223631 0.417614 0.291576
C29   C     C_2   0.423073 0.426176 0.727454 -0.099054
C30   C     C_3   0.454027 0.388418 0.672739 -0.093896
C31   C     C_1   0.200988 0.511681 0.655069 0.051086
C32   C     C_2   0.155790 0.519893 0.702322 -0.100128
C33   C     C_2   0.274337 0.477515 0.741882 0.210345
C34   C     C_3   0.482080 0.729783 0.682967 -0.350128
C35   C     C_R   0.103119 0.410157 0.023728 0.020299
C36   C     C_R   0.055130 0.511326 0.051492 0.049138
C37   C     C_R   0.039005 0.607002 0.027771 0.019713
C38   C     C_R   0.111419 0.317306 0.048782 -0.101588
C39   C     C_R   0.969072 0.710279 0.108375 -0.063571
C40   C     C_3   0.245344 0.102849 0.404683 -0.381887
C41   C     C_R   0.040703 0.692839 0.949079 -0.100862
C42   C     C_R   0.072455 0.686284 0.898424 -0.063572
C43   C     C_R   0.997648 0.705789 0.057682 -0.101579
C44   C     C_R   0.764563 0.821363 0.483583 -0.246670
C45   C     C_3   0.929448 0.865053 0.346685 0.313863
C46   C     C_R   0.431704 0.189293 0.519710 -0.301638
C47   C     C_R   0.406167 0.009596 0.534983 -0.115719
C48   C     C_R   0.343098 0.117536 0.537437 -0.027525
C49   C     C_R   0.576584 0.152853 0.494438 0.071822
C50   C     C_R   0.639586 0.041342 0.489169 -0.026721
C51   C     C_R   0.554464 0.969620 0.511079 -0.032094
C52   C     C_3   0.959809 0.789449 0.597349 0.324981
C53   C     C_R   0.620308 0.859867 0.508599 0.064928
C54   C     C_R   0.849313 0.890158 0.462275 -0.016415
C55   C     C_R   0.786148 0.999136 0.463995 -0.064072
C56   C     C_3   0.953966 0.891995 0.294085 -0.157416
C57   C     C_3   0.906356 0.899137 0.627052 0.309394
C58   C     C_3   0.687906 0.295336 0.370331 0.298742
C59   C     C_3   0.629544 0.265118 0.316279 -0.242317
C60   C     C_3   0.722211 0.053647 0.617397 0.245063
C61   C     C_3   0.053657 0.936976 0.657540 -0.280083
C62   C     C_3   0.719115 0.312165 0.278234 -0.442397
C63   C     C_3   0.995856 0.004986 0.294154 -0.409677
C64   C     C_3   0.462733 0.829779 0.340346 0.368991
C65   C     C_3   0.484539 0.885989 0.294907 -0.417288
C66   C     C_R   0.999257 0.429669 0.178768 0.587264
H1    H     H_    0.690615 0.255390 0.735142 0.006102
H2    H     H_    0.952509 0.144438 0.741802 0.098703
H3    H     H_    0.649874 0.176534 0.307305 0.127509
H4    H     H_    0.495151 0.292308 0.312208 0.142150
H5    H     H_    0.787136 0.377650 0.748996 0.033620
H6    H     H_    0.933684 0.242165 0.795944 0.082398
H7    H     H_    0.363373 0.689492 0.612072 0.031942
H8    H     H_    0.577938 0.633086 0.617305 0.091764
H9    H     H_    0.392377 0.802681 0.693236 0.118631
H10   H     H_    0.444965 0.661365 0.699458 0.084942
H11   H     H_    0.605792 0.743143 0.698411 0.127514
H12   H     H_    0.320906 0.080923 0.371096 0.108635
H13   H     H_    0.059369 0.259753 0.745619 0.163302
H14   H     H_    0.443639 0.142100 0.714906 0.104335
H15   H     H_    0.889487 0.785103 0.343565 -0.011848
H16   H     H_    0.831741 0.926213 0.364103 -0.039300
H17   H     H_    0.054374 0.833261 0.276487 0.175427
H18   H     H_    0.839057 0.885909 0.271348 0.109521
H19   H     H_    0.582782 0.818063 0.361435 -0.113119
H20   H     H_    0.376646 0.883530 0.365562 0.090009
H21   H     H_    0.571094 0.833283 0.269297 0.123526
H22   H     H_    0.534348 0.961807 0.306744 0.072947
H23   H     H_    0.309591 0.062329 0.435756 0.075307
H24   H     H_    0.217486 0.262656 0.674861 0.064168
H25   H     H_    0.364856 0.904433 0.274605 0.131624
H26   H     H_    0.145422 0.434050 0.284304 0.112747
H27   H     H_    0.085965 0.249762 0.116208 0.118062
H28   H     H_    0.510171 0.398768 0.756044 0.074611
H29   H     H_    0.281534 0.225964 0.873802 0.119675
H30   H     H_    0.223783 0.231756 0.959028 0.067407
H31   H     H_    0.141477 0.237375 0.030356 0.066079
H32   H     H_    0.685825 0.634762 0.249732 0.098239
H33   H     H_    0.937776 0.788400 0.129229 0.116967
H34   H     H_    0.124388 0.074724 0.397494 0.135450
H35   H     H_    0.993919 0.771610 0.966323 0.066542
H36   H     H_    0.372372 0.195114 0.632544 -0.115203
H37   H     H_    0.051183 0.759371 0.880457 0.118412
H38   H     H_    0.031844 0.555318 0.712432 0.118789
H39   H     H_    0.988692 0.782103 0.043318 0.066691
H40   H     H_    0.807707 0.528088 0.398034 0.066184
H41   H     H_    0.349927 0.428869 0.598313 0.076696
H42   H     H_    0.337110 0.958513 0.551962 0.103864
H43   H     H_    0.854437 0.049023 0.446044 0.088010
H44   H     H_    0.815108 0.737334 0.482475 0.051917
H45   H     H_    0.849737 0.754091 0.583056 -0.024649
H46   H     H_    0.382146 0.273637 0.522922 0.064918
H47   H     H_    0.246148 0.100615 0.720095 0.130586
H48   H     H_    0.386862 0.028808 0.674636 0.101870
H49   H     H_    0.339888 0.250336 0.426941 0.017080
H50   H     H_    0.138898 0.244159 0.450102 0.058893
H51   H     H_    0.762726 0.087304 0.655010 0.031211
H52   H     H_    0.607637 0.019377 0.620386 -0.000317
H53   H     H_    0.694870 0.121325 0.594389 0.077995
H54   H     H_    0.093957 0.885191 0.687638 0.095637
H55   H     H_    0.158144 0.935533 0.632892 0.126993
H56   H     H_    0.035850 0.798478 0.565658 0.031619
H57   H     H_    0.019497 0.018754 0.676137 0.125749
H58   H     H_    0.853934 0.287399 0.282403 0.158339
H59   H     H_    0.678165 0.282991 0.239932 0.161157
H60   H     H_    0.689669 0.400279 0.283107 0.141720
H61   H     H_    0.121305 0.009100 0.310283 0.148279
H62   H     H_    0.992008 0.025895 0.255248 0.134942
H63   H     H_    0.906862 0.064422 0.316155 0.132181
H64   H     H_    0.812800 0.887043 0.653641 0.026320
H65   H     H_    0.821787 0.298450 0.372312 0.013530
H66   H     H_    0.620059 0.374836 0.384313 0.060964
N1    N     N_R   0.955910 0.528302 0.206266 -0.419668
N2    N     N_R   0.229097 0.484012 0.794137 -0.422080
O1    O     O_2   0.907040 0.557650 0.617910 -0.447377
O2    O     O_2   0.187581 0.882495 0.465822 -0.479813
O3    O     O_3   0.078342 0.863148 0.374428 -0.588571
O4    O     O_3   0.139040 0.557570 0.557730 -0.493704
O5    O     O_3   0.571310 0.369620 0.475470 -0.488884
O6    O     O_2   0.348200 0.764910 0.523260 -0.459560
O7    O     O_3   0.529292 0.793613 0.606155 -0.660689
O8    O     O_2   0.443443 0.526131 0.324875 -0.489906
O9    O     O_3   0.394300 0.735384 0.324835 -0.558644
O10   O     O_2   0.005288 0.347523 0.198698 -0.613826
O11   O     O_2   0.305214 0.305573 0.795848 -0.633681
O12   O     O_3   0.657333 0.213982 0.397673 -0.660286
O13   O     O_2   0.915207 0.708487 0.207501 -0.633239
O14   O     O_2   0.148943 0.662765 0.799069 -0.601765
O15   O     O_3   0.684960 0.360550 0.588460 -0.454839
O16   O     O_2   0.721032 0.494966 0.670543 -0.505149
O17   O     O_3   0.053612 0.726032 0.630310 -0.679903
O18   O     O_3   0.825366 0.292370 0.678857 -0.568397
O19   O     O_2   0.841490 0.235060 0.476710 -0.477009
O20   O     O_3   0.099640 0.305100 0.564190 -0.478361
O21   O     O_2   0.002386 0.115984 0.537748 -0.441384
O22   O     O_3   0.843047 0.975150 0.593944 -0.647101
O23   O     O_3   0.139749 0.141339 0.627219 -0.573903
O24   O     O_2   0.282660 0.442310 0.382060 -0.453677
O25   O     O_3   0.050670 0.442340 0.442260 -0.498058
O26   O     O_3   0.504750 0.639360 0.411530 -0.459035
O27   O     O_3   0.148752 0.270688 0.375916 -0.638042
O28   O     O_3   0.618400 0.630290 0.524520 -0.481295
O29   O     O_3   0.090070 0.694820 0.435810 -0.458745
P1    P     P_3+3 0.072810 0.589830 0.610360 0.982244
P2    P     P_3+3 0.661990 0.251250 0.462170 0.968973
P3    P     P_3+3 0.144686 0.167621 0.565245 1.016264
P4    P     P_3+3 0.116900 0.410080 0.389630 0.981353
P5    P     P_3+3 0.048740 0.834226 0.434839 0.977361
P6    P     P_3+3 0.670636 0.383881 0.653758 0.949611
P7    P     P_3+3 0.532402 0.764068 0.541221 0.936358
P8    P     P_3+3 0.520613 0.625796 0.346727 0.982986

loop_
_geom_bond_atom_site_label_1
_geom_bond_atom_site_label_2
_ccdc_geom_bond_type
C19   C24   A    
C26   O14   D    
C20   H30   S    
C44   H44   S    
O17   P1    S    
C59   C62   S    
C49   P2    S    
C31   P1    S    
C6    P4    S    
Ba2   O26   S    
C52   O17   S    
C63   H62   S    
C66   O10   D    
O26   P8    S    
C42   H37   S    
O23   P3    S    
C40   H12   S    
C2    O13   D    
C10   C66   A    
C24   C25   A    
C11   H27   S    
O6    P7    D    
C17   C19   A    
C22   C24   A    
O7    P7    S    
Ba1   Ba2   S    
C35   C38   A    
C34   H9    S    
C64   H20   S    
C36   C37   A    
C57   O22   S    
C47   C51   A    
O2    P5    D    
O20   P3    S    
C29   H28   S    
C52   H45   S    
C40   H34   S    
C65   H21   S    
O15   P6    S    
C54   C55   A    
Ba2   O25   S    
O3    P5    S    
C32   C33   S    
Ba1   O19   S    
C1    H6    S    
C22   C27   A    
C64   O9    S    
C17   C35   A    
C9    C13   A    
C25   C42   A    
C46   C49   A    
Ba1   O28   S    
O19   P2    D    
C6    C7    D    
C62   H60   S    
C44   C53   A    
C1    H13   S    
O24   P4    D    
C60   O22   S    
C45   H15   S    
C7    C8    S    
C60   H52   S    
C37   C43   A    
Ba1   O20   S    
O25   P4    S    
C59   H3    S    
C46   C48   A    
C64   C65   S    
Ba1   O25   S    
C6    C14   D    
C12   O18   S    
C23   O7    S    
C15   C31   D    
C28   O27   S    
C38   H31   S    
C56   H18   S    
O21   P3    D    
O1    P1    D    
C63   H63   S    
C4    O23   S    
C52   C57   S    
C51   C53   A    
O4    P1    S    
C4    C16   S    
C57   H64   S    
O5    P2    S    
C15   C30   S    
C49   C50   A    
C32   H38   S    
C12   H5    S    
C17   C20   A    
C8    N1    S    
C13   C39   A    
C16   H48   S    
C64   H19   S    
C3    C5    S    
O16   P6    D    
C28   H50   S    
C65   H22   S    
C58   C59   S    
C23   H7    S    
C33   N2    S    
C9    C36   A    
C41   C42   A    
C35   C36   A    
C58   H65   S    
C56   C63   S    
C63   H61   S    
C29   C30   S    
C3    H32   S    
C21   C22   A    
C62   H59   S    
C1    H2    S    
C31   C32   D    
C45   H16   S    
C18   C19   A    
Ba1   O4    S    
Ba2   O29   S    
C60   H51   S    
C61   H57   S    
C1    C12   S    
C2    N1    Am   
C59   H4    S    
C5    C14   S    
C21   H29   S    
C30   P6    S    
O9    P8    S    
C62   H58   S    
C48   P3    S    
Ba2   O6    S    
C12   H1    S    
C29   C33   D    
O28   P7    S    
C45   O3    S    
Ba2   O28   S    
C11   C38   A    
C56   H17   S    
C58   H66   S    
C53   P7    S    
C18   C41   A    
Ba1   O1    S    
C50   C51   A    
C46   H46   S    
O29   P5    S    
C18   C37   A    
C52   H56   S    
C39   C43   A    
C54   P5    S    
C26   N2    Am   
C66   N1    Am   
C34   H11   S    
C15   H41   S    
C16   H47   S    
C27   O11   D    
C61   H55   S    
C9    C10   A    
O12   P2    S    
C28   H49   S    
C57   C61   S    
C4    H36   S    
C23   H8    S    
Ba2   O4    S    
C2    C13   A    
C3    C8    D    
C34   H10   S    
C45   C56   S    
C61   H54   S    
C55   H43   S    
Ba1   P1    S    
C4    H24   S    
C5    P8    S    
O8    P8    D    
C16   H14   S    
C39   H33   S    
O18   P6    S    
Ba1   O15   S    
O27   P4    S    
Ba2   P4    S    
C41   H35   S    
Ba1   O5    S    
C50   C55   A    
C14   H40   S    
C23   C34   S    
C43   H39   S    
C27   N2    Am   
C10   C11   A    
Ba2   O24   S    
C47   C48   A    
C44   C54   A    
C25   C26   A    
C65   H25   S    
Ba2   O5    S    
Ba1   P2    S    
C20   C21   A    
C28   C40   S    
C58   O12   S    
C7    H26   S    
C60   H53   S    
C40   H23   S    
C47   H42   S    
