data_mof_unit_66943.cif
_audit_creation_date              2013-03-05T15:57:30-0500
_audit_creation_method            fapswitch 2.2
_symmetry_space_group_name_H-M    P1
_symmetry_Int_Tables_number       1
_space_group_crystal_system       triclinic
_cell_length_a                    17.21779
_cell_length_b                    18.759962
_cell_length_c                    8.544127
_cell_angle_alpha                 89.881822
_cell_angle_beta                  101.845019
_cell_angle_gamma                 89.97101
_cell_volume                      2701.02353401

loop_
_atom_site_label
_atom_site_type_symbol
_atom_site_description
_atom_site_fract_x
_atom_site_fract_y
_atom_site_fract_z
_atom_type_partial_charge
P1    P     P_3+3 0.834140 0.419320 0.003900 0.418218
P2    P     P_3+3 0.834140 0.580680 0.503900 0.415179
P3    P     P_3+3 0.334140 0.919320 0.003900 0.418218
P4    P     P_3+3 0.334140 0.080680 0.503900 0.415578
O1    O     O_2   0.841960 0.394640 0.833410 -0.379388
O2    O     O_2   0.841960 0.605360 0.333410 -0.383404
O3    O     O_2   0.341960 0.894640 0.833410 -0.393053
O4    O     O_2   0.341960 0.105360 0.333410 -0.391183
O5    O     O_3   0.907950 0.463080 0.102990 -0.431847
O6    O     O_3   0.907950 0.536920 0.602990 -0.422835
O7    O     O_3   0.407950 0.963080 0.102990 -0.444461
O8    O     O_3   0.407950 0.036920 0.602990 -0.433685
O9    O     O_3   0.972780 0.329600 0.629720 -0.371948
O10   O     O_3   0.972780 0.670400 0.129720 -0.390166
O11   O     O_3   0.472780 0.829600 0.629720 -0.368277
O12   O     O_3   0.472780 0.170400 0.129720 -0.412572
O13   O     O_2   0.845141 0.260519 0.696949 -0.418638
O14   O     O_2   0.831790 0.713618 0.167619 -0.394771
O15   O     O_2   0.338639 0.769310 0.689563 -0.431178
O16   O     O_2   0.336847 0.223493 0.183824 -0.395048
O17   O     O_3   0.754502 0.478207 0.947790 -0.618303
O18   O     O_3   0.755351 0.521248 0.448659 -0.600909
O19   O     O_3   0.248655 0.972781 0.941337 -0.599572
O20   O     O_3   0.252331 0.024238 0.437677 -0.599566
O21   O     O_3   0.943780 0.178050 0.573395 -0.657590
O22   O     O_3   0.926551 0.817233 0.161669 -0.583231
O23   O     O_3   0.434714 0.678548 0.589848 -0.650253
O24   O     O_3   0.436434 0.319192 0.130420 -0.572213
H1    H     H_    0.934104 0.167229 0.812125 0.070434
H2    H     H_    0.045666 0.791462 0.193620 0.026680
H3    H     H_    0.436656 0.687505 0.834561 0.061897
H4    H     H_    0.513766 0.289280 0.979654 -0.102479
C1    C     C_3   0.971408 0.069500 0.724185 -1.178614
C2    C     C_3   0.027114 0.902952 0.239499 -1.098867
C3    C     C_3   0.462687 0.582018 0.775350 -1.064564
C4    C     C_3   0.575667 0.322855 0.212900 -0.923193
H5    H     H_    0.494341 0.567527 0.897299 0.272390
H6    H     H_    0.574141 0.269422 0.266826 0.281591
H7    H     H_    0.020274 0.047767 0.673023 0.269644
H8    H     H_    0.092492 0.906188 0.278429 0.224755
H9    H     H_    0.977078 0.047822 0.846792 0.244565
H10   H     H_    0.003098 0.902722 0.348521 0.284300
H11   H     H_    0.400016 0.566507 0.763492 0.287495
H12   H     H_    0.570283 0.364805 0.300361 0.271982
P5    P     P_3+3 0.165830 0.418670 0.685610 0.499051
P6    P     P_3+3 0.165830 0.581330 0.185610 0.477376
P7    P     P_3+3 0.665830 0.918670 0.685610 0.546577
P8    P     P_3+3 0.665830 0.081330 0.185610 0.528677
P9    P     P_3+3 0.100772 0.265448 0.119253 0.508351
P10   P     P_3+3 0.095319 0.739425 0.613656 0.437358
P11   P     P_3+3 0.600664 0.765311 0.120445 0.504768
P12   P     P_3+3 0.599582 0.235614 0.618368 0.428923
O25   O     O_2   0.157990 0.394030 0.856030 -0.434398
O26   O     O_2   0.157990 0.605970 0.356030 -0.373307
O27   O     O_2   0.657990 0.894030 0.856030 -0.364562
O28   O     O_2   0.657990 0.105970 0.356030 -0.399310
O29   O     O_3   0.027110 0.329490 0.059550 -0.321476
O30   O     O_3   0.027110 0.670510 0.559550 -0.368465
O31   O     O_3   0.527110 0.829490 0.059550 -0.326900
O32   O     O_3   0.527110 0.170510 0.559550 -0.366556
O33   O     O_2   0.154330 0.265541 0.994202 -0.347125
O34   O     O_2   0.151237 0.737333 0.492972 -0.386630
O35   O     O_2   0.654226 0.764591 0.995301 -0.341515
O36   O     O_2   0.661960 0.226383 0.513054 -0.386243
O37   O     O_3   0.250432 0.472645 0.727050 -0.538988
O38   O     O_3   0.251487 0.528912 0.221565 -0.567975
O39   O     O_3   0.747140 0.976639 0.726448 -0.570677
O40   O     O_3   0.751918 0.029433 0.217379 -0.580909
O41   O     O_3   0.050111 0.184193 0.091739 -0.489534
O42   O     O_3   0.042212 0.819315 0.570216 -0.560593
O43   O     O_3   0.550075 0.683865 0.096156 -0.500116
O44   O     O_3   0.554544 0.317542 0.559586 -0.561287
C5    C     C_3   0.014657 0.171525 0.223707 0.355160
C6    C     C_3   0.963004 0.807421 0.584026 0.413345
C7    C     C_3   0.514113 0.673266 0.228321 0.253342
C8    C     C_3   0.472265 0.310105 0.549052 0.397495
H13   H     H_    0.993756 0.221123 0.273692 0.100255
H14   H     H_    0.931005 0.779004 0.475767 0.146144
H15   H     H_    0.486439 0.722856 0.263063 0.114192
H16   H     H_    0.446225 0.277450 0.442930 0.178554
H17   H     H_    0.058195 0.143901 0.317708 0.061692
H18   H     H_    0.960197 0.775203 0.691683 0.110377
H19   H     H_    0.559233 0.653322 0.330630 0.062772
H20   H     H_    0.458653 0.285180 0.658700 0.056289
C9    C     C_3   0.943068 0.123294 0.173596 -0.931670
C10   C     C_3   0.920142 0.877779 0.599373 -0.958709
C11   C     C_3   0.449298 0.617262 0.188936 -0.818073
C12   C     C_3   0.432905 0.382788 0.529265 -0.931307
H21   H     H_    0.420459 0.609785 0.292716 0.251007
H22   H     H_    0.367946 0.375033 0.497051 0.277135
H23   H     H_    0.896504 0.151800 0.086936 0.251375
H24   H     H_    0.856808 0.872451 0.541212 0.270851
H25   H     H_    0.960354 0.074014 0.117923 0.247630
H26   H     H_    0.945876 0.923176 0.544961 0.268777
H27   H     H_    0.403674 0.634838 0.084581 0.272218
H28   H     H_    0.454191 0.413729 0.435636 0.271792
C13   C     C_3   0.235147 0.458484 0.257183 1.184734
C14   C     C_3   0.238759 0.533845 0.812673 1.192027
C15   C     C_3   0.735981 0.959582 0.257781 1.185985
C16   C     C_3   0.719581 0.045240 0.748711 1.266601
H29   H     H_    0.173351 0.440995 0.208503 -0.019373
H30   H     H_    0.183040 0.533429 0.859205 -0.044613
H31   H     H_    0.676120 0.940103 0.199578 0.004051
H32   H     H_    0.678385 0.065326 0.640552 0.050410
C17   C     C_3   0.290158 0.410453 0.187396 -0.865036
C18   C     C_3   0.239758 0.597974 0.704898 -0.932874
C19   C     C_3   0.796431 0.911219 0.206264 -0.921267
C20   C     C_3   0.789069 0.095985 0.786071 -1.105752
H33   H     H_    0.352374 0.427722 0.228221 0.273651
H34   H     H_    0.265394 0.644908 0.775641 0.223748
H35   H     H_    0.856972 0.927233 0.267812 0.260957
H36   H     H_    0.838598 0.070661 0.871550 0.260590
H37   H     H_    0.283143 0.354221 0.222044 0.228203
H38   H     H_    0.178072 0.609080 0.644032 0.247701
H39   H     H_    0.785652 0.855029 0.236478 0.238483
H40   H     H_    0.772682 0.145696 0.840118 0.250523
H41   H     H_    0.276985 0.415238 0.056233 0.245000
H42   H     H_    0.275571 0.587648 0.613057 0.271195
H43   H     H_    0.792359 0.916240 0.075571 0.241368
H44   H     H_    0.807258 0.110472 0.673097 0.238789
Ba1   Ba    Ba6+2 0.000000 0.447380 0.844850 1.575930
Ba2   Ba    Ba6+2 0.000000 0.552620 0.344850 1.562227
Ba3   Ba    Ba6+2 0.500000 0.947380 0.844850 1.572089
Ba4   Ba    Ba6+2 0.500000 0.052620 0.344850 1.570771
C21   C     C_3   0.732955 0.504039 0.085495 0.220975
C22   C     C_3   0.718392 0.512572 0.578154 0.294294
C23   C     C_3   0.243578 0.029204 0.045806 0.300795
C24   C     C_3   0.235810 0.979985 0.558707 0.330737
H45   H     H_    0.785092 0.524958 0.163419 0.183426
H46   H     H_    0.758834 0.483640 0.672882 0.173901
H47   H     H_    0.252136 0.080029 0.986114 0.070461
H48   H     H_    0.232386 0.924159 0.514982 0.087145
H49   H     H_    0.707797 0.461516 0.150624 0.091789
H50   H     H_    0.701300 0.564406 0.623056 0.044896
H51   H     H_    0.285135 0.022686 0.158936 0.164862
H52   H     H_    0.280875 0.982905 0.668212 0.153165
C25   C     C_3   0.674887 0.565307 0.042693 -0.802400
C26   C     C_3   0.644735 0.467469 0.526985 -0.931570
C27   C     C_3   0.161275 0.034601 0.080657 -0.888256
C28   C     C_3   0.156204 0.999123 0.596191 -0.964059
H53   H     H_    0.630498 0.552749 0.933320 0.248266
H54   H     H_    0.605102 0.491482 0.420870 0.253862
H55   H     H_    0.117201 0.042250 0.967738 0.266111
H56   H     H_    0.112438 0.012020 0.484993 0.266552
H57   H     H_    0.706848 0.614388 0.019518 0.248438
H58   H     H_    0.662930 0.413161 0.497955 0.276102
H59   H     H_    0.157892 0.081068 0.158479 0.257827
H60   H     H_    0.133503 0.953770 0.657331 0.263593
H61   H     H_    0.644529 0.574992 0.143323 0.245228
H62   H     H_    0.612262 0.463736 0.625933 0.237592
H63   H     H_    0.148803 0.986550 0.145333 0.239964
H64   H     H_    0.164262 0.045270 0.678227 0.234146
O45   O     O_3   0.092100 0.536880 0.086720 -0.458712
O46   O     O_3   0.092100 0.463120 0.586720 -0.422723
O47   O     O_3   0.592100 0.036880 0.086720 -0.394425
O48   O     O_3   0.592100 0.963120 0.586720 -0.427542
P13   P     P_3+3 0.896664 0.734704 0.076028 0.473296
P14   P     P_3+3 0.899226 0.262470 0.572418 0.445540
P15   P     P_3+3 0.397016 0.235127 0.074800 0.426483
P16   P     P_3+3 0.395984 0.765112 0.571881 0.436434
C29   C     C_3   0.972528 0.151331 0.728736 1.186105
C30   C     C_3   0.003289 0.834421 0.142118 1.178818
C31   C     C_3   0.469105 0.662176 0.749413 1.179326
C32   C     C_3   0.506241 0.329670 0.071657 1.157475
H65   H     H_    0.486820 0.551150 0.685615 0.235883
H66   H     H_    0.633352 0.329143 0.177607 0.177525
H67   H     H_    0.915609 0.049452 0.648760 0.283256
H68   H     H_    0.002909 0.951054 0.170744 0.253196
H69   H     H_    0.474975 0.565455 0.162538 0.268441
H70   H     H_    0.445700 0.413426 0.641858 0.270102
H71   H     H_    0.918585 0.108407 0.279654 0.263044
H72   H     H_    0.922330 0.891301 0.726112 0.295633
C33   C     C_R   0.136134 0.677740 0.923146 -0.445807
C34   C     C_R   0.143923 0.327862 0.421266 -0.434657
C35   C     C_R   0.632684 0.180187 0.930392 -0.388059
C36   C     C_R   0.644206 0.828089 0.421560 -0.432616
C37   C     C_R   0.855963 0.324329 0.265604 0.214881
C38   C     C_R   0.860259 0.678211 0.763539 0.202069
C39   C     C_R   0.356830 0.824044 0.262750 0.199083
C40   C     C_R   0.360466 0.177579 0.762935 0.205002
C41   C     C_R   0.784215 0.217193 0.302633 -0.233922
C42   C     C_R   0.790323 0.786954 0.798960 -0.258683
C43   C     C_R   0.283647 0.717772 0.300271 -0.241791
C44   C     C_R   0.289632 0.285789 0.798738 -0.228945
C45   C     C_R   0.839302 0.269883 0.364941 0.145050
C46   C     C_R   0.846549 0.735083 0.860429 0.151365
C47   C     C_R   0.339189 0.770245 0.362106 0.127986
C48   C     C_R   0.344799 0.233122 0.861017 0.077640
C49   C     C_R   0.812180 0.334025 0.109626 0.154700
C50   C     C_R   0.815445 0.667935 0.608393 0.109942
C51   C     C_R   0.313662 0.833134 0.106318 0.184202
C52   C     C_R   0.315627 0.167740 0.607524 0.156391
C53   C     C_R   0.752359 0.281814 0.047561 -0.134581
C54   C     C_R   0.757999 0.721963 0.544815 -0.148895
C55   C     C_R   0.254115 0.780650 0.043126 -0.138793
C56   C     C_R   0.258219 0.221898 0.543821 -0.147753
C57   C     C_R   0.239851 0.721204 0.141343 -0.056311
C58   C     C_R   0.245626 0.282240 0.640614 -0.105308
C59   C     C_R   0.739125 0.221671 0.145017 -0.102808
C60   C     C_R   0.745374 0.782365 0.641542 -0.096083
C61   C     C_R   0.181177 0.668036 0.078646 0.299172
C62   C     C_R   0.186360 0.335076 0.578187 0.382037
C63   C     C_R   0.679609 0.169154 0.083023 0.346507
C64   C     C_R   0.686401 0.835177 0.578562 0.365200
C65   C     C_R   0.151189 0.733990 0.824983 0.223510
C66   C     C_R   0.158741 0.271867 0.325131 0.115508
C67   C     C_R   0.648955 0.235178 0.831778 0.176644
C68   C     C_R   0.659003 0.772065 0.325674 0.133900
C69   C     C_R   0.209619 0.784703 0.884978 -0.176335
C70   C     C_R   0.213194 0.218251 0.386992 -0.170072
C71   C     C_R   0.706767 0.286462 0.890805 -0.190342
C72   C     C_R   0.712990 0.718149 0.387981 -0.183728
H73   H     H_    0.276345 0.674292 0.378323 0.214814
H74   H     H_    0.281882 0.329148 0.875755 0.204133
H75   H     H_    0.778193 0.172728 0.379179 0.207272
H76   H     H_    0.782544 0.830469 0.875959 0.198472
H77   H     H_    0.715786 0.329342 0.812026 0.194945
H78   H     H_    0.718387 0.673164 0.312731 0.193557
H79   H     H_    0.218190 0.828055 0.807147 0.188342
H80   H     H_    0.219480 0.173909 0.310944 0.187665
H81   H     H_    0.091489 0.638772 0.874163 0.185817
H82   H     H_    0.099548 0.367144 0.371728 0.181677
H83   H     H_    0.586935 0.142116 0.882138 0.217509
H84   H     H_    0.600109 0.867548 0.371624 0.178728
O49   O     O_3   0.050111 0.175510 0.793338 -0.577286
C73   C     C_3   0.097702 0.180062 0.678255 -0.043530
H85   H     H_    0.087829 0.232307 0.617895 0.144751
H86   H     H_    0.085687 0.137833 0.586477 0.076450
H87   H     H_    0.160447 0.175045 0.740849 0.130594
O50   O     O_3   0.002272 0.842263 0.976377 -0.670992
C74   C     C_3   0.067668 0.881321 0.947081 -0.363455
H88   H     H_    0.123058 0.871160 0.036912 0.150800
H89   H     H_    0.051740 0.938325 0.937909 0.201107
H90   H     H_    0.079173 0.867088 0.829920 0.227438
O51   O     O_3   0.549076 0.684662 0.790261 -0.569640
C75   C     C_3   0.591511 0.671121 0.669164 -0.098703
H91   H     H_    0.580666 0.714782 0.579918 0.134692
H92   H     H_    0.577005 0.619067 0.609111 0.090043
H93   H     H_    0.655389 0.670283 0.725234 0.136407
O52   O     O_3   0.503420 0.399540 0.008163 -0.604491
C76   C     C_3   0.559266 0.407227 0.909713 -0.347551
H94   H     H_    0.620262 0.406227 0.979228 0.167036
H95   H     H_    0.549484 0.458531 0.846591 0.196493
H96   H     H_    0.553837 0.365139 0.819298 0.166906
O53   O     O_3   0.920133 0.366657 0.320266 -0.647567
C77   C     C_3   0.896022 0.419953 0.414113 0.145196
H97   H     H_    0.856874 0.402104 0.495530 0.079862
H98   H     H_    0.864543 0.462268 0.339684 0.116434
H99   H     H_    0.950957 0.440900 0.487240 0.222486
O54   O     O_3   0.922164 0.633495 0.820129 -0.642171
C78   C     C_3   0.894867 0.580468 0.910774 0.147110
H100  H     H_    0.862755 0.538648 0.835009 0.119786
H101  H     H_    0.854869 0.599010 0.989178 0.073539
H102  H     H_    0.948692 0.558719 0.986649 0.225401
O55   O     O_3   0.421299 0.866228 0.317701 -0.643987
C79   C     C_3   0.397735 0.919910 0.411569 0.154614
H103  H     H_    0.360904 0.901852 0.496090 0.049622
H104  H     H_    0.363914 0.961442 0.338170 0.110514
H105  H     H_    0.452675 0.941716 0.482530 0.220740
O56   O     O_3   0.425315 0.135316 0.816205 -0.642977
C80   C     C_3   0.402846 0.080827 0.909808 0.162631
H106  H     H_    0.364849 0.041141 0.838915 0.088830
H107  H     H_    0.371664 0.099016 0.001884 0.063511
H108  H     H_    0.457616 0.057019 0.975362 0.219619
F1    F     F_    0.251770 0.451117 0.420377 -0.731241
F2    F     F_    0.301552 0.539478 0.941661 -0.733570
F3    F     F_    0.745443 0.955845 0.420743 -0.755064
F4    F     F_    0.681689 0.043839 0.874092 -0.726007

loop_
_geom_bond_atom_site_label_1
_geom_bond_atom_site_label_2
_geom_bond_distance
_ccdc_geom_bond_type
C43   H73   1.076189 S    
C15   H31   1.110786 S    
C12   H28   1.108998 S    
P1    O17   1.748369 S    
O10   Ba2   2.847615 S    
O43   C7    1.408671 S    
P12   C67   1.846920 S    
C20   H44   1.107601 S    
P3    O19   1.769543 S    
O7    Ba4   2.876860 S    
C34   H82   1.082285 S    
C35   C67   1.395094 A    
O44   C8    1.407976 S    
O6    Ba1   2.870940 S    
C33   H81   1.081763 S    
C28   H60   1.109893 S    
C9    H23   1.109608 S    
C70   H80   1.075591 S    
C78   H100  1.093554 S    
Ba3   O47   2.876819 S    
C26   H62   1.107294 S    
P8    C63   1.902336 S    
C15   F3    1.369898 S    
C43   C57   1.412760 A    
Ba1   O45   2.876819 S    
C18   H38   1.102047 S    
C10   H72   1.105794 S    
O15   P16   1.549162 D    
C52   C56   1.442688 A    
O38   C13   1.396878 S    
C25   H57   1.110996 S    
C3    H5    1.105509 S    
C23   H51   1.084763 S    
O37   C14   1.399049 S    
C55   C69   1.411770 A    
P3    O3    1.561305 D    
C24   H52   1.087501 S    
C80   H106  1.090351 S    
P4    O20   1.761295 S    
O18   C22   1.394275 S    
C39   C47   1.390744 A    
P7    O48   1.605148 S    
C22   H46   1.095876 S    
C21   H49   1.109573 S    
C11   H69   1.110091 S    
C79   H105  1.093500 S    
O1    Ba1   2.878678 S    
C16   H32   1.108293 S    
C37   C45   1.393776 A    
C75   H91   1.107251 S    
P4    Ba4   3.445825 S    
O22   P13   1.745906 S    
C33   C61   1.405583 A    
C76   H94   1.095421 S    
C42   C46   1.395772 A    
C5    H17   1.107370 S    
O32   Ba4   2.853151 S    
C49   C53   1.442358 A    
C36   C64   1.394888 A    
H2    C30   1.114291 S    
C25   H53   1.104903 S    
C40   C48   1.398907 A    
O23   C31   1.403690 S    
C44   H74   1.072653 S    
P6    C61   1.909017 S    
C37   O53   1.363798 S    
P1    O5    1.602496 S    
O21   C29   1.408961 S    
P5    C62   1.888177 S    
O16   P15   1.544072 D    
C79   H104  1.089510 S    
P2    O18   1.745562 S    
P7    O39   1.751262 S    
O51   C75   1.407180 S    
O41   C5    1.407869 S    
P3    C51   1.904117 S    
P4    O8    1.600046 S    
C10   H26   1.105018 S    
C28   H64   1.105773 S    
C29   O49   1.412004 S    
C40   C52   1.404842 A    
P4    O4    1.559563 D    
O25   Ba1   2.881091 S    
C39   O55   1.366493 S    
O26   Ba2   2.882183 S    
P7    O27   1.558867 D    
P5    O25   1.558867 D    
C2    H10   1.093977 S    
P9    O41   1.748821 S    
O53   C77   1.398036 S    
C18   H42   1.110245 S    
O12   P15   1.772319 S    
C42   H76   1.074913 S    
C67   C71   1.402726 A    
Ba2   O46   2.870901 S    
C17   H41   1.100282 S    
P2    O2    1.559563 D    
C54   C60   1.446254 A    
P11   O43   1.750644 S    
C15   C19   1.512945 S    
C6    H18   1.108928 S    
P4    C52   1.916841 S    
C2    H68   1.109062 S    
C24   H48   1.110182 S    
C19   H43   1.108208 S    
P3    Ba3   3.445410 S    
O49   C73   1.405737 S    
C77   H98   1.088267 S    
Ba3   O48   2.983219 S    
P2    Ba2   3.445825 S    
O31   Ba3   2.846913 S    
C71   H77   1.079399 S    
H3    C31   1.111402 S    
C8    H20   1.113417 S    
O30   Ba2   2.853151 S    
C16   C20   1.511699 S    
Ba1   O46   2.983219 S    
O10   P13   1.769896 S    
P10   O30   1.745141 S    
C42   C60   1.410176 A    
H1    C29   1.108361 S    
C32   O52   1.414546 S    
Ba3   Ba4   4.702508 S    
P3    O7    1.602496 S    
P13   C46   1.866912 S    
C41   H75   1.077038 S    
P12   O36   1.546070 D    
C80   H107  1.094486 S    
C41   C45   1.398539 A    
P11   C68   1.837862 S    
O4    Ba4   2.877593 S    
C78   H102  1.094304 S    
C34   C66   1.390178 A    
C16   F4    1.364102 S    
C12   H70   1.104428 S    
P5    Ba1   3.448161 S    
O23   P16   1.749651 S    
C53   C59   1.446565 A    
C54   C72   1.405505 A    
C56   C70   1.405405 A    
O22   C30   1.402998 S    
O24   P15   1.745083 S    
C3    C31   1.526917 S    
C8    C12   1.515957 S    
C20   H36   1.108509 S    
C11   H27   1.109857 S    
C76   H95   1.098157 S    
C69   H79   1.078702 S    
P15   C48   1.863409 S    
C1    C29   1.535742 S    
O42   C6    1.410640 S    
P12   O44   1.746887 S    
C21   H45   1.076670 S    
C60   C64   1.440340 A    
O9    Ba1   2.853859 S    
C66   C70   1.401243 A    
P7    Ba3   3.448161 S    
C9    H25   1.108694 S    
C38   O54   1.363604 S    
C34   C62   1.395888 A    
C65   C69   1.404020 A    
C68   C72   1.401499 A    
C27   H59   1.106196 S    
C79   H103  1.107081 S    
P6    O26   1.560607 D    
C4    H66   1.101916 S    
O5    Ba2   2.876860 S    
P11   O35   1.548815 D    
C27   H55   1.107270 S    
C74   H89   1.102496 S    
C36   C68   1.389133 A    
C1    H7    1.102985 S    
C6    C10   1.530827 S    
C57   C61   1.443423 A    
O13   P14   1.551539 D    
C5    C9    1.519007 S    
Ba1   Ba2   4.702508 S    
C30   O50   1.419958 S    
O11   Ba3   2.853859 S    
O39   C16   1.398220 S    
C58   C62   1.442782 A    
C2    H8    1.108089 S    
C7    C11   1.520187 S    
C25   H61   1.109287 S    
C78   H101  1.110918 S    
C12   H22   1.105343 S    
C1    H9    1.108400 S    
C73   H86   1.105183 S    
Ba4   O48   2.870901 S    
C26   H54   1.111146 S    
P10   O34   1.549016 D    
Ba2   O45   2.983961 S    
P1    O1    1.561305 D    
C4    H12   1.103242 S    
C13   F1    1.371336 S    
P11   O31   1.746289 S    
O2    Ba2   2.877593 S    
O17   C21   1.392186 S    
O55   C79   1.399478 S    
P2    O6    1.600046 S    
P14   C45   1.863961 S    
O28   Ba4   2.882183 S    
O9    P14   1.783019 S    
C14   F2    1.380613 S    
C74   H88   1.110706 S    
C3    H11   1.102192 S    
O24   C32   1.408164 S    
C4    C32   1.519402 S    
C18   H34   1.108365 S    
C17   H37   1.108412 S    
P8    O28   1.560607 D    
P6    O45   1.607624 S    
C17   H33   1.105241 S    
C77   H97   1.114508 S    
C22   C26   1.513423 S    
O27   Ba3   2.881091 S    
C36   H84   1.082405 S    
C51   C55   1.445024 A    
C19   H35   1.108736 S    
C13   C17   1.515830 S    
P8    O47   1.607624 S    
P6    Ba2   3.447736 S    
C28   H56   1.110866 S    
O3    Ba3   2.878678 S    
O56   C80   1.399364 S    
C2    C30   1.542160 S    
C59   C63   1.442792 A    
C31   O51   1.414068 S    
P8    Ba4   3.447736 S    
C80   H108  1.088208 S    
C8    H16   1.110912 S    
P6    O38   1.745780 S    
C73   H87   1.106557 S    
P2    C50   1.924490 S    
O19   C23   1.400217 S    
C44   C58   1.408538 A    
C14   C18   1.515762 S    
C75   H93   1.105921 S    
P8    O40   1.746663 S    
C37   C49   1.401375 A    
C76   H96   1.096301 S    
C21   C25   1.517048 S    
C20   H40   1.103418 S    
C23   H47   1.104509 S    
C4    H6    1.104944 S    
O12   Ba4   2.847615 S    
O40   C15   1.396077 S    
C35   C63   1.400874 A    
O11   P16   1.786622 S    
O14   P13   1.540959 D    
C14   H30   1.111335 S    
P5    O37   1.750368 S    
P9    O33   1.548031 D    
C7    H19   1.107794 S    
P10   O42   1.754160 S    
O8    Ba3   2.870940 S    
C72   H78   1.077447 S    
C26   H58   1.109164 S    
C38   C50   1.403926 A    
H4    C32   1.119381 S    
C27   H63   1.100424 S    
O52   C76   1.408769 S    
C3    H65   1.108243 S    
C75   H92   1.108586 S    
P7    C64   1.885136 S    
C19   H39   1.109504 S    
C74   H90   1.093195 S    
C24   C28   1.513368 S    
O50   C74   1.408234 S    
P1    Ba1   3.445410 S    
O54   C78   1.398939 S    
C56   C58   1.445563 A    
C53   C71   1.409073 A    
C50   C54   1.441117 A    
C10   H24   1.106314 S    
O29   Ba1   2.846913 S    
C38   C46   1.401058 A    
P10   C65   1.866024 S    
C44   C48   1.396770 A    
P9    O29   1.744294 S    
C9    H71   1.110276 S    
C39   C51   1.399660 A    
P9    C66   1.839882 S    
C22   H50   1.107696 S    
C5    H13   1.114472 S    
P12   O32   1.745824 S    
C73   H85   1.103291 S    
C6    H14   1.111953 S    
Ba4   O47   2.983961 S    
O21   P14   1.758620 S    
O20   C24   1.398905 S    
C11   H21   1.110318 S    
C35   H83   1.081208 S    
C1    H67   1.107690 S    
C33   C65   1.403584 A    
P5    O46   1.605148 S    
P16   C47   1.859481 S    
C40   O56   1.368008 S    
C7    H15   1.113270 S    
C23   C27   1.510035 S    
C13   H29   1.109936 S    
C43   C47   1.399401 A    
P1    C49   1.911619 S    
C55   C57   1.445427 A    
C77   H99   1.094634 S    
C41   C59   1.411951 A    
