data_mof_unit_15889.cif
_audit_creation_date              2012-12-11T18:34:31-0500
_audit_creation_method            fapswitch 2.2
_symmetry_space_group_name_H-M    P1
_symmetry_Int_Tables_number       1
_space_group_crystal_system       triclinic
_cell_length_a                    8.219455
_cell_length_b                    14.294242
_cell_length_c                    22.867972
_cell_angle_alpha                 93.653524
_cell_angle_beta                  89.558835
_cell_angle_gamma                 91.499894
_cell_volume                      2680.34993437

loop_
_atom_site_label
_atom_site_type_symbol
_atom_type_description
_atom_site_fract_x
_atom_site_fract_y
_atom_site_fract_z
_atom_type_partial_charge
Ba1   Ba    Ba6+2 0.846250 0.544220 0.470860 1.656530
Ba2   Ba    Ba6+2 0.343570 0.455860 0.529140 1.690688
C1    C     C_3   0.611286 0.888328 0.309822 -0.287627
C2    C     C_3   0.600963 0.790925 0.332887 0.301462
C3    C     C_3   0.518950 0.318513 0.353889 0.294501
C4    C     C_3   0.554549 0.303900 0.288322 0.315093
C5    C     C_3   0.033716 0.229265 0.693449 0.316618
C6    C     C_3   0.982896 0.166648 0.742124 -0.323533
C7    C     C_3   0.526937 0.219144 0.698704 0.371941
C8    C     C_3   0.483459 0.147031 0.743073 0.288590
C9    C     C_R   0.337555 0.526053 0.331306 -0.303739
C10   C     C_R   0.091504 0.574356 0.936722 -0.102332
C11   C     C_R   0.041451 0.568237 0.876964 0.622949
C12   C     C_3   0.076408 0.742644 0.304291 0.313765
C13   C     C_R   0.012037 0.400892 0.878139 0.571245
C14   C     C_R   0.051387 0.404816 0.938335 -0.005919
C15   C     C_R   0.091435 0.491826 0.967796 -0.101100
C16   C     C_R   0.140522 0.660511 0.966744 0.423026
C17   C     C_R   0.177725 0.663687 0.026657 -0.103950
C18   C     C_R   0.175280 0.582161 0.058045 -0.079815
C19   C     C_R   0.132079 0.495964 0.028562 -0.057125
C20   C     C_R   0.051916 0.323136 0.969719 -0.088687
C21   C     C_R   0.089642 0.327573 0.029350 -0.060832
C22   C     C_R   0.129767 0.413737 0.059657 -0.015544
C23   C     C_3   0.044023 0.767728 0.241910 -0.276973
C24   C     C_R   0.168675 0.419250 0.120185 0.606584
C25   C     C_R   0.216615 0.585278 0.118216 0.593884
C26   C     C_2   0.815094 0.427301 0.769761 -0.072793
C27   C     C_3   0.783631 0.402414 0.705489 -0.074209
C28   C     C_1   0.005602 0.514405 0.684116 0.016994
C29   C     C_2   0.052044 0.521438 0.740083 -0.095174
C30   C     C_2   0.951498 0.476795 0.786708 0.202601
C31   C     C_R   0.403064 0.552284 0.230089 -0.081246
C32   C     C_R   0.443766 0.560363 0.289626 -0.016586
C33   C     C_R   0.193271 0.479408 0.314628 0.021878
C34   C     C_3   0.174400 0.743686 0.591001 0.335079
C35   C     C_R   0.149999 0.471515 0.254614 -0.116874
C36   C     C_R   0.253764 0.509590 0.211519 0.209886
C37   C     C_2   0.880635 0.461396 0.664861 -0.274615
C38   C     C_R   0.694685 0.935494 0.531110 -0.027253
C39   C     C_R   0.510717 0.801719 0.497990 0.042151
C40   C     C_R   0.370804 0.769934 0.467897 -0.301900
C41   C     C_R   0.268591 0.832606 0.443342 0.017997
C42   C     C_R   0.313528 0.927240 0.443417 -0.137411
C43   C     C_R   0.458252 0.960304 0.470843 -0.014007
C44   C     C_R   0.555985 0.898452 0.500451 -0.025940
C45   C     C_3   0.174738 0.849496 0.603471 -0.353156
C46   C     C_R   0.642468 0.091598 0.499822 -0.018732
C47   C     C_R   0.740588 0.030673 0.529889 0.003134
C48   C     C_R   0.686576 0.187699 0.500758 0.029063
C49   C     C_R   0.824354 0.221805 0.531032 -0.278815
C50   C     C_R   0.929062 0.161068 0.555966 0.008981
C51   C     C_R   0.885777 0.065651 0.556963 -0.145023
C52   C     C_R   0.503106 0.055100 0.470100 -0.027703
C53   C     C_3   0.021325 0.256620 0.410975 0.319466
C54   C     C_3   0.019701 0.150722 0.398342 -0.327281
C55   C     C_3   0.675952 0.662367 0.641770 0.317692
C56   C     C_3   0.718838 0.690300 0.705557 0.302386
H1    H     H_    0.666717 0.793428 0.375282 0.082427
H2    H     H_    0.262111 0.870547 0.638993 0.181537
H3    H     H_    0.210588 0.885550 0.563700 0.048900
H4    H     H_    0.051062 0.871738 0.617258 0.102861
H5    H     H_    0.898699 0.279031 0.424241 -0.015576
H6    H     H_    0.108657 0.275337 0.446766 0.060717
H7    H     H_    0.926230 0.129711 0.364874 0.154175
H8    H     H_    0.991641 0.114313 0.438640 0.036200
H9    H     H_    0.140965 0.128438 0.381775 0.156838
H10   H     H_    0.784427 0.631317 0.620017 -0.093389
H11   H     H_    0.575994 0.609175 0.640257 0.085795
H12   H     H_    0.740547 0.910341 0.303744 0.147215
H13   H     H_    0.829623 0.736538 0.707067 0.026645
H14   H     H_    0.744853 0.626559 0.728672 -0.027670
H15   H     H_    0.470454 0.772381 0.340009 -0.047442
H16   H     H_    0.553333 0.939354 0.341602 0.100730
H17   H     H_    0.386024 0.323277 0.361194 0.005056
H18   H     H_    0.579617 0.385990 0.369140 -0.017827
H19   H     H_    0.511095 0.364707 0.265600 -0.089556
H20   H     H_    0.688028 0.299408 0.281089 0.050302
H21   H     H_    0.547143 0.888432 0.267259 0.154318
H22   H     H_    0.143383 0.814465 0.226562 0.142634
H23   H     H_    0.085057 0.296623 0.713115 0.074998
H24   H     H_    0.921825 0.243525 0.669056 -0.070834
H25   H     H_    0.086047 0.157534 0.771958 0.117951
H26   H     H_    0.881942 0.198994 0.768040 0.159394
H27   H     H_    0.940250 0.096976 0.723036 0.103753
H28   H     H_    0.661460 0.225113 0.697376 -0.102414
H29   H     H_    0.483557 0.193037 0.654589 0.019635
H30   H     H_    0.545441 0.080951 0.729444 0.025695
H31   H     H_    0.350772 0.129649 0.741743 0.029407
H32   H     H_    0.999700 0.680144 0.313034 0.102088
H33   H     H_    0.087506 0.262944 0.051668 0.142225
H34   H     H_    0.022049 0.255161 0.948267 0.124827
H35   H     H_    0.209658 0.731069 0.048508 0.144241
H36   H     H_    0.487805 0.578790 0.198262 0.110061
H37   H     H_    0.166083 0.557089 0.752225 0.156214
H38   H     H_    0.738225 0.394820 0.801958 0.107983
H39   H     H_    0.036883 0.435976 0.241617 0.118713
H40   H     H_    0.371244 0.531802 0.377060 0.083155
H41   H     H_    0.206767 0.725384 0.308160 -0.041810
H42   H     H_    0.862050 0.446136 0.618263 0.084154
H43   H     H_    0.335475 0.696392 0.466921 0.068620
H44   H     H_    0.234423 0.974988 0.423057 0.083583
H45   H     H_    0.965771 0.019154 0.577876 0.068837
H46   H     H_    0.856678 0.295739 0.531494 0.056220
H47   H     H_    0.769340 0.891467 0.555879 0.097845
H48   H     H_    0.426667 0.099725 0.446333 0.102154
H49   H     H_    0.035914 0.702752 0.212859 0.118637
H50   H     H_    0.926779 0.803985 0.239440 0.151784
H51   H     H_    0.299488 0.721847 0.580372 0.003355
H52   H     H_    0.092904 0.725162 0.553302 0.046481
N1    N     N_R   0.002813 0.482209 0.848220 -0.429183
N2    N     N_R   0.210155 0.504661 0.149307 -0.425867
O1    O     O_2   0.901900 0.448470 0.362340 -0.462418
O2    O     O_3   0.628249 0.741479 0.613899 -0.619258
O3    O     O_3   0.036115 0.818696 0.343043 -0.595744
O4    O     O_2   0.287790 0.551560 0.637690 -0.434143
O5    O     O_3   0.047460 0.550640 0.566640 -0.504749
O6    O     O_3   0.544140 0.380990 0.608030 -0.472131
O7    O     O_3   0.120173 0.701248 0.641195 -0.601448
O8    O     O_3   0.640350 0.387150 0.474440 -0.475359
O9    O     O_3   0.136890 0.332750 0.580830 -0.477855
O10   O     O_2   0.270179 0.166538 0.552115 -0.487301
O11   O     O_3   0.153321 0.184865 0.658087 -0.598646
O12   O     O_3   0.142240 0.449440 0.433360 -0.496975
O13   O     O_3   0.549340 0.612930 0.525560 -0.490259
O14   O     O_2   0.396530 0.270940 0.479440 -0.469963
O15   O     O_3   0.578409 0.242929 0.382898 -0.621548
O16   O     O_2   0.479419 0.485886 0.706481 -0.465071
O17   O     O_3   0.453361 0.304826 0.715275 -0.591988
O18   O     O_2   0.029119 0.639609 0.850877 -0.531601
O19   O     O_2   0.986956 0.324579 0.852207 -0.626109
O20   O     O_2   0.168343 0.347596 0.146599 -0.570237
O21   O     O_2   0.258799 0.660211 0.142842 -0.611857
O22   O     O_3   0.645560 0.619080 0.391970 -0.486072
O23   O     O_2   0.782365 0.555878 0.291178 -0.501129
O24   O     O_3   0.066092 0.298731 0.359727 -0.607945
O25   O     O_3   0.673183 0.726551 0.292162 -0.598986
O26   O     O_2   0.793170 0.729090 0.520590 -0.469495
O27   O     O_3   0.052800 0.667320 0.419180 -0.496141
O28   O     O_2   0.931947 0.834387 0.450843 -0.489601
P1    P     P_3+3 0.074990 0.420800 0.372080 0.991921
P2    P     P_3+3 0.618830 0.715330 0.538180 0.986463
P3    P     P_3+3 0.071789 0.788784 0.414713 0.945473
P4    P     P_3+3 0.114710 0.579280 0.627920 1.026988
P5    P     P_3+3 0.123426 0.210447 0.585229 0.963148
P6    P     P_3+3 0.637372 0.613568 0.315464 0.949599
P7    P     P_3+3 0.578300 0.270676 0.458572 0.953664
P8    P     P_3+3 0.564817 0.395280 0.684350 0.973895
S1    S     S_3+6 0.557617 0.750227 0.743761 -0.042470
O29   O     O_2   0.402600 0.692498 0.738088 -0.259900
O30   O     O_2   0.600715 0.765123 0.807455 -0.300442
O31   O     O_3   0.529885 0.854777 0.716031 -0.499873
H53   H     H_    0.637165 0.887821 0.719415 0.323755
S2    S     S_3+6 0.456642 0.199871 0.256523 -0.015823
O32   O     O_2   0.523175 0.115290 0.282918 -0.259581
O33   O     O_2   0.488711 0.192854 0.191632 -0.243044
O34   O     O_3   0.254960 0.202817 0.268651 -0.473486
H54   H     H_    0.220178 0.260870 0.251466 0.349892
O35   O     O_3   0.542033 0.178569 0.799206 -0.633078
C57   C     C_3   0.413070 0.209669 0.836109 0.282546
H55   H     H_    0.334548 0.148933 0.847754 0.053731
H56   H     H_    0.337520 0.261402 0.814961 0.088300
C58   C     C_3   0.483109 0.257153 0.892130 -0.296597
H57   H     H_    0.561003 0.318602 0.881673 0.123997
H58   H     H_    0.382804 0.281462 0.921639 0.068245
H59   H     H_    0.557305 0.207068 0.914998 0.143922
O36   O     O_3   0.146327 0.743714 0.938886 -0.605310
C59   C     C_3   0.299499 0.754555 0.910901 0.325815
H60   H     H_    0.280706 0.793609 0.871140 0.161639
H61   H     H_    0.355141 0.686850 0.895448 0.057387
C60   C     C_3   0.417907 0.812063 0.950677 -0.375649
H62   H     H_    0.452468 0.771591 0.988291 0.111355
H63   H     H_    0.530000 0.829220 0.925724 0.153811
H64   H     H_    0.361356 0.878401 0.967240 0.148654

loop_
_geom_bond_atom_site_label_1
_geom_bond_atom_site_label_2
_ccdc_geom_bond_type
C48   P7    S    
C60   H62   S    
O34   H54   S    
C30   N1    S    
C6    H25   S    
Ba2   P4    S    
C39   C40   A    
C41   P3    S    
C17   C18   A    
O28   P3    D    
C53   C54   S    
C1    H21   S    
C31   H36   S    
C27   P8    S    
C35   H39   S    
Ba2   O6    S    
C5    C6    S    
C43   C44   A    
C42   C43   A    
C38   C44   A    
C60   H63   S    
C8    H30   S    
C50   P5    S    
C9    H40   S    
O2    P2    S    
C26   C27   S    
C58   H58   S    
C35   C36   A    
C22   C24   A    
C16   C17   A    
S1    O30   D    
O35   C57   S    
C28   C29   D    
C29   H37   S    
C56   H13   S    
C4    H20   S    
C13   C14   A    
C23   H22   S    
C28   P4    S    
C34   C45   S    
C6    H27   S    
O10   P5    D    
C34   O7    S    
C1    H16   S    
O5    P4    S    
C12   H32   S    
O17   P8    S    
Ba1   P2    S    
Ba1   O13   S    
C2    O25   S    
O4    P4    D    
Ba2   O4    S    
C59   C60   S    
O11   P5    S    
C8    H31   S    
C14   C15   A    
C53   H5    S    
C10   C15   A    
C11   O18   D    
C54   H8    S    
C7    C8    S    
S2    O33   D    
Ba1   O27   S    
C56   S1    S    
C59   H61   S    
C45   H2    S    
O7    P4    S    
C3    O15   S    
Ba1   O1    S    
C45   H4    S    
Ba2   O5    S    
C48   C49   A    
C55   C56   S    
O22   P6    S    
C60   H64   S    
O3    P3    S    
C52   H48   S    
C49   C50   A    
C25   O21   D    
C57   C58   S    
C13   N1    Am   
O25   P6    S    
C26   C30   D    
C58   H59   S    
S2    O34   S    
O26   P2    D    
S1    O31   S    
O36   C59   S    
Ba2   O8    S    
O16   P8    D    
C4    H19   S    
C49   H46   S    
C15   C19   A    
Ba1   O8    S    
C57   H56   S    
C12   O3    S    
C3    H17   S    
C46   C52   A    
C41   C42   A    
C45   H3    S    
O24   P1    S    
O14   P7    D    
C7    H28   S    
C29   C30   S    
O13   P2    S    
C39   C44   A    
O23   P6    D    
C53   H6    S    
C27   C37   S    
C31   C32   A    
S2    O32   D    
O27   P3    S    
Ba1   O5    S    
C1    H12   S    
C18   C19   A    
C38   C47   A    
C2    H15   S    
C4    S2    S    
C33   P1    S    
Ba2   O14   S    
C46   C47   A    
C5    H23   S    
C25   N2    Am   
Ba2   O12   S    
C56   H14   S    
C34   H52   S    
C21   H33   S    
O12   P1    S    
C40   C41   A    
C55   H10   S    
C36   N2    S    
C1    C2    S    
C40   H43   S    
C24   N2    Am   
Ba1   O22   S    
C24   O20   D    
C50   C51   A    
C23   H49   S    
Ba2   O9    S    
C59   H60   S    
C14   C20   A    
C33   C35   A    
C6    H26   S    
C9    C32   A    
C5    O11   S    
C17   H35   S    
C43   C52   A    
C16   O36   S    
C55   O2    S    
C18   C25   A    
C7    O17   S    
C54   H9    S    
C31   C36   A    
C26   H38   S    
C53   O24   S    
C3    H18   S    
C9    C33   A    
Ba1   O12   S    
C39   P2    S    
C11   N1    Am   
S1    O29   D    
C57   H55   S    
C32   P6    S    
C12   H41   S    
C37   H42   S    
C3    C4    S    
C51   H45   S    
C47   C51   A    
Ba1   Ba2   S    
C2    H1    S    
C46   C48   A    
O1    P1    D    
C28   C37   D    
O9    P5    S    
C12   C23   S    
C58   H57   S    
Ba1   P1    S    
C21   C22   A    
O6    P8    S    
Ba2   O13   S    
C5    H24   S    
C13   O19   D    
C10   C11   A    
O8    P7    S    
C19   C22   A    
C10   C16   A    
C34   H51   S    
C20   H34   S    
C20   C21   A    
O31   H53   S    
C55   H11   S    
C8    O35   S    
C7    H29   S    
Ba1   O26   S    
C54   H7    S    
C23   H50   S    
O15   P7    S    
C38   H47   S    
C42   H44   S    
