data_mof_unit_45720.cif
_audit_creation_date              2012-12-10T17:17:51-0500
_audit_creation_method            fapswitch 2.2
_symmetry_space_group_name_H-M    P1
_symmetry_Int_Tables_number       1
_space_group_crystal_system       triclinic
_cell_length_a                    14.730628
_cell_length_b                    16.009339
_cell_length_c                    9.587617
_cell_angle_alpha                 90.000459
_cell_angle_beta                  91.799735
_cell_angle_gamma                 89.999966
_cell_volume                      2259.90952212

loop_
_atom_site_label
_atom_site_type_symbol
_atom_type_description
_atom_site_fract_x
_atom_site_fract_y
_atom_site_fract_z
_atom_type_partial_charge
C1    C     C_R   0.385957 0.877565 0.499267 0.808410
C2    C     C_R   0.385957 0.122435 0.499268 0.808413
C3    C     C_R   0.885958 0.377565 0.499267 0.808411
C4    C     C_R   0.885957 0.622435 0.499269 0.808415
C5    C     C_R   0.266837 0.204925 0.381116 -0.211524
C6    C     C_R   0.266833 0.795078 0.381119 -0.211527
C7    C     C_R   0.766840 0.704927 0.381115 -0.211524
C8    C     C_R   0.766835 0.295077 0.381118 -0.211526
C9    C     C_R   0.695661 0.761367 0.382994 -0.041583
C10   C     C_R   0.695657 0.238636 0.383001 -0.041593
C11   C     C_R   0.195658 0.261365 0.382997 -0.041587
C12   C     C_R   0.195655 0.738637 0.383001 -0.041594
C13   C     C_R   0.677245 0.805034 0.507538 -0.178900
C14   C     C_R   0.677250 0.194962 0.507541 -0.178899
C15   C     C_R   0.177245 0.305035 0.507539 -0.178900
C16   C     C_R   0.177249 0.694962 0.507541 -0.178899
C17   C     C_R   0.665965 0.999995 0.156811 -0.252078
C18   C     C_R   0.165965 0.499996 0.156811 -0.252079
C19   C     C_R   0.749078 0.999989 0.093935 -0.298764
C20   C     C_R   0.249077 0.499991 0.093935 -0.298765
C21   C     C_R   0.751765 0.999988 0.951063 0.530816
C22   C     C_R   0.251764 0.499991 0.951063 0.530812
C23   C     C_R   0.671840 0.999995 0.869965 0.520243
C24   C     C_R   0.171840 0.499996 0.869965 0.520240
C25   C     C_R   0.583338 0.999997 0.930087 -0.139531
C26   C     C_R   0.083338 0.499998 0.930087 -0.139533
C27   C     C_R   0.582205 0.999998 0.079978 0.141500
C28   C     C_R   0.082205 0.499998 0.079978 0.141499
C29   C     C_R   0.421684 0.000001 0.069435 -0.085076
C30   C     C_R   0.921684 0.500001 0.069435 -0.085077
C31   C     C_R   0.614557 0.122817 0.501965 0.824472
C32   C     C_R   0.614555 0.877181 0.501964 0.824470
C33   C     C_R   0.114557 0.622817 0.501965 0.824472
C34   C     C_R   0.114555 0.377182 0.501964 0.824470
C35   C     C_R   0.421893 0.000002 0.921470 0.652149
C36   C     C_R   0.921893 0.500001 0.921470 0.652147
C37   C     C_R   0.372890 0.240206 0.735926 -0.108640
C38   C     C_R   0.372907 0.759786 0.735908 -0.108668
C39   C     C_R   0.872885 0.740203 0.735931 -0.108631
C40   C     C_R   0.872906 0.259786 0.735911 -0.108663
C41   C     C_R   0.348053 0.269131 0.866114 -0.072114
C42   C     C_R   0.348080 0.730854 0.866096 -0.072124
C43   C     C_R   0.848045 0.769126 0.866121 -0.072114
C44   C     C_R   0.848078 0.230856 0.866101 -0.072126
C45   C     C_R   0.760134 0.797265 0.884150 -0.110330
C46   C     C_R   0.760170 0.202713 0.884141 -0.110308
C47   C     C_R   0.260142 0.297270 0.884147 -0.110323
C48   C     C_R   0.260172 0.702711 0.884138 -0.110303
C49   C     C_R   0.700331 0.805101 0.769148 -0.084357
C50   C     C_R   0.700358 0.194881 0.769148 -0.084335
C51   C     C_R   0.200338 0.305106 0.769147 -0.084354
C52   C     C_R   0.200360 0.694879 0.769147 -0.084336
C53   C     C_R   0.727868 0.784648 0.632705 0.116061
C54   C     C_R   0.727882 0.215342 0.632703 0.116055
C55   C     C_R   0.227871 0.284650 0.632705 0.116061
C56   C     C_R   0.227883 0.715342 0.632702 0.116055
C57   C     C_R   0.309469 0.239615 0.621675 0.093889
C58   C     C_R   0.309480 0.760378 0.621667 0.093888
C59   C     C_R   0.809467 0.739614 0.621678 0.093891
C60   C     C_R   0.809479 0.260379 0.621668 0.093887
C61   C     C_R   0.323534 0.193217 0.498831 -0.127649
C62   C     C_R   0.323535 0.806782 0.498827 -0.127644
C63   C     C_R   0.823534 0.693218 0.498831 -0.127651
C64   C     C_R   0.823536 0.306781 0.498827 -0.127645
Cu1   Cu    Cu3+1 0.499990 0.000000 0.640660 1.037065
Cu2   Cu    Cu3+1 0.999990 0.500000 0.640660 1.037065
Cu3   Cu    Cu3+1 0.500010 0.000000 0.359340 0.979928
Cu4   Cu    Cu3+1 0.000010 0.500000 0.359340 0.979928
H1    H     H_    0.276838 0.168583 0.287371 0.176735
H2    H     H_    0.276828 0.831423 0.287378 0.176738
H3    H     H_    0.776843 0.668588 0.287368 0.176733
H4    H     H_    0.776831 0.331421 0.287376 0.176737
H5    H     H_    0.441848 0.218319 0.725919 0.132967
H6    H     H_    0.441864 0.781676 0.725893 0.132959
H7    H     H_    0.941844 0.718317 0.725927 0.132968
H8    H     H_    0.941863 0.281676 0.725897 0.132960
H9    H     H_    0.395946 0.266748 0.954023 0.149297
H10   H     H_    0.395979 0.733235 0.953998 0.149302
H11   H     H_    0.895937 0.766743 0.954031 0.149295
H12   H     H_    0.895976 0.233237 0.954004 0.149302
H13   H     H_    0.738703 0.814630 0.987076 0.136353
H14   H     H_    0.738748 0.185343 0.987069 0.136332
H15   H     H_    0.238714 0.314637 0.987073 0.136347
H16   H     H_    0.238751 0.685341 0.987066 0.136329
H17   H     H_    0.631834 0.823010 0.791593 0.146973
H18   H     H_    0.631864 0.176969 0.791604 0.146982
H19   H     H_    0.131841 0.323016 0.791595 0.146975
H20   H     H_    0.131866 0.676967 0.791604 0.146984
H21   H     H_    0.671624 0.999999 0.266887 0.242998
H22   H     H_    0.171624 0.499999 0.266887 0.242998
N1    N     N_R   0.501200 0.000000 0.147910 -0.215877
N2    N     N_R   0.001200 0.500000 0.147910 -0.215877
N3    N     N_R   0.501270 0.000000 0.852040 -0.229934
N4    N     N_R   0.001270 0.500000 0.852040 -0.229934
O1    O     O_R   0.409820 0.909830 0.618810 -0.542968
O2    O     O_R   0.409820 0.090170 0.618810 -0.542970
O3    O     O_R   0.909820 0.409830 0.618810 -0.542967
O4    O     O_R   0.909820 0.590170 0.618810 -0.542971
O5    O     O_R   0.409840 0.909830 0.381240 -0.586984
O6    O     O_R   0.409840 0.090170 0.381240 -0.586983
O7    O     O_R   0.909840 0.409830 0.381240 -0.586983
O8    O     O_R   0.909840 0.590170 0.381240 -0.586982
O9    O     O_R   0.590170 0.090170 0.618760 -0.538570
O10   O     O_R   0.590170 0.909830 0.618760 -0.538567
O11   O     O_R   0.090170 0.590170 0.618760 -0.538571
O12   O     O_R   0.090170 0.409830 0.618760 -0.538569
O13   O     O_R   0.590190 0.090180 0.381190 -0.598423
O14   O     O_R   0.590190 0.909820 0.381190 -0.598421
O15   O     O_R   0.090190 0.590180 0.381190 -0.598423
O16   O     O_R   0.090190 0.409820 0.381190 -0.598421
F1    F     F_    0.833218 0.999984 0.888048 -0.608836
F2    F     F_    0.333217 0.499988 0.888048 -0.608837
F3    F     F_    0.688920 1.000000 0.734169 -0.605559
F4    F     F_    0.188919 0.500000 0.734169 -0.605560
F5    F     F_    0.341931 0.000003 0.847210 -0.641405
F6    F     F_    0.841931 0.500003 0.847210 -0.641405
C65   C     C_1   0.638676 0.767675 0.257631 0.286826
N5    N     N_1   0.592966 0.772498 0.157513 -0.300850
C66   C     C_1   0.638663 0.232333 0.257646 0.286834
N6    N     N_1   0.592947 0.227513 0.157534 -0.300824
C67   C     C_1   0.138670 0.267670 0.257636 0.286828
N7    N     N_1   0.092957 0.272492 0.157521 -0.300842
C68   C     C_1   0.138661 0.732334 0.257647 0.286836
N8    N     N_1   0.092943 0.727515 0.157536 -0.300821
C69   C     C_1   0.335784 0.000002 0.136817 0.377830
N9    N     N_1   0.266367 0.000003 0.190127 -0.279883
C70   C     C_1   0.835784 0.500002 0.136817 0.377830
N10   N     N_1   0.766367 0.500003 0.190127 -0.279881
C71   C     C_1   0.832225 0.999983 0.177660 0.378994
N11   N     N_1   0.898854 0.999978 0.244900 -0.242787
C72   C     C_1   0.332224 0.499987 0.177660 0.378992
N12   N     N_1   0.398853 0.499984 0.244899 -0.242788

loop_
_geom_bond_atom_site_label_1
_geom_bond_atom_site_label_2
_ccdc_geom_bond_type
C58   C62   A    
Cu2   Cu4   S    
C19   C71   S    
C40   C60   A    
C4    O4    A    
C9    C65   S    
C13   C32   S    
C14   C31   S    
C44   H12   S    
Cu3   O13   S    
C1    C62   S    
C1    O5    A    
C53   C59   A    
C68   N8    T    
C54   C60   A    
C3    C64   S    
C25   N3    A    
C4    C63   S    
C50   C54   A    
Cu2   O3    S    
C19   C21   A    
C24   C26   A    
C5    C11   A    
C29   C69   S    
C7    H3    S    
Cu3   O14   S    
C43   H11   S    
C6    H2    S    
C18   H22   S    
C9    C13   A    
C5    H1    S    
C10   C66   S    
C17   C19   A    
C46   H14   S    
C11   C15   A    
Cu1   O2    S    
C12   C16   A    
Cu1   Cu3   S    
C4    O8    A    
C32   O10   A    
C35   F5    S    
C39   H7    S    
C15   C34   S    
C51   C55   A    
C2    C61   S    
Cu3   O5    S    
Cu2   N4    S    
C3    O7    A    
Cu1   N3    S    
C2    O6    A    
C38   C58   A    
C11   C67   S    
Cu2   O12   S    
C6    C12   A    
C26   C28   A    
C21   F1    S    
C44   C46   A    
C46   C50   A    
C13   C53   A    
C35   N3    A    
C8    H4    S    
Cu1   O1    S    
C5    C61   A    
C34   O12   A    
C49   H17   S    
C52   H20   S    
C17   H21   S    
Cu4   O7    S    
C30   N2    A    
C10   C14   A    
C51   H19   S    
C39   C43   A    
C48   H16   S    
C17   C27   A    
C31   O9    A    
C42   C48   A    
C16   C56   A    
C36   N4    A    
C16   C33   S    
C23   F3    S    
C3    O3    A    
C45   C49   A    
C1    O1    A    
C39   C59   A    
Cu3   N1    S    
C41   C47   A    
C18   C28   A    
C28   N2    A    
Cu4   O16   S    
C27   N1    A    
C43   C45   A    
C7    C63   A    
C67   N7    T    
Cu3   O6    S    
C8    C64   A    
C14   C54   A    
C20   C22   A    
C42   H10   S    
C47   H15   S    
C26   N4    A    
C55   C57   A    
C69   N9    T    
C34   O16   A    
C22   C24   A    
C33   O15   A    
Cu1   O9    S    
C20   C72   S    
C40   C44   A    
C72   N12   T    
C36   F6    S    
C29   N1    A    
C71   N11   T    
C38   H6    S    
C7    C9    A    
C37   H5    S    
C30   C70   S    
C31   O13   A    
C45   H13   S    
Cu4   O8    S    
C47   C51   A    
C66   N6    T    
C57   C61   A    
C70   N10   T    
C25   C27   A    
C29   C35   A    
C59   C63   A    
C33   O11   A    
C30   C36   A    
C60   C64   A    
Cu2   O4    S    
C21   C23   A    
C65   N5    T    
C41   H9    S    
C6    C62   A    
C12   C68   S    
C49   C53   A    
C2    O2    A    
Cu4   N2    S    
C56   C58   A    
C18   C20   A    
Cu4   O15   S    
C23   C25   A    
C37   C41   A    
C50   H18   S    
C38   C42   A    
C40   H8    S    
C48   C52   A    
C8    C10   A    
C32   O14   A    
C24   F4    S    
Cu2   O11   S    
Cu1   O10   S    
C37   C57   A    
C52   C56   A    
C22   F2    S    
C15   C55   A    
