data_mof_unit_23969.cif
_audit_creation_date              2012-12-10T17:03:43-0500
_audit_creation_method            fapswitch 2.2
_symmetry_space_group_name_H-M    P1
_symmetry_Int_Tables_number       1
_space_group_crystal_system       triclinic
_cell_length_a                    10.080069
_cell_length_b                    10.741704
_cell_length_c                    13.102471
_cell_angle_alpha                 89.63571
_cell_angle_beta                  72.541037
_cell_angle_gamma                 89.720555
_cell_volume                      1353.30742459

loop_
_atom_site_label
_atom_site_type_symbol
_atom_type_description
_atom_site_fract_x
_atom_site_fract_y
_atom_site_fract_z
_atom_type_partial_charge
C1    C     C_R   0.497858 0.737031 0.505089 0.894118
C2    C     C_R   0.447899 0.405948 0.973860 0.073979
C3    C     C_R   0.489880 0.400538 0.861489 0.057713
C4    C     C_R   0.550365 0.434864 0.024119 0.036186
C5    C     C_R   0.690813 0.452622 0.961172 0.119545
C6    C     C_R   0.731330 0.414307 0.854462 -0.238962
C7    C     C_R   0.631831 0.376937 0.807585 0.106807
C8    C     C_R   0.516399 0.452995 0.133853 -0.250555
C9    C     C_R   0.751019 0.518633 0.118279 -0.243668
C10   C     C_R   0.388877 0.422053 0.808276 -0.134687
C11   C     C_2   0.607818 0.066641 0.507195 -0.154653
C12   C     C_R   0.426857 0.475262 0.699472 0.872891
C13   C     C_2   0.508328 0.131938 0.483432 -0.287594
C14   C     C_2   0.608462 0.933238 0.498672 -0.162084
C15   C     C_2   0.490028 0.867705 0.526174 -0.054439
C16   C     C_2   0.102344 0.440453 0.430220 -0.121728
C17   C     C_2   0.951718 0.436724 0.432655 -0.153128
C18   C     C_R   0.501884 0.263033 0.496230 0.891815
C19   C     C_R   0.575190 0.500424 0.296694 0.881993
C20   C     C_R   0.788638 0.501798 0.007647 0.117123
C21   C     C_R   0.616224 0.491060 0.181049 -0.079719
C22   C     C_R   0.249797 0.398071 0.862725 -0.189853
C23   C     C_R   0.208812 0.375725 0.972598 -0.158558
C24   C     C_R   0.305232 0.386741 0.029153 -0.166349
H1    H     H_    0.826487 0.552893 0.155220 0.153219
H2    H     H_    0.430498 0.088794 0.453209 0.167065
H3    H     H_    0.176428 0.389487 0.366832 0.150829
H4    H     H_    0.925819 0.379013 0.373750 0.162615
H5    H     H_    0.876865 0.556509 0.552567 0.167448
H6    H     H_    0.265267 0.377362 0.114842 0.118113
H7    H     H_    0.101102 0.356262 0.015140 0.138413
N1    N     N_2   0.148270 0.498670 0.498870 -0.191311
N2    N     N_2   0.852610 0.498640 0.498840 -0.209744
O1    O     O_R   0.386950 0.680940 0.500020 -0.610011
O2    O     O_R   0.613110 0.680900 0.499980 -0.612295
O3    O     O_R   0.330780 0.500000 0.653640 -0.611625
O4    O     O_R   0.556930 0.499960 0.653610 -0.617708
O5    O     O_R   0.386890 0.319100 0.500020 -0.612438
O6    O     O_R   0.613050 0.319060 0.499980 -0.634401
O7    O     O_R   0.443070 0.500040 0.346390 -0.617028
O8    O     O_R   0.669220 0.500000 0.346360 -0.610018
Zn1   Zn    Zn3+2 0.349000 0.500030 0.500020 0.938113
Zn2   Zn    Zn3+2 0.651000 0.499970 0.499980 0.922345
H8    H     H_    0.709224 0.888795 0.465472 0.153588
N3    N     N_3   0.358404 0.921721 0.584766 -0.444051
H9    H     H_    0.288045 0.907373 0.541402 0.189586
H10   H     H_    0.321309 0.874016 0.657548 0.192513
H11   H     H_    0.078225 0.543431 0.561183 0.161963
H12   H     H_    0.839885 0.406642 0.808458 0.153757
N4    N     N_3   0.924162 0.537209 0.941824 -0.461268
H13   H     H_    0.974074 0.454465 0.912523 0.162442
H14   H     H_    0.981083 0.577853 0.987694 0.190633
H15   H     H_    0.412272 0.436880 0.184601 0.156917
H16   H     H_    0.174698 0.396679 0.818960 0.154231
N5    N     N_3   0.674830 0.296052 0.716623 -0.450521
H17   H     H_    0.739622 0.344921 0.651929 0.228932
H18   H     H_    0.588975 0.262227 0.696577 0.192532
H19   H     H_    0.691721 0.110659 0.529693 0.170970

loop_
_geom_bond_atom_site_label_1
_geom_bond_atom_site_label_2
_ccdc_geom_bond_type
C8    H15   S    
O4    Zn2   S    
N4    H14   S    
C23   C24   A    
C6    C7    A    
C1    C15   S    
C16   N1    D    
C11   H19   S    
O8    Zn2   S    
C9    C20   A    
O3    Zn1   S    
O1    Zn1   S    
C7    N5    S    
C18   O6    A    
N5    H17   S    
O7    Zn1   S    
N4    H13   S    
C18   O5    A    
C9    H1    S    
C22   H16   S    
C3    C10   A    
N3    H9    S    
C10   C22   A    
C11   C13   D    
C9    C21   A    
N1    H11   S    
C17   N2    D    
C13   C18   S    
C16   H3    S    
C2    C4    A    
C10   C12   S    
C19   C21   S    
C1    O1    A    
O5    Zn1   S    
C3    C7    A    
C2    C3    A    
N5    H18   S    
C6    H12   S    
C2    C24   A    
C5    C6    A    
C11   C14   S    
C24   H6    S    
C13   H2    S    
C12   O3    A    
C19   O7    A    
C15   N3    S    
N2    Zn2   S    
H5    N2    S    
C12   O4    A    
O2    Zn2   S    
C1    O2    A    
C14   H8    S    
N3    H10   S    
C4    C8    A    
C5    C20   A    
N1    Zn1   S    
C14   C15   D    
C16   C17   S    
C20   N4    S    
O6    Zn2   S    
C17   H4    S    
C22   C23   A    
C19   O8    A    
C23   H7    S    
C4    C5    A    
C8    C21   A    
