data_mof_unit_59247.cif
_audit_creation_date              2012-12-11T16:08:41-0500
_audit_creation_method            fapswitch 2.2
_symmetry_space_group_name_H-M    P1
_symmetry_Int_Tables_number       1
_space_group_crystal_system       triclinic
_cell_length_a                    12.957652
_cell_length_b                    13.285076
_cell_length_c                    27.72897
_cell_angle_alpha                 94.936107
_cell_angle_beta                  90.013394
_cell_angle_gamma                 119.055092
_cell_volume                      4152.32959392

loop_
_atom_site_label
_atom_site_type_symbol
_atom_type_description
_atom_site_fract_x
_atom_site_fract_y
_atom_site_fract_z
_atom_type_partial_charge
C1    C     C_R   0.627613 0.895436 0.427179 0.553567
C2    C     C_R   0.574146 0.295744 0.224223 -0.114512
C3    C     C_R   0.564170 0.282473 0.273706 -0.159553
C4    C     C_R   0.665186 0.318148 0.303784 0.043173
C5    C     C_R   0.685397 0.344791 0.204270 -0.004573
C6    C     C_1   0.695529 0.368131 0.154164 -0.045236
C7    C     C_1   0.651149 0.296784 0.354116 -0.024036
C8    C     C_1   0.704113 0.395394 0.113338 -0.001379
C9    C     C_R   0.169767 0.750283 0.351751 -0.108323
C10   C     C_R   0.154509 0.740965 0.301795 0.024970
C11   C     C_R   0.137144 0.726245 0.201207 -0.004071
C12   C     C_R   0.601047 0.222067 0.440586 0.541359
C13   C     C_R   0.120292 0.630106 0.224353 -0.122953
C14   C     C_R   0.127759 0.637142 0.274487 -0.103397
C15   C     C_R   0.122517 0.716479 0.151575 -0.162050
C16   C     C_R   0.122902 0.806003 0.127928 0.014758
C17   C     C_R   0.223270 0.953624 0.356065 -0.134999
C18   C     C_R   0.206999 0.945308 0.305974 0.014165
C19   C     C_R   0.174275 0.839084 0.278628 0.065294
C20   C     C_R   0.231784 0.043310 0.282538 -0.153215
C21   C     C_R   0.221934 0.035680 0.232122 -0.129454
C22   C     C_R   0.182405 0.928674 0.204371 0.021035
C23   C     C_R   0.268975 0.876589 0.425914 0.547114
C24   C     C_R   0.164139 0.831378 0.228037 0.021606
C25   C     C_R   0.157550 0.914892 0.153825 0.245049
C26   C     C_R   0.211103 0.857850 0.378533 -0.006742
C27   C     C_R   0.748680 0.936987 0.355853 -0.179823
C28   C     C_R   0.752190 0.927192 0.305770 0.001904
C29   C     C_R   0.750724 0.917321 0.204939 0.009395
C30   C     C_R   0.842755 0.010848 0.232865 -0.132757
C31   C     C_R   0.844625 0.014546 0.283017 -0.128139
C32   C     C_R   0.754448 0.909459 0.155064 -0.159766
C33   C     C_R   0.675814 0.807411 0.126919 0.007627
C34   C     C_R   0.626921 0.899065 0.565093 0.543418
C35   C     C_R   0.561237 0.756833 0.351735 0.247185
C36   C     C_R   0.563920 0.746451 0.300963 0.024643
C37   C     C_R   0.658309 0.833189 0.277993 0.023048
C38   C     C_R   0.471384 0.653803 0.272637 -0.125324
C39   C     C_R   0.472617 0.646577 0.222245 -0.128879
C40   C     C_R   0.566324 0.732142 0.198677 0.028033
C41   C     C_R   0.658427 0.827198 0.227168 0.047164
C42   C     C_R   0.573634 0.723197 0.147741 0.074711
C43   C     C_R   0.649525 0.857892 0.378747 -0.008092
C44   C     C_R   0.738569 0.300205 0.652591 -0.127768
C45   C     C_R   0.601772 0.225552 0.578916 0.546110
C46   C     C_R   0.751602 0.319735 0.703202 0.016074
C47   C     C_R   0.771108 0.349296 0.805002 0.008256
C48   C     C_R   0.866414 0.357455 0.778284 -0.125837
C49   C     C_R   0.856294 0.341651 0.727662 -0.114251
C50   C     C_R   0.782421 0.372631 0.855393 -0.134215
C51   C     C_R   0.688272 0.371240 0.881081 -0.004291
C52   C     C_R   0.542728 0.282134 0.656018 -0.129443
C53   C     C_R   0.551626 0.294689 0.706109 0.005266
C54   C     C_R   0.656054 0.312948 0.729980 0.063243
C55   C     C_R   0.455413 0.284280 0.732552 -0.142746
C56   C     C_R   0.271948 0.879671 0.563481 0.545957
C57   C     C_R   0.462619 0.292334 0.782823 -0.140009
C58   C     C_R   0.567227 0.314005 0.807027 0.009823
C59   C     C_R   0.664545 0.324382 0.780681 0.064122
C60   C     C_R   0.578557 0.333294 0.857144 -0.129340
C61   C     C_R   0.632470 0.277628 0.629077 -0.005330
C62   C     C_1   0.222834 0.863479 0.610331 -0.008046
C63   C     C_R   0.088633 0.741386 0.718711 -0.100610
C64   C     C_R   0.074523 0.731511 0.768362 -0.102577
C65   C     C_R   0.225788 0.932163 0.785893 -0.097701
C66   C     C_R   0.239936 0.942002 0.736178 -0.093766
C67   C     C_1   0.632988 0.269531 0.394911 -0.016598
C68   C     C_R   0.171532 0.846584 0.702495 0.041870
C69   C     C_R   0.143607 0.826541 0.802076 0.036792
C70   C     C_1   0.126102 0.814763 0.852975 -0.055228
C71   C     C_1   0.194410 0.854402 0.651790 -0.050493
C72   C     C_1   0.101759 0.797560 0.894501 -0.008612
C73   C     C_1   0.642132 0.866640 0.611491 0.013203
C74   C     C_R   0.750822 0.920572 0.734102 0.111833
C75   C     C_R   0.751571 0.910331 0.783883 -0.078208
C76   C     C_R   0.568234 0.728545 0.772826 -0.109979
C77   C     C_R   0.566805 0.738455 0.723003 -0.129054
C78   C     C_R   0.777214 0.365710 0.283912 0.285550
C79   C     C_R   0.658019 0.834113 0.703381 0.046813
C80   C     C_R   0.660328 0.814882 0.803405 0.014139
C81   C     C_1   0.667995 0.801786 0.854098 -0.051100
C82   C     C_1   0.650570 0.847984 0.652711 -0.015827
C83   C     C_1   0.683763 0.790883 0.895756 -0.004407
C84   C     C_R   0.065252 0.772536 0.079226 0.571175
C85   C     C_R   0.717209 0.441660 0.067407 0.546162
C86   C     C_R   0.718425 0.783292 0.080415 0.558902
C87   C     C_R   0.056778 0.766222 0.941300 0.552238
C88   C     C_R   0.710194 0.432878 0.929418 0.544022
C89   C     C_R   0.786975 0.380513 0.234182 -0.091422
C90   C     C_R   0.716433 0.776252 0.943011 0.550163
Cr1   Cr    Cr6+3 0.416430 0.829200 0.492370 1.044272
Cr2   Cr    Cr6+3 0.674630 0.087020 0.504170 1.028976
Cr3   Cr    Cr6+3 0.408920 0.083740 0.503490 1.019284
Cr4   Cr    Cr6+3 0.914010 0.832750 0.013970 1.017565
Cr5   Cr    Cr6+3 0.922310 0.578600 0.003000 1.029992
Cr6   Cr    Cr6+3 0.656280 0.574630 0.003870 1.069501
H1    H     H_    0.245757 0.114017 0.215247 0.137059
H2    H     H_    0.260534 0.126300 0.303179 0.097624
H3    H     H_    0.255773 0.037197 0.376786 0.131412
H4    H     H_    0.826901 0.978881 0.138665 0.121758
H5    H     H_    0.818302 0.012992 0.376505 0.139793
H6    H     H_    0.914580 0.079913 0.215900 0.089357
H7    H     H_    0.917207 0.086796 0.304025 0.097446
H8    H     H_    0.400017 0.572329 0.202428 0.148081
H9    H     H_    0.397239 0.586391 0.289276 0.148384
H10   H     H_    0.873519 0.420740 0.219161 0.111791
H11   H     H_    0.866994 0.400552 0.873956 0.132277
H12   H     H_    0.808108 0.297195 0.631854 0.134561
H13   H     H_    0.948886 0.376804 0.796508 0.121242
H14   H     H_    0.930459 0.347323 0.707661 0.136697
H15   H     H_    0.504967 0.329856 0.877001 0.135319
H16   H     H_    0.387605 0.284632 0.802776 0.115994
H17   H     H_    0.374225 0.268688 0.714336 0.120474
H18   H     H_    0.460609 0.265672 0.638320 0.140963
H19   H     H_    0.036313 0.666701 0.693083 0.113090
H20   H     H_    0.495182 0.269232 0.201649 0.137101
H21   H     H_    0.010153 0.649567 0.780489 0.117017
H22   H     H_    0.279151 0.006371 0.811575 0.115402
H23   H     H_    0.305402 0.023347 0.724012 0.122499
H24   H     H_    0.823986 0.976460 0.807284 0.138094
H25   H     H_    0.498105 0.653447 0.787414 0.121433
H26   H     H_    0.494169 0.671936 0.699824 0.115788
H27   H     H_    0.477489 0.244272 0.288585 0.114068
H28   H     H_    0.099447 0.633494 0.131994 0.155584
H29   H     H_    0.159856 0.676237 0.369206 0.143531
H30   H     H_    0.099756 0.549007 0.203691 0.104838
H31   H     H_    0.115017 0.562254 0.291779 0.133755
O1    O     O_R   0.296680 0.802170 0.437540 -0.499029
O2    O     O_R   0.662610 0.183990 0.557860 -0.496648
O3    O     O_R   0.500730 0.201280 0.562180 -0.521731
O4    O     O_R   0.312500 0.978850 0.548170 -0.494018
O5    O     O_3   0.499990 0.999990 0.500010 -0.250250
O6    O     O_R   0.820790 0.857990 0.068830 -0.549919
O7    O     O_R   0.016700 0.827330 0.062850 -0.482379
O8    O     O_R   0.041970 0.673520 0.060040 -0.524457
O9    O     O_R   0.817980 0.483660 0.048840 -0.502944
O10   O     O_R   0.637200 0.461990 0.052510 -0.482324
O11   O     O_R   0.664790 0.681920 0.057970 -0.457929
O12   O     O_R   0.525380 0.838530 0.443500 -0.446146
O13   O     O_R   0.815840 0.852920 0.961840 -0.510841
O14   O     O_R   0.012100 0.822630 0.963670 -0.494463
O15   O     O_R   0.037010 0.668460 0.953040 -0.506100
O16   O     O_R   0.813390 0.478970 0.949660 -0.504548
O17   O     O_R   0.632250 0.456930 0.945520 -0.514783
O18   O     O_R   0.660200 0.677230 0.958780 -0.487312
O19   O     O_3   0.830870 0.661990 0.006950 -0.256393
O20   O     O_R   0.702130 0.995190 0.446810 -0.531792
O21   O     O_R   0.661770 0.181390 0.458760 -0.493659
O22   O     O_R   0.499820 0.198480 0.455280 -0.517904
O23   O     O_R   0.311660 0.976250 0.449080 -0.507602
O24   O     O_R   0.297580 0.804960 0.544440 -0.511730
O25   O     O_R   0.526220 0.841130 0.542590 -0.507027
O26   O     O_R   0.703030 0.997990 0.553710 -0.493786
O27   O     O_3   0.877432 0.403825 0.313613 -0.564321
C91   C     C_3   0.909956 0.316421 0.311562 -0.021766
H32   H     H_    0.950540 0.312902 0.276521 0.119783
H33   H     H_    0.832720 0.229694 0.315791 0.140660
C92   C     C_3   0.999965 0.343738 0.352825 -0.373169
H34   H     H_    0.960124 0.345084 0.388172 0.168069
H35   H     H_    0.027903 0.276729 0.351216 0.083851
H36   H     H_    0.079168 0.429237 0.350178 0.147128
I1    I     I_    0.429512 0.587803 0.102899 -0.390199
O28   O     O_3   0.465061 0.675166 0.374024 -0.546833
C93   C     C_3   0.495741 0.595750 0.391177 -0.011660
H37   H     H_    0.568805 0.639512 0.419598 0.130943
H38   H     H_    0.522940 0.553784 0.361047 0.123849
C94   C     C_3   0.388794 0.501636 0.413374 -0.366500
H39   H     H_    0.314658 0.455693 0.385685 0.141330
H40   H     H_    0.411661 0.438329 0.426954 0.103492
H41   H     H_    0.360439 0.540453 0.444068 0.161494
I2    I     I_    0.891575 0.068501 0.707507 -0.436953
O29   O     O_3   0.172982 0.007340 0.129157 -0.556304
C95   C     C_3   0.076308 0.027751 0.136151 -0.000176
H42   H     H_    0.084138 0.074780 0.172146 0.103857
H43   H     H_    0.990488 0.945943 0.133461 0.162915
C96   C     C_3   0.075157 0.102619 0.097809 -0.329663
H44   H     H_    0.063183 0.056785 0.061092 0.180554
H45   H     H_    0.001720 0.122243 0.103408 0.084864
H46   H     H_    0.159902 0.185385 0.100315 0.161647

loop_
_geom_bond_atom_site_label_1
_geom_bond_atom_site_label_2
_ccdc_geom_bond_type
C50   H11   S    
Cr4   O19   S    
C66   C68   A    
C84   O8    A    
C45   O2    A    
Cr2   O21   S    
Cr4   O13   S    
C53   C55   A    
Cr3   O22   S    
C35   C36   A    
C39   H8    S    
C94   H40   S    
C53   C54   A    
C52   C53   A    
Cr5   O16   S    
Cr6   O18   S    
C46   C49   A    
C84   O7    A    
C5    C6    S    
C33   C42   A    
C27   C28   A    
C93   H37   S    
Cr2   O5    S    
C8    C85   S    
C90   O18   A    
C52   C61   A    
Cr6   O11   S    
C38   C39   A    
C65   C69   A    
C95   C96   S    
C57   H16   S    
C91   H33   S    
C58   C60   A    
C15   C16   A    
C11   C24   A    
C16   C84   S    
Cr4   O6    S    
C18   C19   A    
C23   C26   S    
C45   C61   S    
C77   H26   S    
C92   H36   S    
C11   C15   A    
C1    C43   S    
C96   H46   S    
O28   C93   S    
C44   C46   A    
C22   C25   A    
C89   H10   S    
C65   H22   S    
Cr2   O26   S    
C47   C50   A    
Cr3   O5    S    
C35   C43   A    
C75   C80   A    
C88   O16   A    
C18   C20   A    
C1    O12   A    
C63   H19   S    
C40   C42   A    
C48   H13   S    
C45   O3    A    
C21   C22   A    
Cr2   O20   S    
C92   H35   S    
C46   C54   A    
Cr3   O23   S    
Cr5   O19   S    
C2    H20   S    
C4    C7    S    
C81   C83   T    
C3    H27   S    
C9    C26   A    
C50   C51   A    
C94   H41   S    
C34   C73   S    
C54   C59   A    
C44   H12   S    
C78   C89   A    
C96   H45   S    
C12   C67   S    
C15   H28   S    
C76   C77   A    
Cr1   O1    S    
C94   H39   S    
C34   O25   A    
C78   O27   S    
C6    C8    T    
Cr1   O5    S    
C55   H17   S    
C58   C59   A    
C95   H42   S    
C7    C67   T    
C27   H5    S    
C9    H29   S    
C64   H21   S    
C32   H4    S    
C31   H7    S    
C86   O11   A    
C33   C86   S    
Cr2   O2    S    
C4    C78   A    
C29   C30   A    
Cr6   O17   S    
C21   H1    S    
C86   O6    A    
C47   C48   A    
C10   C19   A    
C30   H6    S    
Cr5   O8    S    
C17   C18   A    
C74   I2    S    
C77   C79   A    
C64   C69   A    
C87   O14   A    
C56   O24   A    
C17   H3    S    
O27   C91   S    
C95   H43   S    
Cr1   O12   S    
C13   H30   S    
C25   O29   S    
C40   C41   A    
C23   O23   A    
C74   C79   A    
C55   C57   A    
C10   C14   A    
C92   H34   S    
C22   C24   A    
C1    O20   A    
C2    C5    A    
C17   C26   A    
Cr3   O3    S    
C85   O10   A    
C73   C82   T    
Cr6   O10   S    
C72   C87   S    
O29   C95   S    
C9    C10   A    
C34   O26   A    
C16   C25   A    
C83   C90   S    
C63   C68   A    
C96   H44   S    
C29   C41   A    
C20   C21   A    
Cr4   O14   S    
C12   O22   A    
C28   C31   A    
C75   H24   S    
C76   C80   A    
C80   C81   S    
C51   C88   S    
C79   C82   S    
C90   O13   A    
C42   I1    S    
C52   H18   S    
C44   C61   A    
C29   C32   A    
Cr6   O19   S    
C66   H23   S    
C32   C33   A    
C12   O21   A    
C38   H9    S    
C93   H38   S    
C2    C3    A    
C60   H15   S    
Cr3   O4    S    
Cr1   O24   S    
C11   C13   A    
C57   C58   A    
C30   C31   A    
C28   C37   A    
C68   C71   S    
C48   C49   A    
C36   C38   A    
Cr5   O9    S    
Cr4   O7    S    
C62   C71   T    
C19   C24   A    
C56   C62   S    
C93   C94   S    
C87   O15   A    
C37   C41   A    
C69   C70   S    
C76   H25   S    
C35   O28   S    
C56   O4    A    
C14   H31   S    
C85   O9    A    
C47   C59   A    
C63   C64   A    
C39   C40   A    
C27   C43   A    
C20   H2    S    
C74   C75   A    
Cr5   O15   S    
C36   C37   A    
C65   C66   A    
C91   H32   S    
C49   H14   S    
C70   C72   T    
C51   C60   A    
Cr1   O25   S    
C13   C14   A    
C88   O17   A    
C5    C89   A    
C3    C4    A    
C23   O1    A    
C91   C92   S    
