data_mof_unit_50554.cif
_audit_creation_date              2012-12-11T15:18:34-0500
_audit_creation_method            fapswitch 2.2
_symmetry_space_group_name_H-M    P1
_symmetry_Int_Tables_number       1
_space_group_crystal_system       triclinic
_cell_length_a                    6.942067
_cell_length_b                    19.968946
_cell_length_c                    23.804569
_cell_angle_alpha                 93.808343
_cell_angle_beta                  91.172468
_cell_angle_gamma                 88.716988
_cell_volume                      3291.21855359

loop_
_atom_site_label
_atom_site_type_symbol
_atom_type_description
_atom_site_fract_x
_atom_site_fract_y
_atom_site_fract_z
_atom_type_partial_charge
O1    O     O_R   0.620100 0.812200 0.810870 -0.539440
O2    O     O_R   0.379900 0.187800 0.189130 -0.540669
O3    O     O_R   0.296960 0.671650 0.794750 -0.538281
O4    O     O_R   0.703040 0.328350 0.205250 -0.538830
O5    O     O_R   0.120160 0.687800 0.689130 -0.540151
O6    O     O_R   0.879840 0.312200 0.310870 -0.537843
C1    C     C_R   0.468566 0.647337 0.804938 0.693835
C2    C     C_R   0.531433 0.352657 0.195053 0.694802
O7    O     O_R   0.290810 0.810670 0.817290 -0.543961
O8    O     O_R   0.709190 0.189330 0.182710 -0.544985
O9    O     O_R   0.113980 0.827820 0.711840 -0.543080
O10   O     O_R   0.886020 0.172180 0.288160 -0.535461
C3    C     C_R   0.459462 0.831796 0.834246 0.706269
C4    C     C_R   0.540535 0.168213 0.165746 0.702221
O11   O     O_R   0.626290 0.672180 0.788160 -0.537449
O12   O     O_R   0.373710 0.327820 0.211840 -0.537030
O13   O     O_3   0.451520 0.755460 0.715370 -0.367606
O14   O     O_3   0.548480 0.244540 0.284630 -0.371038
V1    V     V_3+5 0.179200 0.748980 0.756420 1.407401
V2    V     V_3+5 0.820800 0.251020 0.243580 1.418261
O15   O     O_R   0.783880 0.828350 0.705250 -0.530056
O16   O     O_R   0.216120 0.171650 0.294750 -0.547275
C5    C     C_R   0.950781 0.852095 0.694261 0.722134
C6    C     C_R   0.049748 0.147623 0.305078 0.762705
O17   O     O_R   0.790030 0.689320 0.682700 -0.544824
O18   O     O_R   0.209970 0.310680 0.317300 -0.544411
C7    C     C_R   0.958930 0.666688 0.666727 0.687481
C8    C     C_R   0.041013 0.331668 0.334422 0.729060
V3    V     V_3+5 0.678400 0.751010 0.743570 1.425769
V4    V     V_3+5 0.321600 0.248990 0.256430 1.405681
O19   O     O_3   0.955950 0.744540 0.784620 -0.369336
O20   O     O_3   0.044050 0.255460 0.215380 -0.371294
C9    C     C_R   0.181386 0.425436 0.396737 -0.227465
C10   C     C_R   0.818412 0.572887 0.604476 -0.217583
C11   C     C_R   0.030812 0.380459 0.384189 -0.082483
C12   C     C_R   0.969128 0.617788 0.617029 -0.083233
C13   C     C_R   0.868261 0.383153 0.418798 -0.205671
C14   C     C_R   0.131500 0.615134 0.582354 -0.231769
C15   C     C_R   0.855972 0.429720 0.465569 0.084880
C16   C     C_R   0.143623 0.568635 0.535563 0.090809
C17   C     C_R   0.006159 0.475329 0.477316 0.052111
C18   C     C_R   0.993424 0.523034 0.523827 0.054182
C19   C     C_R   0.168944 0.473377 0.442590 0.092496
C20   C     C_R   0.830678 0.524987 0.558573 0.090407
C21   C     C_R   0.696007 0.431564 0.500820 -0.188579
C22   C     C_R   0.303501 0.566843 0.500289 -0.192931
C23   C     C_R   0.683636 0.478685 0.546935 -0.184153
C24   C     C_R   0.315900 0.519718 0.454191 -0.184147
H1    H     H_    0.306453 0.424060 0.370095 0.121016
H2    H     H_    0.693391 0.574320 0.631138 0.120568
H3    H     H_    0.752036 0.348463 0.409662 0.131133
H4    H     H_    0.247686 0.649853 0.591415 0.128680
H5    H     H_    0.579605 0.396797 0.492521 0.134449
H6    H     H_    0.419866 0.601629 0.508577 0.135135
H7    H     H_    0.558173 0.479177 0.573317 0.134883
H8    H     H_    0.441349 0.519238 0.427804 0.134228
C25   C     C_R   0.958636 0.912337 0.661391 -0.118079
C26   C     C_R   0.050256 0.086793 0.336692 -0.124969
C27   C     C_R   0.997489 0.032732 0.664408 -0.162004
C28   C     C_R   0.126627 0.968577 0.338752 -0.159947
C29   C     C_R   0.984898 0.973790 0.691848 -0.236459
C30   C     C_R   0.116189 0.026682 0.309914 -0.258609
C31   C     C_R   0.952829 0.909704 0.601136 0.386289
C32   C     C_R   0.995500 0.089142 0.393682 0.365901
C33   C     C_R   0.988487 0.969345 0.572921 0.005268
C34   C     C_R   0.028885 0.031611 0.425980 -0.018180
C35   C     C_R   0.998108 0.031199 0.605549 0.089274
C36   C     C_R   0.084338 0.970416 0.396132 0.091928
C37   C     C_R   0.015945 0.969865 0.513241 0.076879
C38   C     C_R   0.012690 0.031988 0.486245 0.050157
C39   C     C_R   0.014534 0.092001 0.520976 -0.163259
C40   C     C_R   0.069354 0.911029 0.480953 -0.124400
C41   C     C_R   0.011172 0.091356 0.579300 -0.199640
C42   C     C_R   0.104201 0.911434 0.423929 -0.199166
H9    H     H_    0.019940 0.138693 0.604219 0.125337
H10   H     H_    0.150604 0.865018 0.401489 0.123447
H11   H     H_    0.157086 0.024595 0.266121 0.130310
H12   H     H_    0.990776 0.976364 0.737487 0.124840
H13   H     H_    0.010246 0.079819 0.689474 0.125264
H14   H     H_    0.173433 0.922180 0.316398 0.126352
H15   H     H_    0.035152 0.140219 0.504584 0.186351
H16   H     H_    0.103169 0.864808 0.499804 0.158770
C43   C     C_R   0.488857 0.586059 0.836164 -0.043442
C44   C     C_R   0.511144 0.413932 0.163822 -0.043620
C45   C     C_R   0.597700 0.470316 0.837602 -0.162325
C46   C     C_R   0.402332 0.529678 0.162382 -0.162240
C47   C     C_R   0.560163 0.527279 0.808257 -0.164928
C48   C     C_R   0.439868 0.472717 0.191728 -0.165498
C49   C     C_R   0.456124 0.587590 0.894406 -0.216565
C50   C     C_R   0.543857 0.412396 0.105578 -0.216357
C51   C     C_R   0.498091 0.530396 0.925828 0.085940
C52   C     C_R   0.501902 0.469591 0.074155 0.085884
C53   C     C_R   0.569158 0.471447 0.895852 0.139288
C54   C     C_R   0.430853 0.528543 0.104131 0.139394
C55   C     C_R   0.475591 0.529771 0.985734 0.057787
C56   C     C_R   0.524400 0.470215 0.014249 0.057734
C57   C     C_R   0.593201 0.413248 0.981873 -0.187645
C58   C     C_R   0.406798 0.586739 0.018110 -0.187681
C59   C     C_R   0.614449 0.414017 0.924080 -0.200985
C60   C     C_R   0.385562 0.585972 0.075903 -0.201038
H17   H     H_    0.668731 0.368984 0.901181 0.123324
H18   H     H_    0.331293 0.631007 0.098802 0.123260
H19   H     H_    0.595640 0.365370 0.086097 0.095820
H20   H     H_    0.404316 0.634613 0.913887 0.095726
H21   H     H_    0.411591 0.474286 0.236408 0.104929
H22   H     H_    0.588461 0.525716 0.763579 0.105202
H23   H     H_    0.652908 0.425409 0.814761 0.113620
H24   H     H_    0.347144 0.574588 0.185222 0.113475
H25   H     H_    0.633053 0.366813 0.999948 0.123162
H26   H     H_    0.366951 0.633175 0.000036 0.123105
C61   C     C_R   0.679183 0.071157 0.106528 -0.216243
C62   C     C_R   0.320881 0.928907 0.893414 -0.214877
C63   C     C_R   0.530393 0.119072 0.116291 -0.084190
C64   C     C_R   0.469615 0.880964 0.883679 -0.084287
C65   C     C_R   0.370390 0.119161 0.079322 -0.216109
C66   C     C_R   0.629639 0.880889 0.920639 -0.215927
C67   C     C_R   0.358949 0.072551 0.032627 0.058300
C68   C     C_R   0.641134 0.927527 0.967310 0.058355
C69   C     C_R   0.507234 0.023836 0.023263 0.010681
C70   C     C_R   0.492859 0.976246 0.976669 0.010757
C71   C     C_R   0.669068 0.022591 0.060631 0.090739
C72   C     C_R   0.331035 0.977493 0.939297 0.090721
C73   C     C_R   0.200203 0.074044 0.995384 -0.182483
C74   C     C_R   0.799929 0.926055 0.004534 -0.182722
C75   C     C_R   0.184715 0.027507 0.948684 0.163274
C76   C     C_R   0.815443 0.972600 0.051225 0.163837
H27   H     H_    0.800456 0.071416 0.135819 0.132635
H28   H     H_    0.199626 0.928651 0.864115 0.132127
H29   H     H_    0.255323 0.156157 0.086604 0.124582
H30   H     H_    0.744686 0.843882 0.913367 0.124174
H31   H     H_    0.087457 0.111877 0.002815 0.127485
H32   H     H_    0.912688 0.888228 0.997097 0.127488
C77   C     C_3   0.013304 0.033199 0.909128 -0.792350
H33   H     H_    0.911129 0.073959 0.923801 0.211572
H34   H     H_    0.062948 0.044195 0.866729 0.201600
H35   H     H_    0.933590 0.985601 0.905836 0.216294
C78   C     C_3   0.986939 0.966932 0.090752 -0.793851
H36   H     H_    0.089212 0.926221 0.076041 0.211392
H37   H     H_    0.066514 0.014559 0.094066 0.215913
H38   H     H_    0.937406 0.955876 0.133146 0.203028
O21   O     O_3   0.908438 0.147551 0.416157 -0.577343
C79   C     C_3   0.707183 0.138949 0.414980 -0.239694
H39   H     H_    0.665483 0.099171 0.442706 0.144094
H40   H     H_    0.651381 0.127328 0.371310 0.150887
H41   H     H_    0.636793 0.186638 0.431059 0.158303
O22   O     O_3   0.871947 0.855767 0.569850 -0.557249
C80   C     C_3   0.974391 0.795020 0.576886 -0.282299
H42   H     H_    0.980851 0.765927 0.535585 0.157798
H43   H     H_    0.125468 0.801435 0.592855 0.116270
H44   H     H_    0.891524 0.764939 0.604565 0.160780

loop_
_geom_bond_atom_site_label_1
_geom_bond_atom_site_label_2
_ccdc_geom_bond_type
C26   C30   A    
C43   C47   A    
C31   C33   A    
C76   C78   S    
C58   H26   S    
C61   C71   A    
O13   V3    S    
C17   C18   A    
C52   C54   A    
C30   H11   S    
C34   C36   A    
C55   C56   A    
C24   H8    S    
O4    C2    A    
V1    O19   S    
C62   C64   A    
C55   C58   A    
C15   C17   A    
C16   C22   A    
C78   H37   S    
O9    V1    S    
C18   C20   A    
C23   H7    S    
C80   H43   S    
O3    C1    A    
C67   C69   A    
V2    O20   S    
C13   H3    S    
C46   C48   A    
C73   C75   A    
C14   H4    S    
C32   O21   S    
C36   C42   A    
C52   C56   A    
C74   H32   S    
C28   C30   A    
C21   C23   A    
O7    C3    A    
C46   C54   A    
C27   C35   A    
O5    C7    A    
C45   C53   A    
O7    V1    S    
O6    C8    A    
C80   H42   S    
C8    C11   S    
O8    V2    S    
C33   C35   A    
C77   H35   S    
O3    V1    S    
C38   C39   A    
C35   C41   A    
C49   C51   A    
C19   C24   A    
C53   C59   A    
C31   O22   S    
C10   C12   A    
C3    C64   S    
C20   C23   A    
C15   C21   A    
C73   H31   S    
C45   C47   A    
C21   H5    S    
C2    O12   A    
C26   C32   A    
C41   H9    S    
C79   H41   S    
C22   H6    S    
C44   C50   A    
O1    V3    S    
C57   C59   A    
C70   C72   A    
O11   V3    S    
C69   C71   A    
O17   V3    S    
C43   C49   A    
C78   H38   S    
C22   C24   A    
C27   C29   A    
C10   H2    S    
C9    C19   A    
C80   H44   S    
C10   C20   A    
C40   C42   A    
O8    C4    A    
C27   H13   S    
C39   C41   A    
C1    O11   A    
C65   C67   A    
O15   V3    S    
C32   C34   A    
C37   C40   A    
C62   C72   A    
V4    O20   S    
C51   C53   A    
C57   H25   S    
C50   C52   A    
C54   C60   A    
C29   H12   S    
C56   C57   A    
O10   V2    S    
C60   H18   S    
C61   C63   A    
C68   C74   A    
C42   H10   S    
O14   V4    S    
C6    C26   S    
C59   H17   S    
O18   V4    S    
C58   C60   A    
O15   C5    A    
C49   H20   S    
C61   H27   S    
C77   H33   S    
O16   C6    A    
O1    C3    A    
O12   V4    S    
C79   H40   S    
C74   C76   A    
O22   C80   S    
C65   H29   S    
C75   C77   S    
C5    C25   S    
C28   H14   S    
O16   V4    S    
C11   C13   A    
C2    C44   S    
C46   H24   S    
C17   C19   A    
C44   C48   A    
C25   C31   A    
C16   C18   A    
C64   C66   A    
C69   C70   A    
C25   C29   A    
O5    V1    S    
C7    C12   S    
O17   C7    A    
C4    C63   S    
O6    V2    S    
C78   H36   S    
O10   C6    A    
O18   C8    A    
O2    V4    S    
C72   C75   A    
C12   C14   A    
C67   C73   A    
C71   C76   A    
V3    O19   S    
O21   C79   S    
C14   C16   A    
C48   H21   S    
C9    C11   A    
C1    C43   S    
C34   C38   A    
C47   H22   S    
C33   C37   A    
O9    C5    A    
O13   V1    S    
C66   C68   A    
O14   V2    S    
C37   C38   A    
O2    C4    A    
C68   C70   A    
C50   H19   S    
C62   H28   S    
C51   C55   A    
O4    V2    S    
C66   H30   S    
C28   C36   A    
C13   C15   A    
C77   H34   S    
C79   H39   S    
C63   C65   A    
C45   H23   S    
C9    H1    S    
C40   H16   S    
C39   H15   S    
