data_mof_unit_6556.cif
_audit_creation_date              2012-12-11T19:41:53-0500
_audit_creation_method            fapswitch 2.2
_symmetry_space_group_name_H-M    P1
_symmetry_Int_Tables_number       1
_space_group_crystal_system       triclinic
_cell_length_a                    8.202189
_cell_length_b                    15.22287
_cell_length_c                    26.94613
_cell_angle_alpha                 99.408931
_cell_angle_beta                  92.587774
_cell_angle_gamma                 81.082546
_cell_volume                      3278.45481395

loop_
_atom_site_label
_atom_site_type_symbol
_atom_type_description
_atom_site_fract_x
_atom_site_fract_y
_atom_site_fract_z
_atom_type_partial_charge
Ba1   Ba    Ba6+2 0.860050 0.456430 0.522530 1.636408
Ba2   Ba    Ba6+2 0.329780 0.543490 0.477460 1.634972
C1    C     C_3   0.684047 0.138131 0.646817 -0.394904
C2    C     C_R   0.871643 0.570234 0.178826 0.582773
C3    C     C_2   0.733033 0.513606 0.270120 -0.068814
C4    C     C_3   0.211750 0.256103 0.654416 0.305561
C5    C     C_3   0.690212 0.509685 0.324150 -0.043062
C6    C     C_1   0.984577 0.479681 0.342072 0.030589
C7    C     C_2   0.025380 0.478909 0.294723 -0.096132
C8    C     C_2   0.893171 0.497913 0.255467 0.202558
C9    C     C_R   0.019391 0.499196 0.102135 -0.078402
C10   C     C_R   0.084099 0.426537 0.127057 -0.034498
C11   C     C_R   0.190140 0.354582 0.100923 -0.062578
C12   C     C_3   0.692477 0.228426 0.630418 0.327156
C13   C     C_R   0.911910 0.571273 0.128315 -0.030784
C14   C     C_2   0.838929 0.518891 0.358604 -0.278693
C15   C     C_2   0.354617 0.481255 0.640596 -0.271078
C16   C     C_3   0.232373 0.221504 0.704983 -0.213266
C17   C     C_R   0.218816 0.429063 0.974832 0.018744
C18   C     C_R   0.031420 0.571940 0.974649 0.019910
C19   C     C_R   0.146186 0.500586 0.949359 0.050138
C20   C     C_R   0.337152 0.361891 0.948915 -0.119276
C21   C     C_R   0.379720 0.362168 0.899274 -0.039649
C22   C     C_R   0.304790 0.431601 0.872654 -0.061353
C23   C     C_3   0.486480 0.686008 0.633384 0.306746
C24   C     C_R   0.188751 0.501045 0.898168 -0.077270
C25   C     C_R   0.115303 0.571555 0.872612 -0.028168
C26   C     C_R   0.157799 0.572769 0.822396 0.585160
C27   C     C_R   0.341120 0.433925 0.821487 0.561972
C28   C     C_3   0.226005 0.268801 0.412816 0.333410
C29   C     C_2   0.464988 0.490069 0.728886 -0.077627
C30   C     C_3   0.504939 0.490751 0.674450 -0.057313
C31   C     C_1   0.208971 0.520339 0.657533 0.043370
C32   C     C_2   0.171236 0.521424 0.705246 -0.127333
C33   C     C_2   0.305962 0.504569 0.744213 0.206493
C34   C     C_3   0.448741 0.722827 0.688791 -0.200604
C35   C     C_R   0.172858 0.427167 0.025385 0.022242
C36   C     C_R   0.061740 0.499681 0.051007 0.049575
C37   C     C_R   0.992328 0.572641 0.026070 0.019490
C38   C     C_R   0.233246 0.354625 0.051465 -0.099882
C39   C     C_R   0.847182 0.643501 0.103588 -0.063441
C40   C     C_3   0.298686 0.171023 0.395002 -0.403048
C41   C     C_R   0.959025 0.640412 0.947290 -0.100802
C42   C     C_R   0.000372 0.640210 0.897755 -0.066914
C43   C     C_R   0.886107 0.644339 0.053867 -0.100689
C44   C     C_R   0.851281 0.830680 0.470297 -0.002859
C45   C     C_3   0.941281 0.743179 0.349577 0.284020
C46   C     C_R   0.786359 0.922968 0.474222 -0.035876
C47   C     C_R   0.649335 0.109067 0.479140 -0.050300
C48   C     C_R   0.791037 0.069156 0.449787 -0.027807
C49   C     C_R   0.861941 0.980345 0.450815 -0.112157
C50   C     C_R   0.581586 0.203288 0.486186 0.046199
C51   C     C_R   0.437658 0.233152 0.513706 -0.292001
C52   C     C_3   0.972890 0.734192 0.588627 0.315532
C53   C     C_R   0.616623 0.804447 0.514064 0.036294
C54   C     C_R   0.552811 0.897321 0.520361 -0.020783
C55   C     C_R   0.636595 0.956903 0.499287 0.015251
C56   C     C_3   0.896624 0.776238 0.299677 -0.364614
C57   C     C_R   0.406932 0.931960 0.546390 -0.054212
C58   C     C_R   0.341031 0.022260 0.550084 -0.107767
C59   C     C_R   0.419804 0.082317 0.528697 -0.028474
C60   C     C_R   0.570145 0.049999 0.503039 0.005368
C61   C     C_R   0.351689 0.173726 0.532284 -0.003682
C62   C     C_R   0.760946 0.772281 0.487670 -0.291938
C63   C     C_3   0.916653 0.835216 0.606186 -0.205343
C64   C     C_3   0.721170 0.328111 0.370272 0.326607
C65   C     C_3   0.729483 0.296217 0.313633 -0.369700
C66   C     C_3   0.049026 0.883051 0.637112 -0.174946
C67   C     C_3   0.425692 0.768916 0.342449 0.393849
C68   C     C_3   0.028574 0.888869 0.693713 -0.388923
C69   C     C_3   0.598273 0.753890 0.719296 -0.208047
C70   C     C_3   0.718062 0.675595 0.734931 -0.399709
C71   C     C_3   0.499834 0.851445 0.368969 -0.216659
C72   C     C_3   0.372668 0.935047 0.383652 -0.459333
C73   C     C_1   0.503629 0.289344 0.877534 0.349561
C74   C     C_1   0.862696 0.108395 0.412586 0.317557
C75   C     C_3   0.067413 0.229178 0.731536 -0.189102
C76   C     C_3   0.023154 0.319375 0.765750 -0.361360
C77   C     C_3   0.336576 0.787188 0.293185 -0.317525
C78   C     C_R   0.040261 0.426599 0.177435 0.588979
H1    H     H_    0.814713 0.225441 0.613792 0.111904
H2    H     H_    0.641142 0.394170 0.378411 0.018913
H3    H     H_    0.780033 0.123898 0.675912 0.121290
H4    H     H_    0.781638 0.223703 0.305577 0.157068
H5    H     H_    0.810512 0.333709 0.296083 0.073177
H6    H     H_    0.603795 0.306074 0.296357 0.111512
H7    H     H_    0.594663 0.238732 0.601459 -0.007471
H8    H     H_    0.704142 0.083535 0.613909 0.082940
H9    H     H_    0.373664 0.662032 0.615319 0.005544
H10   H     H_    0.589164 0.628800 0.630313 0.034906
H11   H     H_    0.349627 0.781585 0.690149 0.105735
H12   H     H_    0.424985 0.166407 0.380848 0.125934
H13   H     H_    0.399210 0.672094 0.706653 0.069628
H14   H     H_    0.561177 0.138147 0.662296 0.116856
H15   H     H_    0.320166 0.258217 0.729608 0.152249
H16   H     H_    0.003841 0.672374 0.341979 0.066364
H17   H     H_    0.824766 0.745698 0.369554 0.013886
H18   H     H_    0.000371 0.754912 0.273335 0.115748
H19   H     H_    0.787850 0.747282 0.282297 0.174374
H20   H     H_    0.865939 0.850818 0.305629 0.114782
H21   H     H_    0.337509 0.753383 0.368499 0.128513
H22   H     H_    0.420466 0.810426 0.268504 0.115794
H23   H     H_    0.303004 0.132518 0.426619 0.055495
H24   H     H_    0.225816 0.838975 0.300549 0.097604
H25   H     H_    0.143050 0.325659 0.659637 0.074461
H26   H     H_    0.296579 0.724344 0.272898 0.125616
H27   H     H_    0.154129 0.465791 0.284385 0.129351
H28   H     H_    0.240766 0.297106 0.118711 0.122110
H29   H     H_    0.566221 0.482151 0.755942 0.100603
H30   H     H_    0.402270 0.307952 0.966724 0.063955
H31   H     H_    0.312793 0.295310 0.034636 0.070544
H32   H     H_    0.633533 0.523628 0.242716 0.102405
H33   H     H_    0.765146 0.700430 0.122734 0.119300
H34   H     H_    0.222973 0.139717 0.363941 0.161089
H35   H     H_    0.867663 0.695457 0.962782 0.068490
H36   H     H_    0.336915 0.257616 0.640843 -0.040541
H37   H     H_    0.940516 0.694759 0.878992 0.116804
H38   H     H_    0.043177 0.533017 0.716114 0.119710
H39   H     H_    0.831534 0.703425 0.038633 0.068454
H40   H     H_    0.826235 0.556454 0.396511 0.074007
H41   H     H_    0.366517 0.444158 0.602584 0.072932
H42   H     H_    0.973007 0.954668 0.429716 0.097532
H43   H     H_    0.226862 0.043798 0.569989 0.107109
H44   H     H_    0.339770 0.889702 0.563593 0.090982
H45   H     H_    0.866128 0.703432 0.571535 -0.011218
H46   H     H_    0.386792 0.303901 0.518672 0.062251
H47   H     H_    0.808188 0.701048 0.482925 0.065115
H48   H     H_    0.288605 0.149407 0.697953 0.096313
H49   H     H_    0.324480 0.305107 0.431437 0.012229
H50   H     H_    0.127698 0.271118 0.440080 0.064582
H51   H     H_    0.906743 0.928012 0.705329 0.123039
H52   H     H_    0.038232 0.820758 0.704271 0.171815
H53   H     H_    0.126692 0.923683 0.714339 0.113176
H54   H     H_    0.174660 0.848520 0.626228 0.120096
H55   H     H_    0.038207 0.952938 0.628762 0.106318
H56   H     H_    0.069083 0.725691 0.559999 0.056003
H57   H     H_    0.656559 0.640325 0.759993 0.121912
H58   H     H_    0.764731 0.627127 0.701612 0.148500
H59   H     H_    0.824648 0.701979 0.755701 0.173776
H60   H     H_    0.664931 0.793025 0.697738 0.147699
H61   H     H_    0.553035 0.799518 0.754042 0.117841
H62   H     H_    0.435295 0.986824 0.407343 0.134742
H63   H     H_    0.320033 0.962944 0.349848 0.134907
H64   H     H_    0.272115 0.919989 0.405430 0.180401
H65   H     H_    0.564499 0.833542 0.403756 0.103792
H66   H     H_    0.592298 0.868476 0.344681 0.113503
H67   H     H_    0.800844 0.844903 0.627584 0.115802
H68   H     H_    0.036172 0.376200 0.745978 0.144846
H69   H     H_    0.893500 0.326784 0.777920 0.157399
H70   H     H_    0.104664 0.321907 0.799746 0.125390
H71   H     H_    0.966578 0.219709 0.703438 0.169785
H72   H     H_    0.075277 0.174722 0.754844 0.113481
H73   H     H_    0.886580 0.868158 0.572560 0.028404
H74   H     H_    0.847440 0.332913 0.385284 0.038557
N1    N     N_R   0.935667 0.498348 0.203163 -0.422819
N2    N     N_R   0.267483 0.503718 0.796863 -0.420522
N3    N     N_1   0.602739 0.231054 0.860285 -0.280192
N4    N     N_1   0.923735 0.136006 0.381727 -0.311141
O1    O     O_2   0.906480 0.548660 0.619050 -0.474241
O2    O     O_2   0.198140 0.821158 0.465842 -0.495940
O3    O     O_3   0.047332 0.797646 0.377647 -0.628139
O4    O     O_3   0.138490 0.548590 0.558870 -0.487992
O5    O     O_3   0.572560 0.389960 0.472890 -0.483535
O6    O     O_2   0.345660 0.723580 0.528500 -0.467892
O7    O     O_3   0.529472 0.755308 0.610626 -0.666333
O8    O     O_2   0.345877 0.581822 0.325674 -0.520522
O9    O     O_3   0.556512 0.698000 0.330675 -0.633753
O10   O     O_2   0.093657 0.361929 0.198070 -0.598482
O11   O     O_2   0.436140 0.372763 0.798477 -0.603185
O12   O     O_3   0.653730 0.265212 0.391633 -0.636634
O13   O     O_2   0.780179 0.633952 0.201194 -0.614139
O14   O     O_2   0.098833 0.636472 0.801697 -0.622678
O15   O     O_3   0.686300 0.382310 0.585700 -0.484144
O16   O     O_2   0.848063 0.425396 0.670740 -0.506590
O17   O     O_3   0.034241 0.693039 0.629670 -0.642236
O18   O     O_3   0.667890 0.298346 0.671725 -0.596544
O19   O     O_2   0.844040 0.276390 0.471470 -0.473546
O20   O     O_3   0.101510 0.335500 0.560330 -0.479498
O21   O     O_2   0.008708 0.176373 0.528438 -0.490671
O22   O     O_3   0.125809 0.198405 0.620407 -0.621673
O23   O     O_2   0.283210 0.451310 0.380920 -0.468149
O24   O     O_3   0.051220 0.451340 0.441120 -0.499724
O25   O     O_3   0.503410 0.617620 0.414290 -0.463205
O26   O     O_3   0.159667 0.307015 0.371280 -0.621409
O27   O     O_3   0.617150 0.609960 0.527100 -0.473022
O28   O     O_3   0.088210 0.664420 0.439670 -0.475112
P1    P     P_3+3 0.071950 0.575820 0.612140 0.983647
P2    P     P_3+3 0.664370 0.290050 0.457240 0.982976
P3    P     P_3+3 0.147079 0.219953 0.559402 0.929577
P4    P     P_3+3 0.117760 0.424110 0.387850 0.989067
P5    P     P_3+3 0.048673 0.780005 0.440180 0.926489
P6    P     P_3+3 0.677850 0.401232 0.651193 0.963509
P7    P     P_3+3 0.531028 0.723544 0.545284 0.935722
P8    P     P_3+3 0.517707 0.597665 0.348654 0.956776

loop_
_geom_bond_atom_site_label_1
_geom_bond_atom_site_label_2
_ccdc_geom_bond_type
C32   H38   S    
C53   C54   A    
C2    O13   D    
C9    C36   A    
C71   C72   S    
C56   H18   S    
C44   P5    S    
O3    P5    S    
C40   H23   S    
C75   H71   S    
Ba2   O28   S    
C46   C55   A    
C52   C63   S    
C75   C76   S    
C74   N4    T    
C24   C25   A    
O19   P2    D    
C17   C19   A    
C22   C24   A    
C12   H7    S    
C32   C33   S    
C35   C38   A    
O22   P3    S    
C14   H40   S    
O4    P1    S    
O18   P6    S    
O25   P8    S    
C54   C55   A    
C30   P6    S    
Ba1   Ba2   S    
Ba2   O24   S    
O1    P1    D    
O28   P5    S    
C59   C61   A    
C22   C27   A    
C11   C38   A    
C63   H73   S    
C17   C35   A    
C41   H35   S    
Ba1   O19   S    
C25   C42   A    
C40   H34   S    
C70   H59   S    
C6    P4    S    
C6    C7    D    
C20   H30   S    
Ba1   O20   S    
C68   H53   S    
C12   O18   S    
C21   C22   A    
C77   H22   S    
C67   C71   S    
C63   H67   S    
C7    C8    S    
C34   C69   S    
C76   H68   S    
C69   H61   S    
C16   H48   S    
C43   H39   S    
C70   H58   S    
C64   C65   S    
C72   H62   S    
C52   H56   S    
C57   C58   A    
C6    C14   D    
C16   H15   S    
Ba2   O4    S    
C15   C31   D    
C28   C40   S    
C11   H28   S    
C34   H13   S    
C75   H72   S    
C19   C24   A    
C26   O14   D    
C31   C32   D    
C38   H31   S    
Ba1   P1    S    
C4    C16   S    
C52   H45   S    
C44   C46   A    
C65   H5    S    
O8    P8    D    
C55   C60   A    
C17   C20   A    
C56   H20   S    
C33   N2    S    
C13   C39   A    
Ba2   O6    S    
C64   H74   S    
O20   P3    S    
O6    P7    D    
C76   H69   S    
C23   O7    S    
C28   H50   S    
C77   H26   S    
C71   H65   S    
O5    P2    S    
Ba2   O23   S    
C52   O17   S    
C8    N1    S    
C58   H43   S    
C41   C42   A    
C67   O9    S    
C35   C36   A    
C48   C74   S    
C64   H2    S    
O23   P4    D    
C29   C30   S    
O21   P3    D    
Ba1   O1    S    
C45   H16   S    
C63   C66   S    
Ba1   O15   S    
C53   C62   A    
C68   H52   S    
C48   C49   A    
C29   H29   S    
C31   P1    S    
C18   C19   A    
C5    P8    S    
C4    H36   S    
C1    C12   S    
C46   C49   A    
C27   N2    Am   
C34   H11   S    
C15   H41   S    
C70   H57   S    
C53   P7    S    
Ba1   O4    S    
C9    C13   A    
C1    H3    S    
C15   C30   S    
O9    P8    S    
O26   P4    S    
C77   H24   S    
C67   C77   S    
C72   H63   S    
O12   P2    S    
C18   C41   A    
C50   C51   A    
C76   H70   S    
C78   N1    Am   
C3    C5    S    
Ba1   P2    S    
C57   H44   S    
C18   C37   A    
C72   H64   S    
C5    C14   S    
C65   H6    S    
C47   C60   A    
C4    O22   S    
C1    H8    S    
C28   O26   S    
C64   O12   S    
C66   H55   S    
C23   H10   S    
C56   H19   S    
Ba2   P4    S    
C47   C50   A    
C21   C73   S    
O7    P7    S    
Ba2   O5    S    
Ba1   O24   S    
C69   H60   S    
C3    H32   S    
Ba1   O27   S    
C7    H27   S    
C28   H49   S    
O24   P4    S    
O15   P6    S    
C23   H9    S    
C45   H17   S    
C54   C57   A    
C37   C43   A    
C71   H66   S    
C2    C13   A    
C66   H54   S    
Ba2   O27   S    
C3    C8    D    
C61   P3    S    
C62   H47   S    
C51   C61   A    
C73   N3    T    
C36   C37   A    
C42   H37   S    
C16   C75   S    
C10   C78   A    
C29   C33   D    
C39   H33   S    
C68   H51   S    
C4    H25   S    
C1    H14   S    
C40   H12   S    
Ba2   O25   S    
C59   C60   A    
C51   H46   S    
C23   C34   S    
O17   P1    S    
C45   O3    S    
C65   H4    S    
C2    N1    Am   
C69   C70   S    
C10   C11   A    
Ba1   O5    S    
C66   C68   S    
C47   C48   A    
O2    P5    D    
C44   C62   A    
C25   C26   A    
C26   N2    Am   
C49   H42   S    
C39   C43   A    
C20   C21   A    
C58   C59   A    
O27   P7    S    
C50   P2    S    
C12   H1    S    
C27   O11   D    
C67   H21   S    
C78   O10   D    
C9    C10   A    
O16   P6    D    
C45   C56   S    
