data_mof_unit_55083.cif
_audit_creation_date              2012-12-11T15:28:46-0500
_audit_creation_method            fapswitch 2.2
_symmetry_space_group_name_H-M    P1
_symmetry_Int_Tables_number       1
_space_group_crystal_system       triclinic
_cell_length_a                    6.951935
_cell_length_b                    19.587272
_cell_length_c                    23.351237
_cell_angle_alpha                 95.961543
_cell_angle_beta                  91.359543
_cell_angle_gamma                 88.481349
_cell_volume                      3160.71407822

loop_
_atom_site_label
_atom_site_type_symbol
_atom_type_description
_atom_site_fract_x
_atom_site_fract_y
_atom_site_fract_z
_atom_type_partial_charge
O1    O     O_R   0.617180 0.809390 0.808140 -0.523210
O2    O     O_R   0.382820 0.190610 0.191860 -0.523918
O3    O     O_R   0.293300 0.672410 0.795490 -0.527953
O4    O     O_R   0.706700 0.327590 0.204510 -0.527001
O5    O     O_R   0.117220 0.690610 0.691850 -0.531751
O6    O     O_R   0.882780 0.309390 0.308150 -0.532900
C1    C     C_R   0.465525 0.647586 0.805173 0.861818
C2    C     C_R   0.534475 0.352410 0.194822 0.864829
O7    O     O_R   0.287840 0.807750 0.814460 -0.526088
O8    O     O_R   0.712160 0.192250 0.185540 -0.524524
O9    O     O_R   0.111720 0.826910 0.710960 -0.536452
O10   O     O_R   0.888280 0.173090 0.289040 -0.538384
C3    C     C_R   0.456538 0.830758 0.833187 0.736094
C4    C     C_R   0.543462 0.169246 0.166811 0.735916
O11   O     O_R   0.622680 0.673080 0.789040 -0.528586
O12   O     O_R   0.377320 0.326920 0.210960 -0.527668
O13   O     O_3   0.448820 0.756130 0.716020 -0.371563
O14   O     O_3   0.551180 0.243870 0.283980 -0.375181
V1    V     V_3+5 0.176220 0.748860 0.756300 1.540912
V2    V     V_3+5 0.823780 0.251140 0.243700 1.533853
O15   O     O_R   0.781670 0.827580 0.704500 -0.534984
O16   O     O_R   0.218330 0.172420 0.295500 -0.536071
C5    C     C_R   0.947547 0.851867 0.693970 0.898342
C6    C     C_R   0.052401 0.148192 0.306059 0.898428
O17   O     O_R   0.787130 0.692240 0.685530 -0.522052
O18   O     O_R   0.212870 0.307760 0.314470 -0.522116
C7    C     C_R   0.956072 0.669192 0.666794 0.743332
C8    C     C_R   0.043922 0.330769 0.333231 0.744236
V3    V     V_3+5 0.675510 0.751130 0.743690 1.548846
V4    V     V_3+5 0.324490 0.248870 0.256310 1.536841
O19   O     O_3   0.952780 0.743870 0.783980 -0.366556
O20   O     O_3   0.047220 0.256130 0.216020 -0.364652
C9    C     C_1   0.966538 0.617106 0.614763 -0.146209
C10   C     C_1   0.033432 0.382789 0.385302 -0.154692
C11   C     C_1   0.978104 0.573576 0.571964 0.039313
C12   C     C_1   0.021841 0.426274 0.428130 0.031903
C13   C     C_1   0.993366 0.521768 0.521370 0.033549
C14   C     C_1   0.006562 0.478055 0.478741 0.030939
C15   C     C_R   0.945649 0.914852 0.663980 -0.368440
C16   C     C_R   0.053322 0.086294 0.337383 -0.383120
C17   C     C_R   0.846998 0.034276 0.664118 0.667781
C18   C     C_R   0.136774 0.965695 0.338556 0.663080
C19   C     C_R   0.880452 0.976532 0.693387 0.438198
C20   C     C_R   0.105394 0.022815 0.308285 0.439143
C21   C     C_R   0.991419 0.912914 0.605365 0.467504
C22   C     C_R   0.018373 0.090928 0.396850 0.502724
C23   C     C_R   0.980572 0.973808 0.576384 -0.159470
C24   C     C_R   0.025556 0.031308 0.427146 -0.154343
C25   C     C_R   0.885699 0.032142 0.604885 -0.313566
C26   C     C_R   0.108256 0.970561 0.398485 -0.339520
C27   C     C_R   0.042733 0.976902 0.518432 -0.009034
C28   C     C_R   0.967679 0.030648 0.485910 -0.000817
C29   C     C_R   0.830891 0.078870 0.512698 0.044583
C30   C     C_R   0.177450 0.928606 0.491310 0.077433
C31   C     C_R   0.811548 0.083867 0.572764 0.676553
C32   C     C_R   0.180114 0.918921 0.431011 0.696557
C33   C     C_R   0.489817 0.585312 0.835636 -0.298829
C34   C     C_R   0.510183 0.414677 0.164352 -0.299887
C35   C     C_R   0.633709 0.470705 0.837528 0.017235
C36   C     C_R   0.366335 0.529289 0.162455 0.015600
C37   C     C_R   0.589618 0.528477 0.808380 0.518686
C38   C     C_R   0.410402 0.471517 0.191605 0.520475
C39   C     C_R   0.446123 0.586569 0.894174 0.465650
C40   C     C_R   0.553869 0.413412 0.105811 0.465778
C41   C     C_R   0.496039 0.529377 0.925195 -0.065670
C42   C     C_R   0.503971 0.470603 0.074787 -0.065538
C43   C     C_R   0.557420 0.467397 0.893094 -0.081792
C44   C     C_R   0.442617 0.532588 0.106888 -0.081645
C45   C     C_R   0.488324 0.531028 0.986616 0.055128
C46   C     C_R   0.511692 0.468951 0.013365 0.055032
C47   C     C_R   0.521414 0.406680 0.977548 -0.095852
C48   C     C_R   0.478620 0.593299 0.022432 -0.095837
C49   C     C_R   0.536704 0.404986 0.917755 0.118498
C50   C     C_R   0.463354 0.594997 0.082225 0.118029
H1    H     H_    0.504243 0.358421 0.994929 0.198155
H2    H     H_    0.495806 0.641557 0.005049 0.198085
C51   C     C_1   0.467309 0.882818 0.885242 -0.145333
C52   C     C_1   0.532694 0.117189 0.114753 -0.146910
C53   C     C_1   0.478731 0.926334 0.928063 0.041597
C54   C     C_1   0.521274 0.073676 0.071930 0.041425
C55   C     C_1   0.493598 0.978143 0.978676 0.033502
C56   C     C_1   0.506408 0.021868 0.021315 0.033592
F1    F     F_    0.694079 0.133906 0.598523 -0.624237
F2    F     F_    0.277543 0.863489 0.405022 -0.611642
F3    F     F_    0.001222 0.154335 0.425676 -0.706007
F4    F     F_    0.023291 0.850425 0.575667 -0.704261
F5    F     F_    0.139247 0.017324 0.250922 -0.634748
F6    F     F_    0.836499 0.979504 0.749980 -0.636604
F7    F     F_    0.770000 0.091500 0.693705 -0.559250
F8    F     F_    0.202740 0.906489 0.309274 -0.556929
C57   C     C_3   0.672402 0.113657 0.478849 -0.261487
C58   C     C_3   0.667800 0.192306 0.490294 -0.466741
H3    H     H_    0.568219 0.209401 0.525708 0.235963
H4    H     H_    0.812239 0.212639 0.502487 0.262187
H5    H     H_    0.614278 0.215125 0.451146 0.183444
H6    H     H_    0.677888 0.097947 0.431986 0.176659
H7    H     H_    0.531229 0.094894 0.491273 0.162978
C59   C     C_3   0.338216 0.893987 0.524190 -0.218258
C60   C     C_3   0.537018 0.916535 0.508085 -0.758362
H8    H     H_    0.648536 0.891650 0.534204 0.252455
H9    H     H_    0.567268 0.901501 0.462024 0.283314
H10   H     H_    0.547428 0.973026 0.517277 0.202838
H11   H     H_    0.330662 0.907845 0.571264 0.196156
H12   H     H_    0.329729 0.837293 0.515250 0.253524
C61   C     C_3   0.499696 0.337366 0.881317 -0.375968
C62   C     C_3   0.300201 0.310241 0.891540 -0.696972
H13   H     H_    0.291342 0.293703 0.935408 0.225861
H14   H     H_    0.187580 0.350421 0.885874 0.227771
H15   H     H_    0.271083 0.265077 0.859990 0.244193
H16   H     H_    0.503007 0.343156 0.834646 0.199440
H17   H     H_    0.611707 0.298566 0.891280 0.201937
C63   C     C_3   0.500428 0.662613 0.118661 -0.375824
C64   C     C_3   0.699934 0.689720 0.108424 -0.695300
H18   H     H_    0.812529 0.649525 0.114070 0.227678
H19   H     H_    0.708758 0.706269 0.064558 0.225426
H20   H     H_    0.729123 0.734872 0.139979 0.245101
H21   H     H_    0.388435 0.701423 0.108706 0.202048
H22   H     H_    0.497146 0.656822 0.165333 0.200620
F9    F     F_    0.652711 0.357763 0.081043 -0.705195
F10   F     F_    0.347259 0.642211 0.918945 -0.705431
F11   F     F_    0.352916 0.470126 0.246738 -0.690738
F12   F     F_    0.647111 0.529875 0.753249 -0.693326
C65   C     C_3   0.787685 0.419987 0.812781 -0.287795
C66   C     C_3   0.983123 0.453920 0.810786 -0.672756
H23   H     H_    0.978772 0.494556 0.781024 0.267980
H24   H     H_    0.027436 0.476741 0.854523 0.216140
H25   H     H_    0.093619 0.414741 0.795331 0.213137
H26   H     H_    0.812653 0.376982 0.839502 0.169222
H27   H     H_    0.743056 0.398106 0.768811 0.222608
C67   C     C_3   0.212406 0.580024 0.187206 -0.285737
C68   C     C_3   0.016949 0.546108 0.189219 -0.669445
H28   H     H_    0.972614 0.523268 0.145489 0.215027
H29   H     H_    0.021283 0.505490 0.218997 0.268502
H30   H     H_    0.906479 0.585302 0.204663 0.214754
H31   H     H_    0.257078 0.601909 0.231170 0.225922
H32   H     H_    0.187447 0.623025 0.160481 0.169066

loop_
_geom_bond_atom_site_label_1
_geom_bond_atom_site_label_2
_ccdc_geom_bond_type
C34   C38   A    
C17   F7    S    
C61   H16   S    
C39   C41   A    
O13   V3    S    
C42   C44   A    
C67   H31   S    
O4    C2    A    
C68   H30   S    
V1    O19   S    
C55   C56   T    
C65   H26   S    
C65   C66   S    
C23   C25   A    
C7    C9    S    
C16   C22   A    
O9    V1    S    
C40   F9    S    
C19   F6    S    
C11   C13   S    
O3    C1    A    
C50   C63   S    
C63   H21   S    
C9    C11   T    
C32   F2    S    
C52   C54   T    
C62   H13   S    
O12   V4    S    
C59   H11   S    
C35   C43   A    
C36   C38   A    
C21   C23   A    
O7    C3    A    
C6    C16   S    
C57   H6    S    
O5    C7    A    
O7    V1    S    
O6    C8    A    
O8    V2    S    
C41   C43   A    
C29   C57   S    
O3    V1    S    
C46   C47   A    
C43   C49   A    
C20   F5    S    
C10   C12   T    
C48   H2    S    
C15   C21   A    
C64   H20   S    
C2    C34   S    
C24   C26   A    
C61   H17   S    
C8    C10   S    
C2    O12   A    
C47   H1    S    
C65   H27   S    
O17   V3    S    
C17   C19   A    
C18   C20   A    
C17   C25   A    
C63   C64   S    
O11   V3    S    
C22   C24   A    
C29   C31   A    
C35   C65   S    
C3    C51   S    
C35   C37   A    
C27   C28   A    
C48   C50   A    
O8    C4    A    
C36   C67   S    
C57   C58   S    
C53   C55   S    
C15   C19   A    
C1    O11   A    
C34   C40   A    
C25   C31   A    
O15   V3    S    
C58   H5    S    
C26   C32   A    
C37   F12   S    
C18   F8    S    
C40   C42   A    
C45   C48   A    
C13   C14   T    
C63   H22   S    
C49   C61   S    
C60   H8    S    
C24   C28   A    
O10   V2    S    
C58   H4    S    
C51   C53   T    
C57   H7    S    
C18   C26   A    
C66   H25   S    
O14   V4    S    
C54   C56   S    
C60   H9    S    
O18   V4    S    
O15   C5    A    
O16   C6    A    
O1    C3    A    
C31   F1    S    
C68   H28   S    
C28   C29   A    
C66   H24   S    
C64   H18   S    
V2    O20   S    
C41   C45   A    
O16   V4    S    
C67   H32   S    
C33   C39   A    
C68   H29   S    
C23   C27   A    
C30   C32   A    
C33   C37   A    
O5    V1    S    
O17   C7    A    
O6    V2    S    
C61   C62   S    
O10   C6    A    
O18   C8    A    
O2    V4    S    
C27   C30   A    
C22   F3    S    
C12   C14   S    
C67   C68   S    
V3    O19   S    
V4    O20   S    
C39   F10   S    
O1    V3    S    
C42   C46   A    
C62   H14   S    
C5    C15   S    
O9    C5    A    
C58   H3    S    
O13   V1    S    
C1    C33   S    
C21   F4    S    
O14   V2    S    
C4    C52   S    
C45   C46   A    
O2    C4    A    
O4    V2    S    
C16   C20   A    
C60   H10   S    
C36   C44   A    
C59   C60   S    
C47   C49   A    
C30   C59   S    
C44   C50   A    
C59   H12   S    
C38   F11   S    
C66   H23   S    
C64   H19   S    
C62   H15   S    
