data_mof_unit_20386.cif
_audit_creation_date              2012-12-11T14:40:19-0500
_audit_creation_method            fapswitch 2.2
_symmetry_space_group_name_H-M    P1
_symmetry_Int_Tables_number       1
_space_group_crystal_system       triclinic
_cell_length_a                    19.728572
_cell_length_b                    10.7633
_cell_length_c                    19.548081
_cell_angle_alpha                 90.139342
_cell_angle_beta                  97.411567
_cell_angle_gamma                 89.733438
_cell_volume                      4116.19625605

loop_
_atom_site_label
_atom_site_type_symbol
_atom_type_description
_atom_site_fract_x
_atom_site_fract_y
_atom_site_fract_z
_atom_type_partial_charge
C1    C     C_R   0.725625 0.950813 0.360573 0.532730
C2    C     C_3   0.254844 0.394879 0.565889 0.059907
C3    C     C_3   0.239912 0.869443 0.437945 0.055464
C4    C     C_3   0.753545 0.898633 0.566442 0.057220
C5    C     C_3   0.762110 0.501607 0.455292 -0.110561
C6    C     C_3   0.219198 0.507419 0.530741 -0.148375
C7    C     C_3   0.232878 0.005415 0.458511 -0.116993
C8    C     C_3   0.785707 0.004592 0.530440 -0.129464
C9    C     C_3   0.819684 0.449254 0.508617 -0.130614
C10   C     C_3   0.180462 0.419146 0.477298 -0.110977
C11   C     C_3   0.303958 0.995981 0.502275 -0.141291
C12   C     C_R   0.289926 0.993637 0.632641 0.527492
C13   C     C_3   0.716585 0.020135 0.483781 -0.116835
C14   C     C_3   0.796393 0.315515 0.490634 -0.108520
C15   C     C_3   0.216379 0.305664 0.513040 -0.109676
C16   C     C_3   0.310797 0.859456 0.480816 -0.102584
C17   C     C_3   0.684901 0.913271 0.520925 -0.109601
C18   C     C_3   0.746864 0.319093 0.545508 -0.108507
C19   C     C_3   0.275503 0.315100 0.468791 -0.146791
C20   C     C_3   0.275657 0.815229 0.542085 -0.114166
C21   C     C_3   0.708950 0.818420 0.469842 -0.119280
C22   C     C_3   0.770242 0.452098 0.562683 0.054137
C23   C     C_R   0.225091 0.452339 0.360957 0.547470
C24   C     C_3   0.239655 0.427484 0.433693 0.058775
C25   C     C_3   0.269147 0.951229 0.562980 0.059875
C26   C     C_3   0.740644 0.924334 0.433414 0.058476
C27   C     C_3   0.519564 0.276910 0.971339 0.162926
C28   C     C_3   0.475636 0.274899 0.030089 0.162696
C29   C     C_3   0.020662 0.775321 0.970637 0.165007
C30   C     C_3   0.977108 0.777017 0.029689 0.165028
C31   C     C_3   0.567494 0.175537 0.006556 -0.223264
C32   C     C_3   0.429560 0.172334 0.993773 -0.222786
C33   C     C_3   0.067283 0.672322 0.006105 -0.228849
C34   C     C_R   0.790291 0.494338 0.632653 0.521192
C35   C     C_3   0.929246 0.676146 0.994173 -0.222884
C36   C     C_3   0.523064 0.174080 0.065739 -0.046051
C37   C     C_3   0.474052 0.174808 0.934655 -0.049419
C38   C     C_3   0.023234 0.674533 0.065596 -0.045447
C39   C     C_3   0.973400 0.674837 0.934740 -0.048506
C40   C     C_R   0.560424 0.183113 0.348613 0.526063
C41   C     C_R   0.440146 0.182990 0.651430 0.526748
C42   C     C_R   0.060375 0.683148 0.348623 0.528843
C43   C     C_R   0.939851 0.683061 0.651399 0.528193
C44   C     C_3   0.477878 0.071751 0.029618 0.245985
C45   C     C_3   0.689278 0.371199 0.492034 -0.139629
C46   C     C_3   0.521091 0.073645 0.969919 0.246937
C47   C     C_3   0.976274 0.573895 0.030260 0.247725
C48   C     C_3   0.019141 0.572061 0.970267 0.243383
C49   C     C_1   0.763582 0.425770 0.904588 0.084487
C50   C     C_1   0.218501 0.475710 0.085499 0.062155
C51   C     C_1   0.264092 0.926280 0.904848 0.084896
C52   C     C_1   0.736023 0.925890 0.095228 0.089061
C53   C     C_1   0.748013 0.407742 0.034714 0.052694
C54   C     C_1   0.241806 0.438751 0.958310 0.067602
C55   C     C_1   0.249020 0.908284 0.035095 0.052668
C56   C     C_3   0.314352 0.403258 0.522707 -0.120620
C57   C     C_1   0.751251 0.908125 0.965042 0.049975
C58   C     C_1   0.754935 0.415551 0.964091 0.079220
C59   C     C_1   0.229625 0.460281 0.026896 0.076385
C60   C     C_1   0.255874 0.916112 0.964465 0.078892
C61   C     C_1   0.744387 0.915762 0.035648 0.079851
C62   C     C_1   0.742678 0.394547 0.094857 0.045475
C63   C     C_1   0.252066 0.411503 0.900705 0.046467
C64   C     C_1   0.243251 0.895058 0.095137 0.046205
C65   C     C_1   0.756872 0.894979 0.904956 0.045423
C66   C     C_R   0.727026 0.318115 0.368799 0.524896
C67   C     C_3   0.204694 0.824950 0.498479 -0.146947
C68   C     C_R   0.261031 0.362908 0.637933 0.538908
C69   C     C_R   0.227461 0.819355 0.368787 0.530397
C70   C     C_R   0.760445 0.864924 0.638513 0.535265
C71   C     C_R   0.721431 0.952965 0.163341 0.548587
C72   C     C_R   0.278575 0.953013 0.836694 0.556636
C73   C     C_R   0.205031 0.497728 0.154838 0.530522
C74   C     C_R   0.778481 0.452874 0.836612 0.555837
C75   C     C_R   0.556277 0.181634 0.135242 0.557413
C76   C     C_R   0.442253 0.182236 0.864541 0.558890
C77   C     C_R   0.056370 0.681721 0.135214 0.537080
C78   C     C_3   0.778041 0.803233 0.516148 -0.118927
C79   C     C_R   0.941854 0.682276 0.864493 0.557832
C80   C     C_R   0.735674 0.360283 0.164127 0.558371
C81   C     C_R   0.263607 0.362442 0.834988 0.543033
C82   C     C_R   0.235785 0.860465 0.164233 0.553263
C83   C     C_R   0.764210 0.860353 0.835784 0.548890
C84   C     C_1   0.467311 0.174585 0.587316 -0.016127
C85   C     C_1   0.533679 0.175057 0.412929 -0.010788
C86   C     C_1   0.966745 0.674881 0.587121 -0.013065
C87   C     C_1   0.033499 0.675342 0.412891 -0.014080
C88   C     C_1   0.512623 0.171334 0.467875 -0.048802
C89   C     C_3   0.739031 0.368353 0.438123 0.052293
C90   C     C_1   0.488562 0.171142 0.532448 -0.051648
C91   C     C_1   0.012256 0.671813 0.467754 -0.051311
C92   C     C_1   0.987996 0.671615 0.532242 -0.050637
C93   C     C_3   0.712670 0.505345 0.510726 -0.120223
C94   C     C_3   0.278342 0.516985 0.486033 -0.122825
C95   C     C_3   0.198059 0.961784 0.520738 -0.109121
C96   C     C_3   0.809591 0.910133 0.478561 -0.120829
Cr1   Cr    Cr6+3 0.765830 0.160660 0.268180 1.066130
Cr2   Cr    Cr6+3 0.384070 0.324050 0.751550 1.079045
Cr3   Cr    Cr6+3 0.115930 0.824050 0.248450 1.082687
Cr4   Cr    Cr6+3 0.884070 0.824050 0.751550 1.079790
Cr5   Cr    Cr6+3 0.234170 0.160660 0.731820 1.067121
Cr6   Cr    Cr6+3 0.265830 0.660660 0.268180 1.067717
Cr7   Cr    Cr6+3 0.734170 0.660660 0.731820 1.066777
Cr8   Cr    Cr6+3 0.612110 0.009150 0.248770 1.099547
Cr9   Cr    Cr6+3 0.387890 0.009150 0.751230 1.099179
Cr10  Cr    Cr6+3 0.112110 0.509150 0.248770 1.095751
Cr11  Cr    Cr6+3 0.887890 0.509150 0.751230 1.097892
Cr12  Cr    Cr6+3 0.615930 0.324050 0.248450 1.083167
H1    H     H_    0.635560 0.338984 0.483676 0.112990
H2    H     H_    0.196276 0.581905 0.559678 0.115731
H3    H     H_    0.213806 0.079700 0.421629 0.133102
H4    H     H_    0.817619 0.077228 0.558827 0.117026
H5    H     H_    0.345441 0.065729 0.505972 0.099752
H6    H     H_    0.690047 0.108329 0.467711 0.087281
H7    H     H_    0.873413 0.481687 0.516949 0.115393
H8    H     H_    0.125181 0.424938 0.457511 0.134090
H9    H     H_    0.831094 0.238309 0.480202 0.131389
H10   H     H_    0.189392 0.220405 0.525607 0.130039
H11   H     H_    0.357511 0.817198 0.464260 0.138372
H12   H     H_    0.369380 0.397706 0.543415 0.129066
H13   H     H_    0.634165 0.916206 0.539734 0.132431
H14   H     H_    0.740581 0.246769 0.584545 0.132949
H15   H     H_    0.299107 0.240873 0.440277 0.116889
H16   H     H_    0.293849 0.738879 0.578008 0.138538
H17   H     H_    0.677620 0.744163 0.442151 0.122921
H18   H     H_    0.624264 0.176391 0.012714 0.127058
H19   H     H_    0.372801 0.170555 0.987488 0.132380
H20   H     H_    0.124006 0.671161 0.011787 0.112255
H21   H     H_    0.872486 0.677266 0.988239 0.127076
H22   H     H_    0.603824 0.440438 0.042011 0.331974
H23   H     H_    0.162693 0.756273 0.494013 0.098253
H24   H     H_    0.387736 0.435179 0.961361 0.329618
H25   H     H_    0.106853 0.937098 0.039959 0.331834
H26   H     H_    0.893147 0.943744 0.960874 0.333004
H27   H     H_    0.496749 0.776044 0.122551 0.386586
H28   H     H_    0.507262 0.779052 0.875068 0.385584
H29   H     H_    0.992551 0.280351 0.125509 0.386914
H30   H     H_    0.998326 0.276930 0.876289 0.385960
H31   H     H_    0.805040 0.715656 0.532535 0.088158
H32   H     H_    0.678202 0.581954 0.522446 0.131350
H33   H     H_    0.305136 0.601152 0.471578 0.126597
H34   H     H_    0.152131 0.003925 0.538955 0.130574
H35   H     H_    0.860120 0.907378 0.459338 0.127777
H36   H     H_    0.767872 0.574676 0.416504 0.131849
O1    O     O_R   0.783230 0.287800 0.346510 -0.498552
O2    O     O_R   0.454570 0.285140 0.836900 -0.432508
O3    O     O_R   0.045430 0.785140 0.163100 -0.432107
O4    O     O_R   0.954570 0.785140 0.836900 -0.433503
O5    O     O_R   0.677850 0.374730 0.185500 -0.516907
O6    O     O_R   0.322150 0.374730 0.814500 -0.517789
O7    O     O_R   0.177850 0.874730 0.185500 -0.514242
O8    O     O_R   0.822150 0.874730 0.814500 -0.520031
O9    O     O_3   0.664630 0.164620 0.255130 -0.336208
O10   O     O_3   0.335370 0.164620 0.744870 -0.334934
O11   O     O_3   0.164630 0.664620 0.255130 -0.355600
O12   O     O_R   0.216770 0.287800 0.653490 -0.519857
O13   O     O_3   0.835370 0.664620 0.744870 -0.336721
O14   O     O_R   0.760130 0.037060 0.338610 -0.516761
O15   O     O_R   0.239870 0.037060 0.661390 -0.497818
O16   O     O_R   0.260130 0.537060 0.338610 -0.513024
O17   O     O_R   0.739870 0.537060 0.661390 -0.490488
O18   O     O_R   0.666620 0.921370 0.332440 -0.520773
O19   O     O_R   0.333380 0.921370 0.667560 -0.515118
O20   O     O_R   0.166620 0.421370 0.332440 -0.521149
O21   O     O_R   0.833380 0.421370 0.667560 -0.513046
O22   O     O_R   0.557170 0.082420 0.312350 -0.469097
O23   O     O_R   0.283230 0.787800 0.346510 -0.507767
O24   O     O_R   0.442830 0.082420 0.687650 -0.483168
O25   O     O_R   0.057170 0.582420 0.312350 -0.474244
O26   O     O_R   0.942830 0.582420 0.687650 -0.485872
O27   O     O_R   0.548310 0.285980 0.316250 -0.482557
O28   O     O_R   0.451690 0.285980 0.683750 -0.479907
O29   O     O_R   0.048310 0.785980 0.316250 -0.481001
O30   O     O_R   0.951690 0.785980 0.683750 -0.474174
O31   O     O_R   0.680520 0.375500 0.327470 -0.505383
O32   O     O_R   0.319480 0.375500 0.672530 -0.520008
O33   O     O_R   0.180520 0.875500 0.327470 -0.502402
O34   O     O_R   0.716770 0.787800 0.653490 -0.518574
O35   O     O_R   0.819480 0.875500 0.672530 -0.515745
O36   O     O_R   0.780350 0.286970 0.193350 -0.460639
O37   O     O_R   0.219650 0.286970 0.806650 -0.464186
O38   O     O_R   0.280350 0.786970 0.193350 -0.468673
O39   O     O_R   0.719650 0.786970 0.806650 -0.466245
O40   O     O_R   0.757460 0.036290 0.196640 -0.482667
O41   O     O_R   0.242540 0.036290 0.803360 -0.476112
O42   O     O_R   0.257460 0.536290 0.196640 -0.461156
O43   O     O_R   0.742540 0.536290 0.803360 -0.478897
O44   O     O_R   0.663740 0.920540 0.179290 -0.475689
O45   O     O_R   0.554500 0.081650 0.170370 -0.420938
O46   O     O_R   0.336260 0.920540 0.820710 -0.473691
O47   O     O_R   0.163740 0.420540 0.179290 -0.452581
O48   O     O_R   0.836260 0.420540 0.820710 -0.472190
O49   O     O_2   0.598622 0.379666 0.884449 -0.254331
O50   O     O_2   0.496642 0.497457 0.905175 -0.200335
O51   O     O_3   0.599613 0.495664 0.001286 -0.448910
O52   O     O_2   0.393047 0.369860 0.116823 -0.235637
O53   O     O_2   0.493664 0.493318 0.099832 -0.205084
O54   O     O_3   0.392453 0.490889 0.002006 -0.451394
O55   O     O_2   0.101153 0.872250 0.883244 -0.255486
O56   O     O_R   0.445500 0.081650 0.829630 -0.421624
O57   O     O_2   0.000406 0.994888 0.902606 -0.205371
O58   O     O_3   0.102821 0.991862 0.999060 -0.445437
O59   O     O_2   0.898779 0.878526 0.118281 -0.255445
O60   O     O_2   0.000091 0.996347 0.097675 -0.200877
O61   O     O_3   0.896551 0.997163 0.002410 -0.450444
O62   O     O_2   0.406495 0.972054 0.123775 -0.274917
O63   O     O_2   0.406985 0.858643 0.014676 -0.227637
O64   O     O_3   0.516666 0.850782 0.103580 -0.433419
O65   O     O_2   0.594660 0.978457 0.875652 -0.281377
O66   O     O_2   0.595031 0.862809 0.983854 -0.230000
O67   O     O_R   0.054500 0.581650 0.170370 -0.432746
O68   O     O_3   0.486081 0.852809 0.894232 -0.432723
O69   O     O_2   0.903945 0.479384 0.125152 -0.279393
O70   O     O_2   0.903703 0.362504 0.017060 -0.228814
O71   O     O_3   0.013131 0.353980 0.106099 -0.433566
O72   O     O_2   0.089259 0.469589 0.875202 -0.283289
O73   O     O_2   0.089074 0.356212 0.984109 -0.221025
O74   O     O_3   0.978909 0.351866 0.896094 -0.432693
O75   O     O_R   0.945500 0.581650 0.829630 -0.419891
O76   O     O_R   0.545430 0.285140 0.163100 -0.439047
S1    S     S_3+6 0.553583 0.415400 0.937738 0.090730
S2    S     S_3+6 0.438682 0.410009 0.065170 0.095275
S3    S     S_3+6 0.056269 0.911422 0.936017 0.089717
S4    S     S_3+6 0.943199 0.915153 0.064843 0.089727
S5    S     S_3+6 0.449102 0.935127 0.068581 0.098242
S6    S     S_3+6 0.552182 0.938912 0.930220 0.095186
S7    S     S_3+6 0.946321 0.439423 0.070341 0.095467
S8    S     S_3+6 0.047040 0.434231 0.930774 0.094885

loop_
_geom_bond_atom_site_label_1
_geom_bond_atom_site_label_2
_ccdc_geom_bond_type
C19   C56   S    
C23   O20   A    
C21   C26   S    
Cr11  O21   S    
C15   C19   S    
C8    C13   S    
C87   C91   T    
O66   S6    D    
C14   C18   S    
C20   C67   S    
C8    C96   S    
C81   O37   A    
C71   O44   A    
C4    C8    S    
C34   O17   A    
C35   C47   S    
C78   H31   S    
Cr2   O10   S    
C73   O42   A    
C68   O32   A    
C10   H8    S    
Cr4   O8    S    
Cr5   O10   S    
C56   C94   S    
C19   H15   S    
C43   C86   S    
O72   S8    D    
C30   C35   S    
C63   C81   S    
Cr7   O39   S    
C50   C59   T    
C80   O36   A    
C32   H19   S    
C62   C80   S    
C1    O14   A    
C75   O45   A    
C27   C37   S    
Cr3   O33   S    
C3    C7    S    
C10   C15   S    
C8    H4    S    
Cr8   O18   S    
C5    C89   S    
C48   S8    S    
C43   O30   A    
C45   H1    S    
C9    C22   S    
C65   C83   S    
C20   C25   S    
C13   C26   S    
C81   O6    A    
Cr12  O31   S    
C29   C33   S    
C30   C38   S    
H22   O51   S    
C4    C78   S    
C11   C16   S    
C72   O46   A    
C54   C63   T    
C66   O1    A    
O54   S2    S    
C69   O33   A    
H28   O68   S    
Cr4   O13   S    
O63   S5    D    
Cr9   O56   S    
Cr12  O9    S    
C78   C96   S    
C6    C94   S    
C31   C46   S    
Cr3   O11   S    
Cr11  O48   S    
C23   C24   S    
Cr9   O19   S    
C71   O40   A    
Cr10  O20   S    
Cr8   O9    S    
C34   O21   A    
C45   C89   S    
C44   S5    S    
C77   O3    A    
C31   C36   S    
C40   O22   A    
C82   O7    A    
O68   S6    S    
C2    C15   S    
O49   S1    D    
Cr9   O10   S    
C76   O2    A    
Cr6   O23   S    
C68   O12   A    
C55   C60   S    
O60   S4    D    
Cr8   O44   S    
C67   C95   S    
C56   H12   S    
C2    C6    S    
C84   C90   T    
Cr10  O47   S    
Cr5   O41   S    
C35   H21   S    
O58   S3    S    
O74   S8    S    
Cr11  O13   S    
C43   O26   A    
C44   C46   S    
C70   O35   A    
C7    C11   S    
C66   C89   S    
C54   C59   S    
C55   C64   T    
C26   C96   S    
C80   O5    A    
C22   C34   S    
C41   O28   A    
C67   H23   S    
C4    C70   S    
Cr7   O17   S    
C27   S1    S    
C27   C31   S    
Cr6   O38   S    
C28   C32   S    
Cr7   O43   S    
O53   S2    D    
C76   O56   A    
C16   H11   S    
Cr6   O16   S    
C91   C92   S    
O51   S1    S    
C77   O67   A    
Cr7   O13   S    
C5    H36   S    
C30   S4    S    
Cr2   O2    S    
Cr5   O12   S    
C10   C24   S    
C41   C84   S    
Cr3   O7    S    
C33   H20   S    
C17   C21   S    
C49   C58   T    
C9    H7    S    
C40   C85   S    
C6    H2    S    
C35   C39   S    
C9    C14   S    
C69   O23   A    
C14   C89   S    
C5    C9    S    
C29   C30   S    
O69   S7    D    
C42   O25   A    
C24   C94   S    
O64   S5    S    
Cr2   O32   S    
C53   C62   T    
C79   O75   A    
C47   C48   S    
Cr3   O29   S    
C16   C20   S    
C14   H9    S    
C23   O16   A    
C29   C39   S    
O62   S5    D    
H24   O54   S    
C32   C44   S    
C83   O39   A    
Cr6   O42   S    
C32   C37   S    
C21   C78   S    
O70   S7    D    
C64   C82   S    
C38   C47   S    
C73   O47   A    
C18   H14   S    
O50   S1    D    
Cr11  O75   S    
C4    C17   S    
C17   H13   S    
C37   C76   S    
C88   C90   S    
C45   C93   S    
C25   C95   S    
Cr1   O9    S    
Cr4   O30   S    
C1    C26   S    
C22   C93   S    
C74   O48   A    
C66   O31   A    
C36   C44   S    
O55   S3    D    
C51   C72   S    
O57   S3    D    
C21   H17   S    
C18   C45   S    
Cr5   O37   S    
Cr1   O40   S    
C83   O8    A    
Cr2   O6    S    
C85   C88   T    
H25   O58   S    
C29   S3    S    
Cr3   O3    S    
H30   O74   S    
C3    C69   S    
C18   C22   S    
C94   H33   S    
Cr1   O1    S    
Cr9   O46   S    
C70   O34   A    
C13   H6    S    
C57   C65   T    
C41   O24   A    
H26   O61   S    
C42   O29   A    
C6    C10   S    
C5    C93   S    
C53   C58   S    
C15   H10   S    
C57   C61   S    
C79   O4    A    
C51   C60   T    
C38   C77   S    
C7    C95   S    
C82   O38   A    
O61   S4    S    
C2    C68   S    
C33   C38   S    
Cr9   O24   S    
C13   C17   S    
C12   C25   S    
C52   C61   T    
Cr7   O34   S    
Cr1   O14   S    
C46   S6    S    
C19   C24   S    
Cr2   O28   S    
C93   H32   S    
C86   C92   T    
Cr12  O76   S    
C12   O19   A    
C36   C75   S    
C3    C67   S    
C75   O76   A    
Cr4   O4    S    
Cr10  O67   S    
C50   C73   S    
Cr10  O25   S    
C7    H3    S    
O59   S4    D    
O71   S7    S    
C12   O15   A    
C11   H5    S    
O52   S2    D    
C72   O41   A    
C20   H16   S    
C1    O18   A    
C74   O43   A    
O73   S8    D    
Cr8   O22   S    
Cr12  O5    S    
Cr1   O36   S    
Cr5   O15   S    
C47   S7    S    
C28   C36   S    
C95   H34   S    
C28   S2    S    
Cr10  O11   S    
O65   S6    D    
Cr12  O27   S    
C27   C28   S    
C52   C71   S    
C33   C48   S    
C11   C25   S    
C49   C74   S    
C39   C48   S    
C2    C56   S    
C42   C87   S    
C31   H18   S    
C37   C46   S    
Cr4   O35   S    
Cr8   O45   S    
Cr6   O11   S    
C40   O27   A    
H29   O71   S    
C3    C16   S    
C39   C79   S    
H27   O64   S    
C96   H35   S    
Cr11  O26   S    
