data_mof_unit_47182.cif
_audit_creation_date              2012-12-11T14:44:13-0500
_audit_creation_method            fapswitch 2.2
_symmetry_space_group_name_H-M    P1
_symmetry_Int_Tables_number       1
_space_group_crystal_system       triclinic
_cell_length_a                    19.097112
_cell_length_b                    11.074497
_cell_length_c                    18.753928
_cell_angle_alpha                 90.068033
_cell_angle_beta                  90.292787
_cell_angle_gamma                 90.173625
_cell_volume                      3966.21242428

loop_
_atom_site_label
_atom_site_type_symbol
_atom_type_description
_atom_site_fract_x
_atom_site_fract_y
_atom_site_fract_z
_atom_type_partial_charge
C1    C     C_R   0.726943 0.370502 0.143413 0.617708
C2    C     C_R   0.946058 0.959457 0.062587 0.024321
C3    C     C_R   0.978790 0.752736 0.039756 -0.007866
C4    C     C_R   0.551694 0.075013 0.023938 -0.083639
C5    C     C_R   0.546469 0.085790 0.950439 -0.119899
C6    C     C_R   0.051694 0.575010 0.023938 -0.083674
C7    C     C_R   0.046468 0.585788 0.950439 -0.119827
C8    C     C_2   0.623366 0.857421 0.442220 0.625245
C9    C     C_2   0.332131 0.755666 0.581569 0.611077
C10   C     C_2   0.123151 0.357227 0.442067 0.623359
C11   C     C_2   0.829693 0.251541 0.583020 0.615528
C12   C     C_2   0.987819 0.116063 0.975769 0.642862
C13   C     C_R   0.467937 0.490065 0.992834 0.030304
C14   C     C_2   0.929665 0.051971 0.117136 0.677326
C15   C     C_2   0.487816 0.616061 0.975774 0.642784
C16   C     C_2   0.429663 0.551965 0.117142 0.677237
C17   C     C_2   0.689060 0.746100 0.088608 0.635232
C18   C     C_2   0.380980 0.859394 0.932962 0.684375
C19   C     C_2   0.189065 0.246095 0.088612 0.635133
C20   C     C_2   0.880979 0.359390 0.932961 0.684278
C21   C     C_2   0.653354 0.752369 0.935881 0.598765
C22   C     C_2   0.365223 0.929812 0.089582 0.625712
C23   C     C_2   0.153358 0.252364 0.935884 0.598905
C24   C     C_R   0.446055 0.459453 0.062591 0.024297
C25   C     C_2   0.865223 0.429809 0.089579 0.625711
C26   C     C_R   0.712209 0.845085 0.041266 -0.009738
C27   C     C_R   0.313529 0.893342 0.965469 0.008116
C28   C     C_R   0.212212 0.345081 0.041268 -0.009581
C29   C     C_R   0.813528 0.393336 0.965468 0.008437
C30   C     C_R   0.705096 0.836877 0.966940 -0.033223
C31   C     C_R   0.305861 0.901686 0.040119 -0.004131
C32   C     C_R   0.205099 0.336872 0.966942 -0.033191
C33   C     C_R   0.268659 0.377316 0.853590 0.541282
C34   C     C_R   0.805860 0.401681 0.040118 -0.004270
C35   C     C_R   0.742605 0.918768 0.922981 -0.034857
C36   C     C_R   0.237913 0.892989 0.067890 0.039473
C37   C     C_R   0.242607 0.418765 0.922983 -0.035714
C38   C     C_R   0.737913 0.392986 0.067889 0.039431
C39   C     C_R   0.766899 0.027355 0.952007 0.200719
C40   C     C_R   0.179328 0.882786 0.021769 0.219452
C41   C     C_R   0.266902 0.527350 0.952009 0.200520
C42   C     C_R   0.679327 0.382785 0.021768 0.219260
C43   C     C_R   0.765703 0.042333 0.025125 -0.094875
C44   C     C_R   0.226943 0.870504 0.143414 0.617536
C45   C     C_R   0.187810 0.887174 0.949035 -0.073588
C46   C     C_R   0.265706 0.542328 0.025127 -0.094780
C47   C     C_R   0.687809 0.387175 0.949034 -0.073288
C48   C     C_R   0.743536 0.948515 0.070119 -0.066484
C49   C     C_R   0.253300 0.906461 0.921119 -0.018844
C50   C     C_R   0.243539 0.448511 0.070121 -0.066451
C51   C     C_R   0.753298 0.406458 0.921118 -0.017725
C52   C     C_R   0.446910 0.127569 0.447473 0.270471
C53   C     C_R   0.430350 0.127981 0.520198 0.262278
C54   C     C_R   0.949966 0.617023 0.449104 0.215398
C55   C     C_R   0.768659 0.877317 0.853589 0.539382
C56   C     C_R   0.933701 0.619629 0.522156 0.260531
C57   C     C_R   0.481783 0.165521 0.570852 0.065226
C58   C     C_R   0.512511 0.168984 0.426806 0.033191
C59   C     C_R   0.983510 0.664187 0.571406 0.102968
C60   C     C_R   0.012083 0.670393 0.426876 0.044280
C61   C     C_R   0.535948 0.152979 0.144436 0.571007
C62   C     C_R   0.469599 0.157298 0.852525 0.530686
C63   C     C_R   0.035948 0.652979 0.144435 0.570912
C64   C     C_R   0.969599 0.657298 0.852525 0.525445
C65   C     C_R   0.545967 0.211444 0.548711 -0.139969
C66   C     C_R   0.483497 0.397852 0.942926 0.241412
C67   C     C_R   0.561201 0.213633 0.476606 -0.166363
C68   C     C_R   0.044638 0.720130 0.548325 -0.159249
C69   C     C_R   0.058469 0.724616 0.475841 -0.172554
C70   C     C_R   0.823858 0.899680 0.446911 0.221884
C71   C     C_R   0.197897 0.997676 0.530019 0.265641
C72   C     C_R   0.323630 0.401381 0.447162 0.228984
C73   C     C_R   0.695659 0.493391 0.531215 0.250598
C74   C     C_R   0.835532 0.880832 0.520353 0.218840
C75   C     C_R   0.208583 0.003130 0.456970 0.221742
C76   C     C_R   0.335072 0.383717 0.520672 0.222724
C77   C     C_R   0.445508 0.338729 0.083417 0.214929
C78   C     C_R   0.706473 0.499346 0.458239 0.205233
C79   C     C_R   0.778650 0.849892 0.564091 0.013584
C80   C     C_R   0.248994 0.913966 0.424406 -0.052384
C81   C     C_R   0.278156 0.352266 0.564256 0.011877
C82   C     C_R   0.747144 0.410530 0.425568 -0.061135
C83   C     C_R   0.711668 0.836794 0.535188 -0.162528
C84   C     C_R   0.290082 0.835782 0.466001 -0.160941
C85   C     C_R   0.211265 0.338742 0.535337 -0.149280
C86   C     C_R   0.786918 0.330317 0.467267 -0.208018
C87   C     C_R   0.698088 0.865392 0.464664 -0.017389
C88   C     C_R   0.983501 0.897853 0.942923 0.241631
C89   C     C_R   0.289071 0.842654 0.540233 0.006044
C90   C     C_R   0.197821 0.366314 0.464675 -0.013483
C91   C     C_R   0.786650 0.338259 0.541481 -0.006556
C92   C     C_R   0.754545 0.904438 0.420816 -0.000258
C93   C     C_R   0.244240 0.927553 0.572834 0.015797
C94   C     C_R   0.254390 0.405008 0.420838 0.000204
C95   C     C_R   0.742702 0.424533 0.573927 0.008072
C96   C     C_R   0.740012 0.974917 0.145694 0.573703
C97   C     C_R   0.259040 0.966257 0.851568 0.544741
C98   C     C_R   0.240013 0.474915 0.145695 0.573537
C99   C     C_R   0.945512 0.838734 0.083415 0.214976
C100  C     C_R   0.759040 0.466255 0.851567 0.541151
C101  C     C_R   0.729918 0.377465 0.352617 0.556000
C102  C     C_R   0.288627 0.332682 0.640367 0.569114
C103  C     C_R   0.230303 0.878261 0.352220 0.544297
C104  C     C_R   0.788967 0.831668 0.640444 0.611967
C105  C     C_R   0.534481 0.157287 0.353995 0.611781
C106  C     C_R   0.466510 0.157036 0.646127 0.525129
C107  C     C_R   0.034646 0.657494 0.354165 0.614265
C108  C     C_R   0.966787 0.656938 0.646320 0.575191
C109  C     C_R   0.741693 0.968824 0.353685 0.585492
C110  C     C_R   0.967941 0.990068 0.992830 0.030275
C111  C     C_R   0.257156 0.969973 0.645994 0.573022
C112  C     C_R   0.241682 0.468831 0.353622 0.583694
C113  C     C_R   0.756970 0.469600 0.646249 0.599851
C114  C     C_R   0.505829 0.177259 0.921394 -0.002693
C115  C     C_R   0.515546 0.154958 0.069188 0.060909
C116  C     C_R   0.005830 0.677258 0.921393 -0.001287
C117  C     C_R   0.015547 0.654959 0.069187 0.060882
C118  C     C_R   0.486191 0.275481 0.966224 -0.012059
C119  C     C_R   0.478787 0.252732 0.039758 -0.007729
C120  C     C_R   0.986195 0.775483 0.966222 -0.011515
Cr1   Cr    Cr6+3 0.772000 0.169640 0.250110 1.099028
Cr2   Cr    Cr6+3 0.383330 0.010620 0.749160 1.128585
Cr3   Cr    Cr6+3 0.116670 0.510620 0.250840 1.116682
Cr4   Cr    Cr6+3 0.883330 0.510620 0.749160 1.145584
Cr5   Cr    Cr6+3 0.228000 0.169640 0.749890 1.113272
Cr6   Cr    Cr6+3 0.272000 0.669640 0.250110 1.100480
Cr7   Cr    Cr6+3 0.728000 0.669640 0.749890 1.123037
Cr8   Cr    Cr6+3 0.614960 0.323350 0.249260 1.129603
Cr9   Cr    Cr6+3 0.385040 0.323350 0.750740 1.130885
Cr10  Cr    Cr6+3 0.114960 0.823350 0.249260 1.127429
Cr11  Cr    Cr6+3 0.885040 0.823350 0.750740 1.138442
Cr12  Cr    Cr6+3 0.616670 0.010620 0.250840 1.116504
H1    H     H_    0.584130 0.003595 0.045461 0.144082
H2    H     H_    0.142581 0.886316 0.914583 0.132496
H3    H     H_    0.280639 0.629312 0.046645 0.188519
H4    H     H_    0.642579 0.386319 0.914582 0.132670
H5    H     H_    0.584614 0.242547 0.587110 0.140361
H6    H     H_    0.612224 0.245404 0.459681 0.129137
H7    H     H_    0.081676 0.758304 0.586127 0.137557
H8    H     H_    0.107215 0.764661 0.458106 0.132597
H9    H     H_    0.920354 0.873825 0.418106 0.335391
H10   H     H_    0.112093 0.094874 0.523865 0.375454
H11   H     H_    0.420675 0.377718 0.419147 0.335831
H12   H     H_    0.570434 0.018727 0.916466 0.148956
H13   H     H_    0.609523 0.589627 0.525149 0.377147
H14   H     H_    0.929070 0.951663 0.521712 0.343687
H15   H     H_    0.204679 0.109266 0.375100 0.352363
H16   H     H_    0.428048 0.456621 0.522415 0.343885
H17   H     H_    0.703620 0.607588 0.377325 0.355677
H18   H     H_    0.522608 0.891245 0.467038 0.364795
H19   H     H_    0.419968 0.655376 0.586594 0.362553
H20   H     H_    0.022146 0.387400 0.467313 0.360604
H21   H     H_    0.916587 0.148808 0.587516 0.363211
H22   H     H_    0.541176 0.371762 0.858455 0.312895
H23   H     H_    0.084127 0.503591 0.045462 0.144099
H24   H     H_    0.404856 0.221114 0.147638 0.361619
H25   H     H_    0.041179 0.871759 0.858452 0.312342
H26   H     H_    0.904856 0.721121 0.147634 0.361521
H27   H     H_    0.032896 0.270680 0.011417 0.372567
H28   H     H_    0.936799 0.105187 0.219909 0.342329
H29   H     H_    0.532895 0.770676 0.011422 0.372553
H30   H     H_    0.436791 0.605169 0.219917 0.342614
H31   H     H_    0.614103 0.677701 0.152261 0.357979
H32   H     H_    0.483528 0.882042 0.925184 0.362320
H33   H     H_    0.114108 0.177694 0.152263 0.357920
H34   H     H_    0.070432 0.518723 0.916466 0.148604
H35   H     H_    0.983526 0.382042 0.925181 0.362176
H36   H     H_    0.615071 0.585225 0.930823 0.364999
H37   H     H_    0.461983 0.890082 0.125623 0.367324
H38   H     H_    0.115074 0.085220 0.930828 0.365006
H39   H     H_    0.961982 0.390082 0.125621 0.367303
H40   H     H_    0.772610 0.109933 0.860997 0.349504
H41   H     H_    0.100941 0.957498 0.064093 0.364200
H42   H     H_    0.272612 0.609931 0.861000 0.349425
H43   H     H_    0.600940 0.457498 0.064092 0.364180
H44   H     H_    0.353362 0.079030 0.416215 0.363889
H45   H     H_    0.668360 0.809305 0.568665 0.210860
H46   H     H_    0.352555 0.128371 0.586409 0.318499
H47   H     H_    0.881231 0.496829 0.422519 0.337592
H48   H     H_    0.833991 0.600858 0.508707 0.313406
H49   H     H_    0.320041 0.764682 0.440809 0.195547
H50   H     H_    0.167983 0.311334 0.568865 0.210277
H51   H     H_    0.816299 0.258494 0.442087 0.198585
H52   H     H_    0.780635 0.129316 0.046643 0.188534
O1    O     O_R   0.787540 0.042690 0.170470 -0.475435
O2    O     O_R   0.454130 0.051100 0.669160 -0.485529
O3    O     O_3   0.612485 0.375138 0.047031 -0.713422
O4    O     O_3   0.400185 0.090703 0.395178 -0.666364
O5    O     O_3   0.363949 0.092590 0.539712 -0.732497
O6    O     O_3   0.907340 0.562471 0.398859 -0.682778
O7    O     O_3   0.868887 0.584920 0.546734 -0.713381
O8    O     O_R   0.045870 0.551100 0.330840 -0.456192
O9    O     O_R   0.954130 0.551100 0.669160 -0.469986
O10   O     O_R   0.681340 0.959300 0.325510 -0.485322
O11   O     O_R   0.318660 0.959300 0.674490 -0.474143
O12   O     O_R   0.181340 0.459300 0.325510 -0.485322
O13   O     O_R   0.818660 0.459300 0.674490 -0.446134
O14   O     O_3   0.667880 0.167870 0.250070 -0.326315
O15   O     O_3   0.332120 0.167870 0.749930 -0.336055
O16   O     O_3   0.167880 0.667870 0.250070 -0.325907
O17   O     O_R   0.212460 0.042690 0.829530 -0.492407
O18   O     O_3   0.832120 0.667870 0.749930 -0.325196
O19   O     O_R   0.765660 0.292160 0.175050 -0.496027
O20   O     O_R   0.234340 0.292160 0.824950 -0.466958
O21   O     O_R   0.265660 0.792160 0.175050 -0.495888
O22   O     O_R   0.734340 0.792160 0.824950 -0.469563
O23   O     O_R   0.670190 0.408980 0.168550 -0.478474
O24   O     O_R   0.329810 0.408980 0.831450 -0.455495
O25   O     O_R   0.170190 0.908980 0.168550 -0.478253
O26   O     O_R   0.829810 0.908980 0.831450 -0.457802
O27   O     O_R   0.556580 0.251450 0.175160 -0.432098
O28   O     O_R   0.287540 0.542690 0.170470 -0.475431
O29   O     O_R   0.443420 0.251450 0.824840 -0.481880
O30   O     O_R   0.056580 0.751450 0.175160 -0.431961
O31   O     O_R   0.943420 0.751450 0.824840 -0.486693
O32   O     O_R   0.545920 0.049510 0.170320 -0.524119
O33   O     O_R   0.454080 0.049510 0.829680 -0.481865
O34   O     O_R   0.045920 0.549510 0.170320 -0.524166
O35   O     O_R   0.954080 0.549510 0.829680 -0.486794
O36   O     O_R   0.681390 0.957840 0.176710 -0.477179
O37   O     O_R   0.318610 0.957840 0.823290 -0.468094
O38   O     O_R   0.181390 0.457840 0.176710 -0.477306
O39   O     O_R   0.712460 0.542690 0.829530 -0.494685
O40   O     O_R   0.818610 0.457840 0.823290 -0.473038
O41   O     O_R   0.787500 0.044280 0.330990 -0.449399
O42   O     O_R   0.212500 0.044280 0.669010 -0.458237
O43   O     O_R   0.287500 0.544280 0.330990 -0.449397
O44   O     O_R   0.712500 0.544280 0.669010 -0.458612
O45   O     O_R   0.765610 0.293630 0.323860 -0.506353
O46   O     O_R   0.234390 0.293630 0.676140 -0.508387
O47   O     O_R   0.265610 0.793630 0.323860 -0.504410
O48   O     O_R   0.734390 0.793630 0.676140 -0.511125
O49   O     O_R   0.670140 0.410570 0.329080 -0.474529
O50   O     O_R   0.556540 0.252920 0.323970 -0.492937
O51   O     O_R   0.329860 0.410570 0.670920 -0.423425
O52   O     O_R   0.170140 0.910570 0.329080 -0.478103
O53   O     O_R   0.829860 0.910570 0.670920 -0.430916
O54   O     O_3   0.878545 0.916630 0.399891 -0.640427
O55   O     O_3   0.144965 0.065054 0.560843 -0.663103
O56   O     O_3   0.378435 0.418357 0.400248 -0.640208
O57   O     O_3   0.642538 0.560229 0.562121 -0.658949
O58   O     O_3   0.900933 0.895534 0.551048 -0.688205
O59   O     O_3   0.176228 0.092947 0.418175 -0.661183
O60   O     O_3   0.400346 0.399482 0.551505 -0.693431
O61   O     O_R   0.443460 0.252920 0.676030 -0.489075
O62   O     O_3   0.674528 0.590032 0.419780 -0.659308
O63   O     O_2   0.606505 0.802562 0.388155 -0.433811
O64   O     O_R   0.571629 0.905695 0.486297 -0.701290
O65   O     O_2   0.312174 0.719207 0.639582 -0.487712
O66   O     O_R   0.394916 0.712897 0.553158 -0.676395
O67   O     O_2   0.106658 0.302744 0.387755 -0.433529
O68   O     O_R   0.071048 0.403706 0.486361 -0.705950
O69   O     O_2   0.810625 0.217913 0.641934 -0.490496
O70   O     O_R   0.891433 0.205822 0.553858 -0.680375
O71   O     O_3   0.508430 0.433136 0.876937 -0.630813
O72   O     O_R   0.056540 0.752920 0.323970 -0.496268
O73   O     O_3   0.415801 0.308510 0.148086 -0.620443
O74   O     O_3   0.008435 0.933136 0.876934 -0.631725
O75   O     O_3   0.915804 0.808517 0.148083 -0.620805
O76   O     O_2   0.986489 0.151505 0.914206 -0.391144
O77   O     O_R   0.015520 0.190064 0.029297 -0.638776
O78   O     O_2   0.897122 0.142117 0.100503 -0.477159
O79   O     O_R   0.951301 0.035910 0.187871 -0.608842
O80   O     O_2   0.486485 0.651504 0.914211 -0.390587
O81   O     O_R   0.515520 0.690059 0.029302 -0.638833
O82   O     O_2   0.397125 0.642117 0.100509 -0.477167
O83   O     O_R   0.943460 0.752920 0.676030 -0.482694
O84   O     O_R   0.451294 0.535895 0.187878 -0.608637
O85   O     O_2   0.728499 0.661763 0.100229 -0.479505
O86   O     O_R   0.623487 0.750649 0.121076 -0.652603
O87   O     O_2   0.381627 0.786733 0.883879 -0.388912
O88   O     O_R   0.442964 0.913062 0.954374 -0.675222
O89   O     O_2   0.228509 0.161769 0.100242 -0.479715
O90   O     O_R   0.123489 0.250637 0.121074 -0.652646
O91   O     O_2   0.881626 0.286728 0.883877 -0.390101
O92   O     O_R   0.942962 0.413059 0.954372 -0.675065
O93   O     O_2   0.613056 0.787388 0.889426 -0.499629
O94   O     O_R   0.545870 0.051100 0.330840 -0.461213
O95   O     O_R   0.649913 0.633940 0.959644 -0.678443
O96   O     O_2   0.357256 0.005689 0.136223 -0.506248
O97   O     O_R   0.428470 0.868162 0.085667 -0.597920
O98   O     O_2   0.113059 0.287382 0.889428 -0.500073
O99   O     O_R   0.149916 0.133936 0.959649 -0.678393
O100  O     O_2   0.857256 0.505691 0.136218 -0.506003
O101  O     O_R   0.928470 0.368159 0.085665 -0.597943
O102  O     O_3   0.789430 0.121868 0.910592 -0.649576
O103  O     O_3   0.112487 0.875138 0.047031 -0.713400
O104  O     O_3   0.289434 0.621863 0.910595 -0.649536

loop_
_geom_bond_atom_site_label_1
_geom_bond_atom_site_label_2
_ccdc_geom_bond_type
C42   O3    S    
C83   C87   A    
H21   O70   S    
C33   O24   A    
C85   H50   S    
C64   C116  S    
Cr2   O33   S    
C5    C114  A    
C105  O50   A    
Cr5   O15   S    
C64   O31   A    
C35   C39   A    
Cr6   O43   S    
C15   O81   S    
Cr2   O11   S    
C72   C76   A    
C18   O88   S    
C101  O45   A    
Cr5   O20   S    
C16   O84   S    
Cr9   O61   S    
H18   O64   S    
H47   O6    S    
Cr5   O17   S    
C45   H2    S    
H17   O62   S    
C30   C35   A    
Cr9   O51   S    
C17   C26   S    
C63   O34   A    
C84   H49   S    
C76   O60   S    
Cr7   O22   S    
C95   C113  S    
Cr7   O44   S    
C38   C42   A    
C86   C91   A    
C21   O95   S    
Cr8   O27   S    
C29   C51   A    
C47   H4    S    
Cr6   O47   S    
C22   O96   D    
C92   C109  S    
C104  O48   A    
C19   O90   S    
Cr11  O83   S    
C100  O40   A    
Cr6   O21   S    
H26   O75   S    
H38   O99   S    
C3    C99   A    
C48   C96   S    
C43   H52   S    
C51   C100  S    
C11   O70   S    
Cr1   O41   S    
C44   O25   A    
C61   O27   A    
H30   O84   S    
Cr11  O18   S    
C67   H6    S    
Cr10  O72   S    
C118  C119  A    
C112  O12   A    
C52   O4    S    
C15   O80   D    
C3    C117  A    
C11   O69   D    
C46   H3    S    
C28   C50   A    
C81   C102  S    
C103  O52   A    
Cr4   O40   S    
C8    O63   D    
H29   O81   S    
C68   C69   A    
C65   C67   A    
Cr2   O37   S    
Cr4   O9    S    
C61   C115  S    
H28   O79   S    
C41   C46   A    
C72   O56   S    
C90   C94   A    
Cr12  O32   S    
Cr8   O23   S    
C99   O75   S    
H33   O90   S    
C88   C120  A    
C41   O104  S    
C14   O78   D    
C43   C48   A    
C98   O38   A    
C6    C117  A    
H37   O97   S    
C6    H23   S    
Cr7   O39   S    
C25   C34   S    
H22   O71   S    
C72   C94   A    
H27   O77   S    
C69   H8    S    
C13   C66   A    
C57   C106  S    
H32   O88   S    
Cr4   O35   S    
C102  O51   A    
C16   C24   S    
C112  O43   A    
C77   O73   S    
C87   C92   A    
Cr12  O10   S    
C105  O94   A    
H10   O55   S    
C65   H5    S    
Cr10  O16   S    
H11   O56   S    
C28   C32   A    
C12   C110  S    
C18   O87   D    
C81   C85   A    
H44   O4    S    
H19   O66   S    
C20   C29   S    
C39   O102  S    
C103  O47   A    
C104  O53   A    
Cr3   O38   S    
C54   C56   A    
C50   C98   S    
Cr1   O45   S    
C22   C31   S    
C83   H45   S    
H31   O86   S    
Cr11  O31   S    
C80   C84   A    
C62   O33   A    
Cr3   O16   S    
C36   C40   A    
C75   O59   S    
C26   C48   A    
C106  O2    A    
C17   O85   D    
Cr5   O46   S    
C14   O79   S    
C10   C90   S    
C9    C89   S    
C106  O61   A    
Cr9   O24   S    
C109  O41   A    
C4    C5    A    
C113  O44   A    
C39   C43   A    
C80   C103  S    
C100  O39   A    
C77   C119  A    
C96   O36   A    
C27   C31   A    
C29   C34   A    
H48   O7    S    
C89   C93   A    
C33   C37   S    
C116  C120  A    
C13   C24   A    
Cr4   O18   S    
Cr12  O36   S    
C71   O55   S    
C7    C116  A    
C107  O8    A    
C108  O83   A    
C9    O65   D    
C20   O92   S    
C70   C74   A    
C12   O76   D    
C21   O93   D    
C59   C68   A    
H40   O102  S    
C68   H7    S    
C78   C82   A    
H25   O74   S    
H41   O103  S    
H9    O54   S    
C45   C49   A    
C73   C78   A    
H42   O104  S    
H14   O58   S    
Cr11  O26   S    
Cr12  O14   S    
H13   O57   S    
C109  O10   A    
Cr9   O15   S    
C32   C37   A    
C66   O71   S    
C25   O100  D    
C19   C28   S    
Cr1   O19   S    
C35   C55   S    
C114  C118  A    
C60   C107  S    
C52   C58   A    
C1    C38   S    
C93   C111  S    
Cr9   O29   S    
C10   O67   D    
C61   O32   A    
C7    H34   S    
C2    C99   A    
C26   C30   A    
C115  C119  A    
C74   C79   A    
C13   C15   S    
C101  O49   A    
C86   H51   S    
Cr2   O15   S    
C62   O29   A    
C79   C104  S    
C36   C44   S    
Cr8   O50   S    
C5    H12   S    
C84   C89   A    
C73   C95   A    
Cr5   O42   S    
C1    O19   A    
H20   O68   S    
C52   C53   A    
H16   O60   S    
H24   O73   S    
C75   C80   A    
C23   O98   D    
Cr6   O16   S    
Cr8   O49   S    
H46   O5    S    
C55   O22   A    
C2    C110  A    
Cr7   O48   S    
C53   C57   A    
C54   O6    S    
C64   O35   A    
C34   C38   A    
C111  O42   A    
C96   O1    A    
Cr3   O34   S    
C25   O101  S    
C70   C92   A    
C18   C27   S    
C71   C75   A    
C97   O17   A    
C17   O86   S    
H39   O101  S    
C22   O97   S    
C76   C81   A    
C2    C14   S    
C47   C51   A    
C85   C90   A    
C4    C115  A    
C62   C114  S    
C6    C7    A    
C71   C93   A    
C88   O74   S    
Cr12  O94   S    
C21   C30   S    
C46   C50   A    
C33   O20   A    
Cr3   O12   S    
C59   C108  S    
C56   C59   A    
C54   C60   A    
C8    C87   S    
C23   C32   S    
C58   C105  S    
H43   O3    S    
C9    O66   S    
C108  O9    A    
C20   O91   D    
C88   C110  A    
C82   C86   A    
C55   O26   A    
C79   C83   A    
C23   O99   S    
C19   O89   D    
H15   O59   S    
C98   O28   A    
C60   C69   A    
Cr11  O53   S    
C63   C117  S    
Cr4   O13   S    
Cr10  O52   S    
C44   O21   A    
C78   O62   S    
C82   C101  S    
C97   O37   A    
C107  O72   A    
Cr10  O30   S    
C10   O68   S    
C12   O77   S    
C63   O30   A    
C37   C41   A    
C1    O23   A    
Cr7   O18   S    
Cr8   O14   S    
Cr1   O14   S    
C56   O7    S    
C40   O103  S    
Cr2   O2    S    
C3    C120  A    
Cr1   O1    S    
C74   O58   S    
C11   C91   S    
C58   C67   A    
C42   C47   A    
C73   O57   S    
C40   C45   A    
C8    O64   S    
C91   C95   A    
C66   C118  A    
H35   O92   S    
C24   C77   A    
C102  O46   A    
C113  O13   A    
C31   C36   A    
Cr10  O25   S    
Cr6   O28   S    
C70   O54   S    
Cr3   O8    S    
C53   O5    S    
C94   C112  S    
C16   O82   D    
C27   C49   A    
H36   O95   S    
C111  O11   A    
C4    H1    S    
C57   C65   A    
C49   C97   S    
