data_mof_unit_40724.cif
_audit_creation_date              2012-12-10T17:42:44-0500
_audit_creation_method            fapswitch 2.2
_symmetry_space_group_name_H-M    P1
_symmetry_Int_Tables_number       1
_space_group_crystal_system       triclinic
_cell_length_a                    9.896939
_cell_length_b                    10.726125
_cell_length_c                    13.125877
_cell_angle_alpha                 91.294081
_cell_angle_beta                  69.825101
_cell_angle_gamma                 88.671451
_cell_volume                      1306.8495396

loop_
_atom_site_label
_atom_site_type_symbol
_atom_type_description
_atom_site_fract_x
_atom_site_fract_y
_atom_site_fract_z
_atom_type_partial_charge
C1    C     C_R   0.499155 0.740553 0.495872 0.871017
C2    C     C_R   0.368197 0.488403 0.822012 -0.167892
C3    C     C_R   0.231085 0.897828 0.511426 -0.176418
C4    C     C_R   0.420095 0.494574 0.704003 0.845707
C5    C     C_R   0.100369 0.964867 0.555751 -0.153076
C6    C     C_R   0.095273 0.079151 0.608913 -0.152834
C7    C     C_R   0.222902 0.131955 0.607711 -0.154628
C8    C     C_R   0.357436 0.069647 0.553579 0.102494
C9    C     C_R   0.360159 0.944750 0.519795 0.099360
C10   C     C_R   0.492744 0.874940 0.495115 -0.125278
C11   C     C_R   0.620775 0.934753 0.484544 -0.222443
C12   C     C_R   0.433454 0.482483 0.983715 0.064073
C13   C     C_R   0.620175 0.061663 0.496730 -0.222808
C14   C     C_R   0.490000 0.129666 0.527308 -0.132603
C15   C     C_R   0.791135 0.661717 0.646054 -0.147184
C16   C     C_R   0.496092 0.261402 0.511128 0.873933
C17   C     C_R   0.826525 0.735799 0.720972 -0.203779
C18   C     C_R   0.965512 0.731740 0.722795 -0.182503
C19   C     C_R   0.070376 0.654944 0.648599 -0.183779
C20   C     C_R   0.037680 0.577079 0.573089 0.144292
C21   C     C_R   0.893311 0.578606 0.572377 0.175630
C22   C     C_R   0.962045 0.425150 0.430655 -0.145151
C23   C     C_R   0.461320 0.444461 0.874888 0.086622
C24   C     C_R   0.105339 0.425468 0.430453 -0.110897
C25   C     C_R   0.580186 0.499156 0.295805 0.881434
C26   C     C_R   0.775594 0.367115 0.016407 -0.184395
C27   C     C_R   0.629658 0.482048 0.178690 -0.062372
C28   C     C_R   0.233831 0.543895 0.882289 -0.189917
C29   C     C_R   0.196050 0.564736 0.993657 0.156101
C30   C     C_R   0.296259 0.537095 0.043952 -0.259717
C31   C     C_R   0.543703 0.463527 0.027967 0.092685
C32   C     C_R   0.669546 0.390517 0.969948 0.174432
C33   C     C_R   0.685646 0.339243 0.867927 -0.252052
C34   C     C_R   0.582614 0.365329 0.821035 -0.185550
C35   C     C_R   0.532648 0.516313 0.128357 -0.255626
C36   C     C_R   0.753898 0.410271 0.122023 -0.197109
H1    H     H_    0.829465 0.382256 0.161062 0.144316
H2    H     H_    0.993297 0.790768 0.780138 0.157629
H3    H     H_    0.176482 0.660752 0.651026 0.208406
H4    H     H_    0.778609 0.279925 0.823822 0.140307
H5    H     H_    0.186653 0.364516 0.373692 0.156796
H6    H     H_    0.871324 0.310529 0.973233 0.136110
H7    H     H_    0.444888 0.580195 0.172120 0.146183
H8    H     H_    0.160313 0.575268 0.842514 0.165065
H9    H     H_    0.262211 0.556135 0.130344 0.134389
H10   H     H_    0.598037 0.321445 0.742617 0.167059
H11   H     H_    0.723027 0.883812 0.464091 0.169958
H12   H     H_    0.228180 0.813238 0.466576 0.174067
H13   H     H_    0.074301 0.704131 0.089888 0.180347
H14   H     H_    0.006556 0.560920 0.117333 0.186899
H15   H     H_    0.002612 0.927114 0.550026 0.148296
H16   H     H_    0.993249 0.129091 0.647333 0.132435
H17   H     H_    0.215665 0.221946 0.648590 0.152907
H18   H     H_    0.722386 0.106542 0.479162 0.168923
H19   H     H_    0.935493 0.364039 0.374098 0.140581
H20   H     H_    0.683184 0.673815 0.648364 0.206661
H21   H     H_    0.745790 0.797911 0.777123 0.152362
N1    N     N_R   0.856860 0.501200 0.500990 -0.118302
N2    N     N_R   0.142450 0.501280 0.501020 -0.123655
N3    N     N_3   0.057978 0.620153 0.054471 -0.457537
O1    O     O_R   0.385310 0.683220 0.500000 -0.649220
O2    O     O_R   0.614640 0.683250 0.500010 -0.635208
O3    O     O_R   0.328400 0.499950 0.653610 -0.638702
O4    O     O_R   0.557730 0.499970 0.653620 -0.626097
O5    O     O_R   0.385360 0.316750 0.499990 -0.613174
O6    O     O_R   0.614690 0.316780 0.500000 -0.623649
O7    O     O_R   0.442270 0.500030 0.346380 -0.611691
O8    O     O_R   0.671600 0.500050 0.346390 -0.612973
Zn1   Zn    Zn3+2 0.346880 0.499980 0.499990 0.918335
Zn2   Zn    Zn3+2 0.653120 0.500020 0.500010 0.922410

loop_
_geom_bond_atom_site_label_1
_geom_bond_atom_site_label_2
_ccdc_geom_bond_type
C22   N1    A    
C2    C4    S    
C26   C32   A    
C6    C7    A    
C3    C9    A    
O4    Zn2   S    
C27   C36   A    
C25   C27   S    
C35   H7    S    
C9    C10   A    
C4    O4    A    
C30   H9    S    
C11   H11   S    
C19   C20   A    
C12   C23   A    
C29   N3    S    
C15   C21   A    
C3    C5    A    
C23   C34   A    
H14   N3    S    
C32   C33   A    
C17   C18   A    
C18   H2    S    
C22   H19   S    
C7    C8    A    
O6    Zn2   S    
C13   C14   A    
C1    O2    A    
C20   N2    A    
C24   H5    S    
C25   O8    A    
C4    O3    A    
C26   H6    S    
C29   C30   A    
H13   N3    S    
C19   H3    S    
N2    Zn1   S    
C24   N2    A    
C34   H10   S    
C22   C24   A    
C26   C36   A    
C36   H1    S    
O3    Zn1   S    
C33   C34   A    
C31   C35   A    
C12   C31   A    
O5    Zn1   S    
C5    C6    A    
C15   H20   S    
C14   C16   S    
C33   H4    S    
C16   O6    A    
C10   C11   A    
C7    H17   S    
C6    H16   S    
C3    H12   S    
C11   C13   A    
C18   C19   A    
C20   C21   A    
O2    Zn2   S    
C8    C9    A    
O8    Zn2   S    
C13   H18   S    
C1    C10   S    
O1    Zn1   S    
C2    C23   A    
C15   C17   A    
C28   C29   A    
C2    C28   A    
C16   O5    A    
C8    C14   A    
C27   C35   A    
C12   C30   A    
C28   H8    S    
C25   O7    A    
N1    Zn2   S    
C21   N1    A    
C31   C32   A    
C17   H21   S    
C5    H15   S    
O7    Zn1   S    
C1    O1    A    
