data_mof_unit_26769.cif
_audit_creation_date              2012-10-26T19:21:55-0400
_audit_creation_method            fapswitch 2.2
_symmetry_space_group_name_H-M    P1
_symmetry_Int_Tables_number       1
_space_group_crystal_system       triclinic
_cell_length_a                    23.547956
_cell_length_b                    11.152202
_cell_length_c                    9.948584
_cell_angle_alpha                 111.267194
_cell_angle_beta                  98.686425
_cell_angle_gamma                 91.989834
_cell_volume                      2395.37882824

loop_
_atom_site_label
_atom_site_type_symbol
_atom_type_description
_atom_site_fract_x
_atom_site_fract_y
_atom_site_fract_z
_atom_type_partial_charge
C1    C     C_R   0.493397 0.255828 0.441040 0.547462
C2    C     C_R   0.708360 0.614291 0.605419 -0.018272
C3    C     C_R   0.227623 0.426971 0.393899 0.061094
C4    C     C_R   0.768742 0.611312 0.615816 0.060262
C5    C     C_R   0.210138 0.520394 0.516132 0.258899
C6    C     C_R   0.791288 0.509163 0.512266 0.257647
C7    C     C_2   0.476831 0.121690 0.411579 -0.020756
C8    C     C_2   0.505272 0.884390 0.583894 -0.042763
C9    C     C_2   0.509879 0.056451 0.479950 -0.062193
C10   C     C_2   0.490458 0.925185 0.469960 -0.056808
C11   C     C_2   0.504339 0.513019 0.082873 0.060496
C12   C     C_R   0.502410 0.745500 0.558252 0.533300
C13   C     C_2   0.492467 0.497294 0.921961 0.057643
C14   C     C_R   0.391171 0.501519 0.500791 0.539728
C15   C     C_R   0.608686 0.502231 0.500109 0.547803
C16   C     C_R   0.878298 0.591662 0.461465 0.384392
C17   C     C_R   0.124477 0.442824 0.577058 0.384306
C18   C     C_R   0.883447 0.436229 0.574223 0.387687
C19   C     C_R   0.119507 0.607925 0.477975 0.385664
C20   C     C_R   0.943070 0.429635 0.569341 0.029725
C21   C     C_R   0.060338 0.616275 0.487505 0.029482
C22   C     C_R   0.971498 0.520313 0.525471 -0.055087
C23   C     C_R   0.250970 0.608284 0.631150 0.022766
C24   C     C_R   0.031942 0.524157 0.529430 -0.055695
C25   C     C_R   0.939123 0.605593 0.474885 -0.001450
C26   C     C_R   0.064207 0.436753 0.576539 -0.001846
C27   C     C_R   0.974686 0.336220 0.606671 -0.028455
C28   C     C_R   0.029012 0.712873 0.456385 -0.028380
C29   C     C_R   0.035329 0.344685 0.617724 -0.003277
C30   C     C_R   0.968287 0.702974 0.442618 -0.003502
C31   C     C_3   0.943778 0.222064 0.624934 -0.332740
C32   C     C_3   0.060215 0.830680 0.446385 -0.330370
C33   C     C_1   0.583277 0.588503 0.923577 0.377661
C34   C     C_R   0.754294 0.407257 0.402099 0.024293
C35   C     C_1   0.453560 0.318418 0.049948 0.374121
C36   C     C_1   0.067167 0.258392 0.673816 0.263362
C37   C     C_1   0.936753 0.795887 0.397774 0.262944
C38   C     C_3   0.229657 0.705598 0.760391 -0.351851
C39   C     C_3   0.780369 0.302839 0.289383 -0.351633
C40   C     C_1   0.352038 0.701280 0.735247 0.227109
C41   C     C_1   0.655989 0.294541 0.296075 0.226340
C42   C     C_3   0.307068 0.313727 0.263170 -0.343883
C43   C     C_3   0.684492 0.733279 0.703765 -0.355462
C44   C     C_3   0.182644 0.337388 0.268353 -0.345480
C45   C     C_R   0.310157 0.603838 0.623428 -0.028792
C46   C     C_3   0.808941 0.718016 0.736935 -0.345182
C47   C     C_1   0.457602 0.839093 0.328877 0.269544
C48   C     C_1   0.568890 0.108669 0.551688 0.241104
C49   C     C_1   0.527525 0.974649 0.731472 0.223015
C50   C     C_1   0.418805 0.074137 0.330685 0.207113
C51   C     C_1   0.438469 0.426513 0.835180 0.286294
C52   C     C_1   0.545014 0.618866 0.183997 0.296897
C53   C     C_R   0.694233 0.404826 0.399428 -0.030283
C54   C     C_R   0.328543 0.507815 0.504085 -0.000163
C55   C     C_R   0.671299 0.507846 0.500900 0.006865
C56   C     C_R   0.287187 0.418265 0.389230 -0.027051
Cu1   Cu    Cu3+1 0.509980 0.521810 0.644910 1.025274
Cu2   Cu    Cu3+1 0.490020 0.478190 0.355090 1.017386
H1    H     H_    0.929586 0.253825 0.732941 0.185843
H2    H     H_    0.808368 0.347806 0.236673 0.157367
H3    H     H_    0.806747 0.246999 0.343428 0.162985
H4    H     H_    0.747817 0.233458 0.200370 0.145102
H5    H     H_    0.343610 0.270128 0.305786 0.167577
H6    H     H_    0.273750 0.232381 0.199575 0.139069
H7    H     H_    0.320891 0.356141 0.186792 0.168549
H8    H     H_    0.637647 0.736147 0.670980 0.156534
H9    H     H_    0.692870 0.738563 0.818644 0.165793
H10   H     H_    0.705345 0.821797 0.698374 0.141474
H11   H     H_    0.184204 0.236790 0.264302 0.144048
H12   H     H_    0.906357 0.178946 0.534574 0.182685
H13   H     H_    0.137910 0.362470 0.277173 0.153633
H14   H     H_    0.190906 0.341994 0.163267 0.146481
H15   H     H_    0.854764 0.697538 0.744790 0.153408
H16   H     H_    0.806012 0.810104 0.718449 0.146414
H17   H     H_    0.797000 0.730549 0.844648 0.143887
H18   H     H_    0.970582 0.140978 0.617766 0.123152
H19   H     H_    0.073943 0.804587 0.338200 0.186552
H20   H     H_    0.033735 0.913174 0.460541 0.123209
H21   H     H_    0.097983 0.869424 0.536554 0.183662
H22   H     H_    0.202811 0.771171 0.722946 0.158953
H23   H     H_    0.203121 0.654057 0.809638 0.160628
H24   H     H_    0.264708 0.766467 0.849017 0.151336
N1    N     N_R   0.852622 0.511508 0.514961 -0.401196
N2    N     N_1   0.625395 0.206661 0.213874 -0.239818
N3    N     N_1   0.431295 0.771335 0.217078 -0.248761
N4    N     N_1   0.615791 0.150256 0.608446 -0.252673
N5    N     N_1   0.545276 0.046484 0.849388 -0.226170
N6    N     N_1   0.372537 0.035881 0.265977 -0.270733
N7    N     N_1   0.395113 0.368605 0.767807 -0.269691
N8    N     N_1   0.578082 0.703351 0.263518 -0.273117
N9    N     N_R   0.149788 0.524822 0.525343 -0.401589
N10   N     N_2   0.475010 0.445410 0.137370 -0.293233
N11   N     N_2   0.524990 0.554590 0.862630 -0.287795
N12   N     N_1   0.631826 0.616392 0.973113 -0.287971
N13   N     N_1   0.435767 0.212676 0.978217 -0.262281
N14   N     N_1   0.092244 0.189401 0.718665 -0.273983
N15   N     N_1   0.911893 0.870234 0.362086 -0.273109
N16   N     N_1   0.385461 0.778960 0.824307 -0.233471
O1    O     O_R   0.505330 0.332340 0.577400 -0.500739
O2    O     O_2   0.158040 0.366201 0.625579 -0.468935
O3    O     O_2   0.856077 0.370857 0.640071 -0.504291
O4    O     O_2   0.146818 0.678444 0.417567 -0.507218
O5    O     O_R   0.494670 0.667660 0.422600 -0.496309
O6    O     O_R   0.488470 0.295500 0.332650 -0.489607
O7    O     O_R   0.511530 0.704500 0.667350 -0.487386
O8    O     O_R   0.426310 0.518390 0.622390 -0.486760
O9    O     O_R   0.573690 0.481610 0.377610 -0.493269
O10   O     O_R   0.409450 0.481550 0.377650 -0.509029
O11   O     O_R   0.590550 0.518450 0.622350 -0.498978
O12   O     O_2   0.844471 0.657702 0.396882 -0.466535

loop_
_geom_bond_atom_site_label_1
_geom_bond_atom_site_label_2
_ccdc_geom_bond_type
Cu1   O7    S    
C23   C45   A    
C27   C29   A    
C15   O11   A    
C52   N8    T    
C17   N9    A    
C33   N12   T    
C1    O1    A    
C37   N15   T    
Cu1   Cu2   S    
C16   O12   S    
C4    C46   S    
C29   C36   S    
C17   C26   A    
C47   N3    T    
C19   C21   A    
C24   C26   A    
C2    C55   A    
C40   N16   T    
C12   O7    A    
C19   O4    S    
C15   O9    A    
Cu1   O1    S    
C16   C25   A    
C44   H13   S    
Cu2   O9    S    
C31   H1    S    
C49   N5    T    
C11   C52   S    
C42   C56   S    
C32   H19   S    
C13   C51   S    
C11   N10   D    
C31   H12   S    
Cu1   O11   S    
C43   H10   S    
C22   C25   A    
C42   H7    S    
C9    C10   S    
C18   C20   A    
C50   N6    T    
C35   N10   S    
C14   O10   A    
Cu1   O8    S    
Cu1   N11   S    
C38   H24   S    
C46   H17   S    
C53   C55   A    
C40   C45   S    
C39   H3    S    
C54   C56   A    
C3    C44   S    
C27   C31   S    
C34   C39   S    
C28   C32   S    
C12   O5    A    
C4    C6    A    
C48   N4    T    
C41   N2    T    
C16   N1    A    
C6    C34   A    
C30   C37   S    
C13   N11   D    
C18   O3    S    
C15   C55   S    
C2    C4    A    
C3    C56   A    
C36   N14   T    
C5    C23   A    
C2    C43   S    
C8    C12   S    
C18   N1    A    
C44   H11   S    
C1    O6    A    
C41   C53   S    
C5    N9    S    
C34   C53   A    
C8    C10   D    
C14   C54   S    
C21   C28   A    
C20   C22   A    
C45   C54   A    
C38   H23   S    
C22   C24   A    
Cu2   O6    S    
C42   H6    S    
C9    C48   S    
C46   H16   S    
C25   C30   A    
C7    C9    D    
C39   H4    S    
C6    N1    S    
C1    C7    S    
C7    C50   S    
C3    C5    A    
C33   N11   S    
C20   C27   A    
C35   N13   T    
C23   C38   S    
C28   C30   A    
C51   N7    T    
C32   H21   S    
C11   C13   S    
C31   H18   S    
C38   H22   S    
C43   H8    S    
C39   H2    S    
C42   H5    S    
C44   H14   S    
Cu2   O10   S    
C17   O2    S    
C19   N9    A    
C32   H20   S    
C14   O8    A    
C26   C29   A    
C43   H9    S    
C21   C24   A    
C10   C47   S    
Cu2   O5    S    
Cu2   N10   S    
C8    C49   S    
C46   H15   S    
