data_mof_unit_37821.cif
_audit_creation_date              2012-12-10T16:39:39-0500
_audit_creation_method            fapswitch 2.2
_symmetry_space_group_name_H-M    P1
_symmetry_Int_Tables_number       1
_space_group_crystal_system       triclinic
_cell_length_a                    16.736852
_cell_length_b                    16.773069
_cell_length_c                    16.802678
_cell_angle_alpha                 65.831908
_cell_angle_beta                  65.743278
_cell_angle_gamma                 65.294386
_cell_volume                      3742.54667877

loop_
_atom_site_label
_atom_site_type_symbol
_atom_type_description
_atom_site_fract_x
_atom_site_fract_y
_atom_site_fract_z
_atom_type_partial_charge
C1    C     C_R   0.328303 0.940058 0.461850 0.010491
C2    C     C_R   0.327398 0.462395 0.938938 -0.015499
C3    C     C_R   0.550347 0.416930 0.973916 -0.057125
C4    C     C_R   0.982547 0.459347 0.596666 -0.054212
C5    C     C_R   0.938930 0.558477 0.430601 -0.053763
C6    C     C_3   0.302803 0.860920 0.298254 -0.336842
C7    C     C_3   0.384287 0.776686 0.279747 -0.393545
C8    C     C_3   0.352833 0.700052 0.286760 -0.870494
C9    C     C_3   0.687281 0.143264 0.703055 -0.344995
C10   C     C_3   0.699692 0.231562 0.626529 -0.394533
C11   C     C_3   0.696393 0.302511 0.663740 -0.857584
C12   C     C_3   0.862050 0.295125 0.290200 -0.366468
C13   C     C_R   0.991186 0.688865 0.566770 -0.023807
C14   C     C_3   0.922147 0.224173 0.235202 -0.251571
C15   C     C_3   0.895569 0.245273 0.150612 -0.767359
C16   C     C_3   0.145385 0.689666 0.685063 -0.356700
C17   C     C_3   0.227105 0.697078 0.598145 -0.367129
C18   C     C_3   0.314934 0.677861 0.619376 -0.872971
C19   C     C_3   0.300394 0.297833 0.854762 -0.353567
C20   C     C_3   0.281406 0.373023 0.767776 -0.382094
C21   C     C_3   0.273013 0.334379 0.704529 -0.857078
C22   C     C_3   0.702412 0.698772 0.141886 -0.334794
C23   C     C_3   0.626325 0.724033 0.226098 -0.403917
C24   C     C_R   0.929631 0.328831 0.462780 -0.012759
C25   C     C_3   0.662586 0.743770 0.283650 -0.807537
C26   C     C_R   0.451526 0.986823 0.456386 0.051130
C27   C     C_R   0.551161 0.006310 0.544690 0.052164
C28   C     C_R   0.943215 0.465542 0.468746 0.048695
C29   C     C_R   0.979563 0.551979 0.558041 0.052492
C30   C     C_R   0.460647 0.461618 0.966099 0.049437
C31   C     C_R   0.542351 0.543036 0.018381 0.049279
C32   C     C_R   0.958362 0.179532 0.438928 0.888414
C33   C     C_R   0.672507 0.056126 0.538995 -0.007206
C34   C     C_R   0.023888 0.822285 0.567924 0.890240
C35   C     C_R   0.179820 0.438667 0.959493 0.887450
C36   C     C_R   0.820027 0.561984 0.038348 0.874646
C37   C     C_R   0.431740 0.974565 0.178021 0.882835
C38   C     C_R   0.568635 0.023685 0.822344 0.874726
C39   C     C_R   0.562408 0.819903 0.037875 0.871025
C40   C     C_R   0.438818 0.180044 0.959221 0.875372
C41   C     C_R   0.035123 0.562591 0.820264 0.866031
C42   C     C_R   0.958797 0.439115 0.179629 0.891764
C43   C     C_R   0.819991 0.040441 0.560938 0.863739
C44   C     C_R   0.925851 0.464005 0.331292 -0.007399
C45   C     C_R   0.179781 0.959079 0.439474 0.886120
C46   C     C_R   0.404107 0.973998 0.411786 0.065561
C47   C     C_R   0.597768 0.020395 0.589224 0.066759
C48   C     C_R   0.932139 0.419708 0.421035 0.071652
C49   C     C_R   0.002193 0.594330 0.600426 0.060435
C50   C     C_R   0.417375 0.418141 0.945815 0.065818
C51   C     C_R   0.584765 0.585168 0.041642 0.058595
C52   C     C_R   0.280433 0.932582 0.413082 -0.176474
C53   C     C_R   0.719313 0.065563 0.587579 -0.147145
C54   C     C_R   0.928308 0.411767 0.280115 -0.172444
C55   C     C_R   0.031246 0.543295 0.679458 0.005540
C56   C     C_R   0.051711 0.589234 0.721322 -0.157748
C57   C     C_R   0.413032 0.281341 0.929174 -0.169192
C58   C     C_R   0.588030 0.719098 0.065071 -0.141907
C59   C     C_R   0.604721 0.031912 0.725997 -0.144466
C60   C     C_R   0.395070 0.965739 0.274377 -0.128402
C61   C     C_R   0.719265 0.587667 0.064724 -0.166018
C62   C     C_R   0.280668 0.412673 0.930293 -0.149353
C63   C     C_R   0.027690 0.726752 0.602924 -0.122884
C64   C     C_R   0.928289 0.279898 0.410914 -0.171075
C65   C     C_R   0.509301 0.944057 0.734182 -0.144065
C66   C     C_R   0.462850 0.329156 0.935892 -0.010673
C67   C     C_R   0.491002 0.052188 0.267267 -0.139800
C68   C     C_R   0.946870 0.740331 0.496675 -0.144811
C69   C     C_R   0.927304 0.290278 0.555939 -0.146830
C70   C     C_R   0.714705 0.448868 0.044418 -0.147067
C71   C     C_R   0.287631 0.555031 0.940666 -0.138013
C72   C     C_R   0.304287 0.912986 0.557737 -0.150586
C73   C     C_R   0.695397 0.084700 0.443101 -0.135908
C74   C     C_R   0.557221 0.292213 0.930527 -0.136812
C75   C     C_R   0.444863 0.710882 0.056485 -0.132465
C76   C     C_R   0.912383 0.559853 0.298059 -0.166323
C77   C     C_R   0.538869 0.673162 0.053807 -0.014743
C78   C     C_R   0.037474 0.449073 0.714284 -0.138860
C79   C     C_R   0.326999 0.921524 0.327331 0.010158
C80   C     C_R   0.670920 0.078118 0.672756 0.010679
C81   C     C_R   0.913520 0.325941 0.324854 0.034414
C82   C     C_R   0.071146 0.670626 0.670913 0.002166
C83   C     C_R   0.330310 0.330252 0.907877 0.015187
C84   C     C_R   0.669279 0.668597 0.089242 0.001757
C85   C     C_R   0.644818 0.077579 0.397742 0.026302
C86   C     C_R   0.355710 0.918392 0.603310 0.010003
C87   C     C_R   0.007332 0.408678 0.677823 -0.000197
C88   C     C_R   0.571261 0.996985 0.684663 -0.023736
C89   C     C_R   0.917981 0.607567 0.347219 0.010180
C90   C     C_R   0.402601 0.671479 0.031398 0.025740
C91   C     C_R   0.599981 0.332640 0.953694 0.026090
C92   C     C_R   0.541579 0.062271 0.309787 0.001544
C93   C     C_R   0.459466 0.932821 0.691484 0.004853
C94   C     C_R   0.324450 0.594252 0.971574 0.002632
C95   C     C_R   0.678834 0.410812 0.011447 0.001236
C96   C     C_R   0.952146 0.328958 0.598430 0.005551
C97   C     C_R   0.935893 0.697787 0.446620 -0.002536
C98   C     C_R   0.662006 0.114020 0.302443 0.328990
C99   C     C_R   0.429763 0.998639 0.316362 -0.030832
C100  C     C_R   0.336380 0.884115 0.698913 0.312713
C101  C     C_R   0.999616 0.319233 0.722732 0.325951
C102  C     C_R   0.901512 0.703486 0.315124 0.319854
C103  C     C_R   0.311671 0.715801 0.025564 0.358362
C104  C     C_R   0.691605 0.289915 0.956695 0.346814
C105  C     C_R   0.612075 0.103983 0.257873 0.314573
C106  C     C_R   0.387101 0.893395 0.743338 0.318438
C107  C     C_R   0.272388 0.676788 0.995277 0.292746
C108  C     C_R   0.729568 0.326580 0.990576 0.310054
C109  C     C_R   0.971894 0.278884 0.682570 0.317458
C110  C     C_R   0.674138 0.540220 0.050049 0.005277
C111  C     C_R   0.911069 0.748853 0.364897 0.324835
C112  C     C_R   0.522901 0.027776 0.405016 -0.052114
C113  C     C_R   0.479586 0.965528 0.596098 -0.051381
C114  C     C_R   0.959520 0.417858 0.554622 -0.052099
C115  C     C_R   0.952023 0.602750 0.477955 -0.050876
C116  C     C_R   0.412518 0.547856 0.982892 -0.048220
C117  C     C_R   0.590906 0.457417 0.000165 -0.048446
C118  C     C_R   0.573641 0.036385 0.449017 -0.058838
C119  C     C_R   0.428735 0.957105 0.552056 -0.055571
C120  C     C_R   0.452622 0.587755 0.010364 -0.055538
H1    H     H_    0.498953 0.910759 0.806226 0.227691
H2    H     H_    0.401858 0.769275 0.081820 0.227866
H3    H     H_    0.892645 0.599056 0.236152 0.212308
H4    H     H_    0.069056 0.404489 0.767880 0.225210
H5    H     H_    0.313312 0.672907 0.358070 0.258561
H6    H     H_    0.308862 0.725754 0.241461 0.282719
H7    H     H_    0.413730 0.643297 0.266192 0.253265
H8    H     H_    0.430094 0.796329 0.210223 0.217652
H9    H     H_    0.423585 0.749797 0.329714 0.226882
H10   H     H_    0.247225 0.834109 0.354174 0.205167
H11   H     H_    0.274956 0.900387 0.239026 0.230530
H12   H     H_    0.499324 0.087877 0.195832 0.228147
H13   H     H_    0.711775 0.362822 0.606429 0.253134
H14   H     H_    0.626937 0.325693 0.710042 0.257464
H15   H     H_    0.747789 0.273011 0.701907 0.284283
H16   H     H_    0.766706 0.216115 0.574184 0.204647
H17   H     H_    0.644131 0.261611 0.593229 0.229150
H18   H     H_    0.626626 0.166215 0.758261 0.205460
H19   H     H_    0.747804 0.107660 0.729793 0.237717
H20   H     H_    0.923773 0.182588 0.128165 0.245346
H21   H     H_    0.820121 0.268135 0.166526 0.274478
H22   H     H_    0.922936 0.298768 0.093174 0.288538
H23   H     H_    0.918920 0.813694 0.479750 0.234245
H24   H     H_    0.996424 0.216645 0.215455 0.238318
H25   H     H_    0.911092 0.156642 0.278047 0.239024
H26   H     H_    0.809888 0.266098 0.349664 0.160297
H27   H     H_    0.820586 0.356936 0.249131 0.185603
H28   H     H_    0.302715 0.720409 0.661628 0.294923
H29   H     H_    0.339066 0.604462 0.656972 0.253530
H30   H     H_    0.369476 0.693722 0.554812 0.253200
H31   H     H_    0.240266 0.646923 0.563426 0.228015
H32   H     H_    0.211121 0.766785 0.550243 0.206024
H33   H     H_    0.117563 0.751706 0.708211 0.237393
H34   H     H_    0.904785 0.230578 0.597676 0.223815
H35   H     H_    0.172419 0.632271 0.740098 0.193327
H36   H     H_    0.340035 0.286315 0.678062 0.261876
H37   H     H_    0.220621 0.297345 0.741380 0.278927
H38   H     H_    0.252391 0.391194 0.645917 0.251765
H39   H     H_    0.216749 0.427645 0.785688 0.210200
H40   H     H_    0.338352 0.404423 0.730400 0.226529
H41   H     H_    0.356261 0.239048 0.832203 0.210245
H42   H     H_    0.239666 0.273239 0.898009 0.232095
H43   H     H_    0.716600 0.682474 0.308684 0.265960
H44   H     H_    0.690977 0.802357 0.242831 0.281224
H45   H     H_    0.772550 0.403973 0.069147 0.209139
H46   H     H_    0.605453 0.762103 0.343349 0.242061
H47   H     H_    0.571812 0.786530 0.204781 0.223134
H48   H     H_    0.595849 0.666961 0.268756 0.222770
H49   H     H_    0.758450 0.641510 0.167963 0.192429
H50   H     H_    0.731055 0.756487 0.096649 0.240002
H51   H     H_    0.296776 0.879744 0.861570 0.352344
H52   H     H_    0.698856 0.127420 0.137124 0.352903
H53   H     H_    0.921552 0.859872 0.265384 0.345602
H54   H     H_    0.014423 0.153658 0.755709 0.346765
H55   H     H_    0.829476 0.215933 0.016133 0.338254
H56   H     H_    0.228780 0.599131 0.916094 0.218415
H57   H     H_    0.144829 0.740141 0.045390 0.346770
H58   H     H_    0.283862 0.794600 0.802922 0.358293
H59   H     H_    0.705235 0.210399 0.202104 0.338785
H60   H     H_    0.807562 0.210454 0.901587 0.350841
H61   H     H_    0.214474 0.833113 0.017925 0.343958
H62   H     H_    0.836528 0.814055 0.238824 0.342299
H63   H     H_    0.976078 0.234001 0.844030 0.351725
H64   H     H_    0.248438 0.883313 0.596833 0.213180
H65   H     H_    0.748987 0.117557 0.404035 0.195445
H66   H     H_    0.599068 0.232900 0.906102 0.218227
O1    O     O_R   0.982940 0.138950 0.510160 -0.614046
O2    O     O_R   0.982940 0.510160 0.138950 -0.619569
O3    O     O_R   0.861050 0.017060 0.489840 -0.633041
O4    O     O_R   0.138950 0.982940 0.510160 -0.609459
O5    O     O_R   0.867700 0.025880 0.612340 -0.615727
O6    O     O_R   0.132300 0.974120 0.387660 -0.617958
O7    O     O_R   0.025880 0.612340 0.867700 -0.612031
O8    O     O_R   0.974120 0.387660 0.132300 -0.621131
O9    O     O_R   0.612340 0.867700 0.025880 -0.613989
O10   O     O_R   0.387660 0.132300 0.974120 -0.620011
O11   O     O_R   0.387660 0.974120 0.132300 -0.627819
O12   O     O_R   0.017060 0.861050 0.489840 -0.639705
O13   O     O_R   0.612340 0.025880 0.867700 -0.628946
O14   O     O_R   0.132300 0.387660 0.974120 -0.621023
O15   O     O_R   0.867700 0.612340 0.025880 -0.620849
O16   O     O_R   0.974120 0.132300 0.387660 -0.640242
O17   O     O_R   0.025880 0.867700 0.612340 -0.623363
O18   O     O_3   0.363982 0.869341 0.837103 -0.773602
O19   O     O_3   0.632908 0.131308 0.163918 -0.773828
O20   O     O_3   0.901852 0.841497 0.332832 -0.781997
O21   O     O_3   0.968994 0.189435 0.720753 -0.788043
O22   O     O_3   0.816400 0.282811 0.001724 -0.801938
O23   O     O_R   0.138950 0.510160 0.982940 -0.618608
O24   O     O_3   0.182249 0.714846 0.992888 -0.780133
O25   O     O_3   0.268882 0.840880 0.747062 -0.791116
O26   O     O_3   0.725170 0.162038 0.254788 -0.808414
O27   O     O_3   0.742018 0.212720 0.926843 -0.782002
O28   O     O_3   0.264514 0.797924 0.047108 -0.789347
O29   O     O_3   0.875002 0.751015 0.236287 -0.797127
O30   O     O_3   0.015226 0.275001 0.807151 -0.780140
O31   O     O_R   0.861050 0.489840 0.017060 -0.630850
O32   O     O_R   0.510160 0.982940 0.138950 -0.628021
O33   O     O_R   0.489840 0.017060 0.861050 -0.629072
O34   O     O_R   0.489840 0.861050 0.017060 -0.629521
O35   O     O_R   0.510160 0.138950 0.982940 -0.619743
O36   O     O_R   0.017060 0.489840 0.861050 -0.622628
Zn1   Zn    Zn3+2 0.004880 0.004880 0.583590 1.012444
Zn2   Zn    Zn3+2 0.995120 0.995120 0.416410 0.961439
Zn3   Zn    Zn3+2 0.004880 0.583590 0.004880 1.017741
Zn4   Zn    Zn3+2 0.995120 0.416410 0.995120 0.977145
Zn5   Zn    Zn3+2 0.583590 0.004880 0.004880 1.006776
Zn6   Zn    Zn3+2 0.416410 0.995120 0.995120 0.993831

loop_
_geom_bond_atom_site_label_1
_geom_bond_atom_site_label_2
_ccdc_geom_bond_type
C78   C87   A    
C74   C91   A    
C44   C48   A    
C62   C83   A    
O10   Zn6   S    
C60   C79   A    
C111  O20   S    
O5    Zn1   S    
C89   C102  A    
C75   H2    S    
C21   H38   S    
C67   H12   S    
C91   C104  A    
C46   C99   A    
C69   C96   A    
C2    C50   A    
O3    Zn2   S    
C7    C8    S    
C4    C87   A    
C30   C116  A    
C95   C117  A    
O15   Zn3   S    
C14   H25   S    
C98   C105  A    
H52   O19   S    
C37   O32   A    
C12   H27   S    
C4    C114  A    
H60   O27   S    
C10   H16   S    
C104  O27   S    
C18   H28   S    
C68   C97   A    
C11   H13   S    
C97   C111  A    
C1    C46   A    
C42   O8    A    
O36   Zn4   S    
C25   H44   S    
C101  C109  A    
C66   C74   A    
C71   H56   S    
O34   Zn6   S    
C68   H23   S    
C3    C91   A    
C19   H41   S    
C12   H26   S    
H51   O18   S    
C109  O21   S    
C59   C88   A    
C31   C117  A    
C41   O7    A    
C85   C98   A    
C6    H10   S    
C58   C77   A    
C15   H21   S    
C43   C53   S    
C19   C20   S    
C16   C17   S    
C20   H39   S    
C35   O14   A    
C32   C64   S    
C108  O22   S    
C57   C83   A    
H61   O28   S    
C10   H17   S    
C65   H1    S    
O33   Zn6   S    
C97   C115  A    
C18   H29   S    
C78   H4    S    
C9    C10   S    
C57   C66   A    
C4    C29   A    
C75   C90   A    
C23   H48   S    
C67   C99   A    
O31   Zn4   S    
C60   C99   A    
C65   C93   A    
C29   C115  A    
C43   O5    A    
C24   C64   A    
C87   C101  A    
C5    C115  A    
C96   C114  A    
C102  C111  A    
C17   H31   S    
O23   Zn3   S    
H55   O22   S    
C19   C83   S    
C61   C110  A    
C24   C69   A    
C22   C23   S    
C33   C53   A    
C90   C103  A    
C45   O6    A    
C14   H24   S    
C94   C107  A    
C1    C72   A    
C63   C82   A    
C76   C89   A    
C24   C48   A    
O16   Zn2   S    
C39   O34   A    
C53   C80   A    
C26   C119  A    
C72   H64   S    
C70   C110  A    
O2    Zn3   S    
C10   C11   S    
C70   H45   S    
C22   H49   S    
C71   C94   A    
C55   C78   A    
C94   C116  A    
C92   C112  A    
O14   Zn4   S    
C45   C52   S    
C30   C50   A    
C49   C55   A    
C39   C58   S    
C98   O26   S    
H59   O26   S    
C116  C120  A    
C9    C80   S    
C90   C120  A    
H57   O24   S    
C36   O31   A    
C3    C30   A    
O12   Zn2   S    
C51   C77   A    
C41   C56   S    
C39   O9    A    
C11   H15   S    
C93   C106  A    
C22   H50   S    
C15   H22   S    
C75   C77   A    
C9    H18   S    
C34   O12   A    
C8    H7    S    
C73   H65   S    
C13   C63   A    
C34   O17   A    
C92   C105  A    
C73   C85   A    
C16   H35   S    
C16   C82   S    
C17   C18   S    
C5    C28   A    
O17   Zn1   S    
C113  C119  A    
C29   C49   A    
C56   C82   A    
C58   C84   A    
C50   C66   A    
C103  O28   S    
O6    Zn2   S    
C86   C119  A    
C28   C114  A    
C3    C117  A    
C23   H47   S    
C27   C113  A    
C8    H6    S    
C12   C14   S    
C51   C110  A    
C37   O11   A    
C42   O2    A    
H62   O29   S    
C7    H8    S    
H53   O20   S    
C13   C49   A    
C11   H14   S    
C17   H32   S    
C36   O15   A    
C2    C71   A    
C52   C79   A    
C26   C112  A    
O32   Zn5   S    
C104  C108  A    
C86   C100  A    
C65   C88   A    
C15   H20   S    
C40   O10   A    
C27   C118  A    
C33   C73   A    
H63   O30   S    
C28   C48   A    
C40   C57   S    
C32   O1    A    
C38   O13   A    
C76   H3    S    
C21   H37   S    
C38   O33   A    
C41   O36   A    
C31   C51   A    
C6    H11   S    
C61   C84   A    
C59   C80   A    
C72   C86   A    
C105  O19   S    
C6    C7    S    
C25   H46   S    
C96   C109  A    
O35   Zn5   S    
C100  O25   S    
C100  C106  A    
C27   C47   A    
O9    Zn5   S    
C40   O35   A    
C47   C88   A    
O8    Zn4   S    
C31   C120  A    
C70   C95   A    
C35   O23   A    
O7    Zn3   S    
O4    Zn1   S    
C42   C54   S    
C112  C118  A    
C9    H19   S    
O13   Zn5   S    
C6    C79   S    
H54   O21   S    
O1    Zn1   S    
C45   O4    A    
C25   H43   S    
C33   C47   A    
C34   C63   S    
C21   H36   S    
H58   O25   S    
C93   C113  A    
C35   C62   S    
C12   C81   S    
C23   C25   S    
C32   O16   A    
C85   C118  A    
C1    C52   A    
C64   C81   A    
C7    H9    S    
C37   C60   S    
C95   C108  A    
C26   C46   A    
C55   C56   A    
C106  O18   S    
C38   C59   S    
O11   Zn6   S    
C44   C54   A    
C8    H5    S    
C20   C21   S    
C43   O3    A    
C107  O24   S    
C102  O29   S    
C20   H40   S    
C16   H33   S    
C14   C15   S    
C69   H34   S    
C103  C107  A    
C101  O30   S    
C44   C76   A    
C67   C92   A    
C18   H30   S    
C2    C62   A    
C19   H42   S    
C54   C81   A    
C5    C89   A    
C36   C61   S    
C22   C84   S    
C74   H66   S    
C13   C68   A    
