data_mof_unit_19352.cif
_audit_creation_date              2012-12-11T15:33:47-0500
_audit_creation_method            fapswitch 2.2
_symmetry_space_group_name_H-M    P1
_symmetry_Int_Tables_number       1
_space_group_crystal_system       triclinic
_cell_length_a                    27.070271
_cell_length_b                    7.19001
_cell_length_c                    22.744391
_cell_angle_alpha                 89.260453
_cell_angle_beta                  101.444631
_cell_angle_gamma                 89.226719
_cell_volume                      4337.90279688

loop_
_atom_site_label
_atom_site_type_symbol
_atom_type_description
_atom_site_fract_x
_atom_site_fract_y
_atom_site_fract_z
_atom_type_partial_charge
O1    O     O_R   0.207310 0.594030 0.676830 -0.542650
O2    O     O_R   0.792690 0.405970 0.323170 -0.552666
O3    O     O_R   0.292690 0.094030 0.823170 -0.519993
O4    O     O_R   0.707310 0.905970 0.176830 -0.536280
O5    O     O_R   0.197320 0.262370 0.795700 -0.513179
O6    O     O_R   0.802680 0.737630 0.204300 -0.526990
O7    O     O_R   0.302680 0.762370 0.704300 -0.530316
O8    O     O_R   0.697320 0.237630 0.295700 -0.529589
C1    C     C_R   0.184656 0.432859 0.812236 0.743849
C2    C     C_R   0.814887 0.567406 0.187618 0.763614
C3    C     C_R   0.315300 0.932389 0.687978 0.762662
C4    C     C_R   0.684825 0.067668 0.312142 0.778116
O9    O     O_R   0.201410 0.264250 0.675590 -0.536898
O10   O     O_R   0.798590 0.735750 0.324410 -0.516173
O11   O     O_R   0.298590 0.764250 0.824410 -0.538137
O12   O     O_R   0.701410 0.235750 0.175590 -0.533809
O13   O     O_R   0.296810 0.094940 0.702210 -0.527186
O14   O     O_R   0.703190 0.905060 0.297790 -0.522059
O15   O     O_R   0.203190 0.594940 0.797790 -0.503780
O16   O     O_R   0.796810 0.405060 0.202210 -0.527142
C5    C     C_R   0.189508 0.434330 0.653456 0.762567
C6    C     C_R   0.810072 0.565142 0.346929 0.773810
C7    C     C_R   0.310314 0.930026 0.847132 0.769104
C8    C     C_R   0.689447 0.069323 0.153377 0.781881
O17   O     O_3   0.281300 0.427390 0.758870 -0.377980
O18   O     O_3   0.718700 0.572610 0.241130 -0.376074
O19   O     O_3   0.218700 0.927390 0.741130 -0.366606
O20   O     O_3   0.781300 0.072610 0.258870 -0.382495
V1    V     V_3+5 0.244190 0.152150 0.748350 1.538126
V2    V     V_3+5 0.755810 0.847850 0.251650 1.511710
V3    V     V_3+5 0.255810 0.652150 0.751650 1.518633
V4    V     V_3+5 0.744190 0.347850 0.248350 1.480873
C9    C     C_R   0.654281 0.069204 0.094553 -0.161716
C10   C     C_R   0.345819 0.919212 0.906223 -0.166960
C11   C     C_R   0.843924 0.545141 0.406487 -0.142863
C12   C     C_R   0.154449 0.444330 0.594617 -0.148971
C13   C     C_R   0.638918 0.154042 0.988647 0.527507
C14   C     C_R   0.371421 0.737812 0.998512 0.536732
C15   C     C_R   0.855127 0.431504 0.509440 0.530586
C16   C     C_R   0.142262 0.420902 0.486284 0.531824
C17   C     C_R   0.671331 0.135135 0.044527 -0.378738
C18   C     C_R   0.336176 0.784763 0.946988 -0.354746
C19   C     C_R   0.824416 0.468457 0.453380 -0.341949
C20   C     C_R   0.173229 0.407274 0.543276 -0.369724
C21   C     C_R   0.603154 0.025065 0.089353 0.398064
C22   C     C_R   0.391961 0.013384 0.918616 0.408387
C23   C     C_R   0.895759 0.581252 0.415269 0.392280
C24   C     C_R   0.102875 0.486606 0.589523 0.390024
C25   C     C_R   0.570344 0.021893 0.031221 -0.123533
C26   C     C_R   0.432925 0.940000 0.964114 -0.119081
C27   C     C_R   0.929430 0.505072 0.467242 -0.121735
C28   C     C_R   0.068713 0.463346 0.533092 -0.117728
C29   C     C_R   0.587560 0.102322 0.981620 -0.121935
C30   C     C_R   0.421247 0.805486 0.005944 -0.110507
C31   C     C_R   0.908373 0.442384 0.516502 -0.113548
C32   C     C_R   0.089279 0.445462 0.480458 -0.112268
C33   C     C_R   0.521052 0.942865 0.021266 -0.113379
C34   C     C_R   0.484914 0.990542 0.968479 -0.111319
C35   C     C_R   0.982784 0.483097 0.470905 -0.116476
C36   C     C_R   0.015125 0.453007 0.527675 -0.123715
C37   C     C_R   0.503632 0.062416 0.918814 0.352928
C38   C     C_R   0.509457 0.796382 0.058212 0.365196
C39   C     C_R   0.993430 0.382944 0.575166 0.367119
C40   C     C_R   0.003859 0.459464 0.419011 0.355539
C41   C     C_R   0.553826 0.124278 0.925777 0.297668
C42   C     C_R   0.459626 0.734526 0.052677 0.297626
C43   C     C_R   0.940622 0.384262 0.570631 0.302816
C44   C     C_R   0.056660 0.446338 0.423498 0.301771
H1    H     H_    0.300686 0.712344 0.938465 0.153624
H2    H     H_    0.710035 0.178681 0.049188 0.187495
H3    H     H_    0.212764 0.372627 0.547101 0.179635
H4    H     H_    0.784601 0.439109 0.446878 0.146990
C45   C     C_R   0.649845 0.914809 0.395501 0.383867
C46   C     C_R   0.350296 0.085566 0.604907 0.383319
C47   C     C_R   0.849105 0.415695 0.104112 0.388450
C48   C     C_R   0.138495 0.612539 0.881525 0.430598
C49   C     C_R   0.614326 0.907274 0.432998 -0.211434
C50   C     C_R   0.386115 0.095984 0.567984 -0.223763
C51   C     C_R   0.884591 0.405830 0.066584 -0.210714
C52   C     C_R   0.100556 0.624301 0.915811 -0.228168
H5    H     H_    0.618948 0.801176 0.467957 0.161804
H6    H     H_    0.380942 0.200417 0.532479 0.164043
H7    H     H_    0.879966 0.302520 0.031785 0.160581
H8    H     H_    0.093925 0.755314 0.936039 0.162053
C53   C     C_R   0.573752 0.034473 0.426139 -0.094881
C54   C     C_R   0.427748 0.974016 0.576076 -0.090954
C55   C     C_R   0.924755 0.529764 0.072555 -0.095701
C56   C     C_R   0.071006 0.471217 0.923736 -0.104111
C57   C     C_R   0.569670 0.173019 0.381141 -0.232201
C58   C     C_R   0.432553 0.836381 0.621450 -0.249293
C59   C     C_R   0.928518 0.667494 0.116366 -0.225351
C60   C     C_R   0.078604 0.305252 0.894829 -0.225916
H9    H     H_    0.539142 0.274486 0.375631 0.161693
H10   H     H_    0.465324 0.745571 0.627678 0.155318
H11   H     H_    0.958726 0.766720 0.121133 0.164379
H12   H     H_    0.056613 0.184079 0.900657 0.167407
C61   C     C_R   0.604849 0.182919 0.342825 0.380758
C62   C     C_R   0.395935 0.817419 0.658360 0.391417
C63   C     C_R   0.893853 0.678440 0.155045 0.368003
C64   C     C_R   0.114347 0.292273 0.857692 0.396742
C65   C     C_R   0.646302 0.056782 0.351035 -0.217371
C66   C     C_R   0.354277 0.943781 0.649572 -0.213327
C67   C     C_R   0.852853 0.555371 0.148139 -0.221392
C68   C     C_R   0.145409 0.445608 0.850830 -0.246612
N1    N     N_R   0.496089 0.141852 0.459414 -0.288266
N2    N     N_R   0.505859 0.869767 0.543363 -0.288816
N3    N     N_R   0.996729 0.651014 0.032038 -0.285845
N4    N     N_R   0.998464 0.349776 0.963514 -0.283649
N5    N     N_R   0.462038 0.127243 0.494328 -0.291968
N6    N     N_R   0.539886 0.884345 0.508470 -0.290380
N7    N     N_R   0.030835 0.637038 0.997267 -0.291648
N8    N     N_R   0.964212 0.364072 0.998152 -0.286869
C69   C     C_R   0.466063 0.990723 0.537109 0.567396
C70   C     C_R   0.535845 0.020636 0.465655 0.569608
C71   C     C_R   0.032552 0.486124 0.962251 0.569170
C72   C     C_R   0.962577 0.514983 0.033233 0.566290
O21   O     O_3   0.570759 0.203935 0.877819 -0.612577
H13   H     H_    0.542055 0.233287 0.844517 0.321616
O22   O     O_3   0.448213 0.598768 0.091414 -0.611963
H14   H     H_    0.476586 0.580023 0.125953 0.317155
O23   O     O_3   0.919898 0.323155 0.618260 -0.607475
H15   H     H_    0.946371 0.309529 0.655014 0.323808
O24   O     O_3   0.076958 0.430472 0.372464 -0.609524
H16   H     H_    0.050870 0.457357 0.336121 0.319774
O25   O     O_3   0.394507 0.179451 0.888422 -0.611379
H17   H     H_    0.419595 0.258085 0.914063 0.306795
O26   O     O_3   0.585593 0.006347 0.142093 -0.632716
H18   H     H_    0.549658 0.045997 0.134245 0.287131
O27   O     O_3   0.087823 0.558901 0.639252 -0.636916
H19   H     H_    0.056820 0.635121 0.625427 0.287596
O28   O     O_3   0.911643 0.696956 0.374111 -0.638049
H20   H     H_    0.943525 0.754925 0.393968 0.283794
O29   O     O_3   0.657561 0.231524 0.941652 -0.518626
C73   C     C_3   0.686526 0.095303 0.919036 -0.118658
H21   H     H_    0.698178 0.153335 0.878553 0.162244
H22   H     H_    0.664221 0.968486 0.905248 0.133736
H23   H     H_    0.721425 0.058112 0.952171 0.112206
O30   O     O_3   0.358406 0.605388 0.037127 -0.517149
C74   C     C_3   0.328902 0.692507 0.073763 -0.161103
H24   H     H_    0.349572 0.807986 0.099533 0.136243
H25   H     H_    0.320511 0.588407 0.106690 0.162471
H26   H     H_    0.292263 0.744376 0.046996 0.095974
O31   O     O_3   0.833032 0.361489 0.554772 -0.517943
C75   C     C_3   0.808155 0.508493 0.578123 -0.129409
H27   H     H_    0.834411 0.623463 0.594073 0.136772
H28   H     H_    0.793727 0.454832 0.617338 0.163413
H29   H     H_    0.775221 0.562184 0.544636 0.123406
O32   O     O_3   0.163596 0.389431 0.436768 -0.515450
C76   C     C_3   0.190898 0.547855 0.426017 -0.124688
H30   H     H_    0.166704 0.675980 0.420595 0.132818
H31   H     H_    0.204367 0.528404 0.383486 0.164335
H32   H     H_    0.224650 0.565840 0.462229 0.108760
O33   O     O_3   0.474930 0.054852 0.861353 -0.548467
C77   C     C_3   0.482041 0.878578 0.837593 -0.207033
H33   H     H_    0.467520 0.765960 0.863259 0.143810
H34   H     H_    0.522356 0.851323 0.836108 0.136277
H35   H     H_    0.460388 0.876398 0.790880 0.194471
O34   O     O_3   0.547721 0.700013 0.096601 -0.540646
C78   C     C_3   0.565316 0.554396 0.064698 -0.209216
H36   H     H_    0.581439 0.609005 0.026656 0.145091
H37   H     H_    0.534971 0.453786 0.048194 0.130949
H38   H     H_    0.595857 0.477217 0.095539 0.170754
O35   O     O_3   0.023347 0.290639 0.623539 -0.546551
C79   C     C_3   0.028780 0.102864 0.608121 -0.247455
H39   H     H_    0.047129 0.090028 0.568648 0.141631
H40   H     H_    0.991820 0.031837 0.599454 0.144985
H41   H     H_    0.053445 0.029368 0.646299 0.152304
O36   O     O_3   0.972951 0.428315 0.363896 -0.556075
C80   C     C_3   0.962570 0.236682 0.359118 -0.242479
H42   H     H_    0.942497 0.188011 0.394552 0.144528
H43   H     H_    0.997627 0.152445 0.360749 0.142091
H44   H     H_    0.937453 0.213056 0.315109 0.166276
O37   O     O_3   0.690331 0.790902 0.405275 -0.560720
C81   C     C_3   0.672950 0.613341 0.386023 -0.137807
H45   H     H_    0.705924 0.521068 0.385487 0.134204
H46   H     H_    0.650221 0.618523 0.339482 0.179195
H47   H     H_    0.650975 0.549983 0.417329 0.123945
O38   O     O_3   0.308522 0.203661 0.593492 -0.559366
C82   C     C_3   0.323531 0.384612 0.611844 -0.168486
H48   H     H_    0.342131 0.385533 0.660043 0.173048
H49   H     H_    0.289601 0.475916 0.606761 0.130889
H50   H     H_    0.348484 0.445753 0.583582 0.120683
O39   O     O_3   0.807830 0.300326 0.093808 -0.564191
C83   C     C_3   0.823831 0.117052 0.111733 -0.152061
H51   H     H_    0.790124 0.029176 0.108925 0.131452
H52   H     H_    0.844636 0.111313 0.159137 0.181008
H53   H     H_    0.847210 0.056037 0.081592 0.128534
O40   O     O_3   0.166417 0.768518 0.874134 -0.513537
C84   C     C_3   0.193074 0.829363 0.930145 -0.155943
H54   H     H_    0.223162 0.923865 0.922055 0.141342
H55   H     H_    0.211548 0.711871 0.959132 0.088600
H56   H     H_    0.168071 0.911204 0.953699 0.137731
O41   O     O_3   0.600159 0.319754 0.298501 -0.556294
C85   C     C_3   0.555327 0.294859 0.255774 -0.211991
H57   H     H_    0.549759 0.146707 0.242586 0.146987
H58   H     H_    0.557770 0.376191 0.214678 0.178587
H59   H     H_    0.522189 0.349004 0.272610 0.138262
O42   O     O_3   0.399629 0.687074 0.705381 -0.557105
C86   C     C_3   0.437676 0.549814 0.707280 -0.288006
H60   H     H_    0.433727 0.444322 0.742009 0.188545
H61   H     H_    0.475678 0.610728 0.720864 0.144449
H62   H     H_    0.433667 0.476019 0.663940 0.139923
O43   O     O_3   0.898857 0.814339 0.198257 -0.562139
C87   C     C_3   0.941329 0.771701 0.243514 -0.194518
H63   H     H_    0.976975 0.789105 0.226950 0.126854
H64   H     H_    0.939398 0.628598 0.262123 0.189469
H65   H     H_    0.942055 0.870544 0.280654 0.170932
O44   O     O_3   0.120415 0.124643 0.830801 -0.523304
C88   C     C_3   0.082978 0.112278 0.778306 -0.122644
H66   H     H_    0.085858 0.227760 0.746103 0.150567
H67   H     H_    0.044546 0.110132 0.788789 0.119230
H68   H     H_    0.088812 0.979559 0.756110 0.159887

loop_
_geom_bond_atom_site_label_1
_geom_bond_atom_site_label_2
_ccdc_geom_bond_type
C48   C68   A    
C85   H58   S    
O43   C87   S    
O1    C5    A    
C19   H4    S    
C55   C59   A    
O19   V1    S    
C9    C21   A    
C80   H42   S    
C22   O25   S    
O3    C7    A    
O35   C79   S    
C10   C18   A    
C60   H12   S    
C52   H8    S    
C11   C23   A    
C73   H23   S    
C51   C55   A    
O38   C82   S    
C64   O44   S    
C25   C33   A    
O24   H16   S    
C5    C12   S    
O37   C81   S    
O7    C3    A    
C6    C11   S    
C35   C40   A    
C26   C30   A    
C36   C39   A    
C40   C44   A    
N4    C71   A    
O9    V1    S    
C53   C70   S    
C14   C18   A    
C76   H31   S    
O16   V4    S    
O4    C8    A    
C74   H26   S    
C85   H59   S    
O31   C75   S    
O1    V3    S    
C88   H68   S    
O13   V1    S    
C83   H51   S    
C20   H3    S    
O3    V1    S    
C61   O41   S    
C84   H55   S    
C57   C61   A    
C81   H45   S    
C28   C36   A    
C1    O15   A    
C64   C68   A    
C15   C31   A    
C56   C60   A    
C2    O16   A    
O44   C88   S    
C16   C32   A    
C46   O38   S    
O2    C6    A    
C86   H62   S    
C78   H37   S    
O42   C86   S    
C10   C22   A    
C49   H5    S    
C11   C19   A    
O15   V3    S    
N6    C70   A    
C16   C20   A    
C77   H34   S    
C48   O40   S    
N5    C69   A    
C46   C66   A    
C82   H50   S    
C13   C29   A    
C50   C54   A    
C34   C37   A    
O11   C7    A    
C85   H57   S    
C47   O39   S    
C86   H60   S    
O12   C8    A    
C47   C67   A    
C79   H40   S    
C80   H43   S    
O10   V2    S    
C75   H29   S    
C43   O23   S    
C44   O24   S    
C58   H10   S    
O5    V1    S    
C74   H24   S    
C39   C43   A    
O7    V3    S    
C62   O42   S    
N2    C69   A    
O8    V4    S    
N1    C70   A    
C33   C38   A    
O32   C76   S    
C77   H35   S    
C75   H28   S    
C63   C67   A    
C54   C58   A    
C76   H32   S    
C38   C42   A    
O18   V4    S    
C15   C19   A    
C32   C44   A    
C59   H11   S    
C57   H9    S    
O4    V2    S    
N4    N8    A    
C23   O28   S    
O40   C84   S    
C26   C34   A    
C84   H56   S    
C39   O35   S    
O39   C83   S    
C35   C36   A    
O5    C1    A    
C23   C27   A    
O29   C73   S    
C55   C72   S    
C45   O37   S    
C50   H6    S    
C31   C43   A    
C78   H36   S    
C14   C30   A    
C87   H65   S    
C21   C25   A    
O8    C4    A    
C7    C10   S    
C38   O34   S    
C88   H66   S    
C14   O30   S    
C78   H38   S    
O9    C5    A    
O2    V4    S    
C81   H47   S    
C2    C67   S    
C77   H33   S    
O14   V2    S    
O36   C80   S    
O6    V2    S    
C87   H64   S    
C42   O22   S    
C54   C69   S    
O34   C78   S    
C80   H44   S    
C13   O29   S    
C24   O27   S    
C12   C20   A    
C27   C35   A    
O26   H18   S    
N8    C72   A    
C29   C41   A    
C60   C64   A    
O27   H19   S    
N2    N6    A    
N1    N5    A    
C79   H39   S    
C16   O32   S    
C53   C57   A    
C63   O43   S    
N3    N7    A    
O17   V3    S    
C3    O13   A    
C79   H41   S    
C48   C52   A    
C15   O31   S    
C75   H27   S    
O28   H20   S    
C37   O33   S    
O6    C2    A    
C73   H22   S    
O22   H14   S    
O23   H15   S    
O11   V3    S    
C73   H21   S    
C30   C42   A    
O12   V4    S    
C22   C26   A    
C8    C9    S    
C83   H53   S    
C9    C17   A    
O10   C6    A    
C56   C71   S    
O20   V2    S    
C4    C65   S    
C52   C56   A    
C62   C66   A    
O21   H13   S    
C51   H7    S    
C74   H25   S    
C33   C34   A    
O25   H17   S    
C21   O26   S    
C1    C68   S    
C25   C29   A    
C45   C65   A    
C88   H67   S    
C83   H52   S    
C12   C24   A    
C3    C66   S    
C27   C31   A    
C18   H1    S    
C13   C17   A    
C84   H54   S    
C81   H46   S    
N3    C72   A    
O30   C74   S    
C49   C53   A    
C82   H48   S    
C37   C41   A    
C24   C28   A    
C87   H63   S    
C45   C49   A    
C40   O36   S    
O41   C85   S    
C46   C50   A    
C4    O14   A    
C86   H61   S    
C41   O21   S    
N7    C71   A    
C59   C63   A    
O33   C77   S    
C76   H30   S    
C47   C51   A    
C58   C62   A    
C61   C65   A    
C28   C32   A    
C17   H2    S    
C82   H49   S    
