data_mof_unit_49908.cif
_audit_creation_date              2012-12-11T16:04:59-0500
_audit_creation_method            fapswitch 2.2
_symmetry_space_group_name_H-M    P1
_symmetry_Int_Tables_number       1
_space_group_crystal_system       triclinic
_cell_length_a                    10.66295
_cell_length_b                    10.614737
_cell_length_c                    16.841156
_cell_angle_alpha                 98.650607
_cell_angle_beta                  98.627764
_cell_angle_gamma                 61.681288
_cell_volume                      1652.15232685

loop_
_atom_site_label
_atom_site_type_symbol
_atom_type_description
_atom_site_fract_x
_atom_site_fract_y
_atom_site_fract_z
_atom_type_partial_charge
C1    C     C_R   0.354367 0.776770 0.399609 0.564597
C2    C     C_3   0.696328 0.308552 0.238052 -0.168119
C3    C     C_3   0.746049 0.387606 0.309892 0.003330
C4    C     C_3   0.900498 0.301180 0.289976 0.258041
C5    C     C_3   0.879475 0.416756 0.237944 -0.077843
C6    C     C_3   0.722635 0.505120 0.258079 -0.173561
C7    C     C_3   0.673231 0.426405 0.184414 -0.187306
C8    C     C_3   0.829683 0.337665 0.165482 0.056354
C9    C     C_3   0.435469 0.803310 0.214212 -0.133246
C10   C     C_3   0.358881 0.731490 0.246166 -0.169510
C11   C     C_3   0.339177 0.831997 0.323932 0.037554
C12   C     C_R   0.404324 0.373341 0.356921 0.537374
C13   C     C_3   0.417722 0.901800 0.293657 0.085527
C14   C     C_3   0.271922 0.016001 0.258200 -0.072802
C15   C     C_3   0.194902 0.942904 0.289569 -0.066266
C16   C     C_3   0.213776 0.842948 0.211247 -0.079993
C17   C     C_3   0.290248 0.915332 0.180537 0.032696
C18   C     C_3   0.481542 0.297166 0.798624 0.229973
C19   C     C_3   0.424211 0.441249 0.762849 -0.179400
C20   C     C_3   0.389653 0.368657 0.682169 -0.025989
C21   C     C_3   0.451655 0.223939 0.718271 0.135708
C22   C     C_3   0.301648 0.267065 0.740892 0.058969
C23   C     C_R   0.705419 0.416379 0.390922 0.532460
C24   C     C_3   0.239370 0.412230 0.705057 -0.116612
C25   C     C_3   0.272789 0.483479 0.787300 -0.175116
C26   C     C_3   0.334027 0.338005 0.822295 0.063542
C27   C     C_1   0.838265 0.332807 0.706917 -0.012178
C28   C     C_1   0.883662 0.299225 0.774069 -0.016307
C29   C     C_1   0.358635 0.762767 0.714823 -0.007964
C30   C     C_1   0.327481 0.808469 0.782766 -0.007390
C31   C     C_R   0.889290 0.312046 0.089683 0.573308
C32   C     C_R   0.321227 0.302302 0.119356 0.536108
C33   C     C_R   0.257534 0.957939 0.099267 0.566915
C34   C     C_R   0.379564 0.715386 0.631589 0.537398
C35   C     C_R   0.938832 0.277433 0.855641 0.576021
C36   C     C_R   0.310515 0.296762 0.894357 0.582299
C37   C     C_R   0.283033 0.878703 0.860310 0.558792
C38   C     C_R   0.412070 0.379376 0.601053 0.547339
C39   C     C_R   0.776356 0.378579 0.629211 0.553828
C40   C     C_1   0.370081 0.360533 0.272742 -0.058653
C41   C     C_1   0.345726 0.342338 0.201658 -0.055481
C42   C     C_3   0.852966 0.222851 0.218435 0.250595
Cr1   Cr    Cr6+3 0.608340 0.611040 0.520430 1.080790
Cr2   Cr    Cr6+3 0.287650 0.601120 0.489350 1.057899
Cr3   Cr    Cr6+3 0.604040 0.287870 0.490280 1.067049
Cr4   Cr    Cr6+3 0.054020 0.052700 0.970850 1.084307
Cr5   Cr    Cr6+3 0.059230 0.375120 0.993390 1.033796
Cr6   Cr    Cr6+3 0.374950 0.061200 0.992340 1.070267
H1    H     H_    0.631058 0.253684 0.239158 0.136624
H2    H     H_    0.237429 0.132767 0.260091 0.165485
H3    H     H_    0.099381 0.987527 0.323383 0.164713
H4    H     H_    0.131015 0.815897 0.176928 0.177540
H5    H     H_    0.484099 0.504384 0.772211 0.108653
H6    H     H_    0.137947 0.459617 0.665575 0.175334
H7    H     H_    0.198939 0.588966 0.816650 0.152520
H8    H     H_    0.955774 0.460209 0.237416 0.149815
H9    H     H_    0.676533 0.619172 0.281552 0.161278
H10   H     H_    0.581182 0.477077 0.139154 0.135440
H11   H     H_    0.394445 0.614500 0.243611 0.106801
H12   H     H_    0.529956 0.751303 0.178708 0.142315
O1    O     O_R   0.751220 0.499230 0.435170 -0.466682
O2    O     O_R   0.297880 0.469080 0.560050 -0.489098
O3    O     O_R   0.489720 0.254590 0.564810 -0.448156
O4    O     O_R   0.725220 0.304230 0.585080 -0.503887
O5    O     O_3   0.500010 0.500010 0.500020 -0.368246
O6    O     O_R   0.171830 0.913880 0.057510 -0.498051
O7    O     O_R   0.940690 0.186050 0.054730 -0.456125
O8    O     O_R   0.920470 0.405720 0.075010 -0.528396
O9    O     O_R   0.196690 0.370460 0.084120 -0.504852
O10   O     O_R   0.412990 0.180750 0.091610 -0.503641
O11   O     O_R   0.366620 0.943130 0.065760 -0.506066
O12   O     O_R   0.477220 0.727600 0.436870 -0.489267
O13   O     O_R   0.160510 0.906330 0.879210 -0.509372
O14   O     O_R   0.930190 0.179050 0.889450 -0.478502
O15   O     O_R   0.909140 0.398170 0.896710 -0.496887
O16   O     O_R   0.186190 0.363460 0.918830 -0.522493
O17   O     O_R   0.401670 0.173200 0.913310 -0.453908
O18   O     O_R   0.356120 0.936130 0.900470 -0.477255
O19   O     O_3   0.162740 0.163010 0.985530 -0.312136
O20   O     O_R   0.258650 0.745120 0.411470 -0.521022
O21   O     O_R   0.297070 0.467240 0.395960 -0.465722
O22   O     O_R   0.488830 0.252610 0.387790 -0.462017
O23   O     O_R   0.724400 0.302390 0.420980 -0.518285
O24   O     O_R   0.752100 0.501210 0.612190 -0.495699
O25   O     O_R   0.478040 0.729440 0.600970 -0.450751
O26   O     O_R   0.259530 0.747110 0.588490 -0.481598
O27   O     O_3   0.606594 0.238356 0.850367 -0.651841
H13   H     H_    0.685434 0.209677 0.816215 0.341332
I1    I     I_    0.604202 0.009227 0.678484 -0.211116
I2    I     I_    0.206076 0.130213 0.703615 -0.319656
O28   O     O_3   0.917355 0.076132 0.193967 -0.698916
H14   H     H_    0.886034 0.032298 0.229727 0.318051
O29   O     O_3   0.017638 0.245780 0.347474 -0.693104
H15   H     H_    0.987583 0.210751 0.388727 0.344731
I3    I     I_    0.594658 0.923512 0.359617 -0.286987

loop_
_geom_bond_atom_site_label_1
_geom_bond_atom_site_label_2
_ccdc_geom_bond_type
O27   H13   S    
C35   O14   A    
Cr1   O12   S    
C18   C21   S    
C5    H8    S    
C3    C23   S    
C19   C20   S    
C1    C11   S    
Cr5   O19   S    
C3    C6    S    
C7    C8    S    
C21   I1    S    
C31   O7    A    
C39   O4    A    
C35   O15   A    
O29   H15   S    
C23   O23   A    
C13   I3    S    
Cr6   O19   S    
C8    C42   S    
C39   O24   A    
Cr4   O6    S    
C36   O17   A    
C5    C6    S    
Cr3   O22   S    
C24   H6    S    
C15   C16   S    
C18   C19   S    
C34   O26   A    
Cr6   O18   S    
C9    C13   S    
Cr5   O9    S    
C36   O16   A    
C11   C15   S    
C2    C7    S    
C28   C35   S    
C27   C39   S    
C16   C17   S    
C18   C26   S    
C32   C41   S    
C15   H3    S    
C9    C10   S    
C7    H10   S    
C19   H5    S    
C21   C22   S    
Cr1   O24   S    
C6    H9    S    
Cr2   O5    S    
Cr3   O23   S    
C17   C33   S    
Cr2   O26   S    
C33   O6    A    
C31   O8    A    
C1    O12   A    
C14   H2    S    
Cr1   O25   S    
C25   H7    S    
Cr2   O20   S    
C24   C25   S    
Cr2   O21   S    
O28   H14   S    
C32   O10   A    
Cr2   O2    S    
C25   C26   S    
C29   C34   S    
Cr3   O3    S    
C30   C37   S    
C34   O25   A    
Cr6   O17   S    
C12   C40   S    
C29   C30   T    
C2    H1    S    
C20   C38   S    
Cr1   O5    S    
C22   I2    S    
C12   O22   A    
C32   O9    A    
C9    C17   S    
C40   C41   T    
Cr3   O5    S    
C22   C24   S    
Cr6   O11   S    
C3    C4    S    
Cr5   O8    S    
Cr4   O14   S    
Cr1   O1    S    
C38   O3    A    
C26   C36   S    
C37   O13   A    
C8    C31   S    
C16   H4    S    
Cr6   O10   S    
C4    C5    S    
Cr5   O16   S    
C5    C8    S    
C6    C7    S    
C37   O18   A    
Cr3   O4    S    
C18   O27   S    
C9    H12   S    
C2    C3    S    
Cr5   O15   S    
Cr4   O7    S    
C10   C16   S    
C11   C13   S    
Cr4   O19   S    
C4    C42   S    
C2    C42   S    
C12   O21   A    
C10   H11   S    
C19   C25   S    
C10   C11   S    
C33   O11   A    
C4    O29   S    
C23   O1    A    
C20   C21   S    
C22   C26   S    
C27   C28   T    
C1    O20   A    
C14   C15   S    
C13   C14   S    
C20   C24   S    
Cr4   O13   S    
C42   O28   S    
C38   O2    A    
C14   C17   S    
