data_mof_unit_21497.cif
_audit_creation_date              2012-10-26T18:44:09-0400
_audit_creation_method            fapswitch 2.2
_symmetry_space_group_name_H-M    P1
_symmetry_Int_Tables_number       1
_space_group_crystal_system       triclinic
_cell_length_a                    19.391612
_cell_length_b                    9.089965
_cell_length_c                    7.772379
_cell_angle_alpha                 89.999938
_cell_angle_beta                  89.999847
_cell_angle_gamma                 90.000017
_cell_volume                      1370.030052

loop_
_atom_site_label
_atom_site_type_symbol
_atom_type_description
_atom_site_fract_x
_atom_site_fract_y
_atom_site_fract_z
_atom_type_partial_charge
C1    C     C_R   0.500000 0.219973 0.500000 0.530017
C2    C     C_R   0.253862 0.560220 0.359112 0.091412
C3    C     C_R   0.181772 0.443617 0.640891 -0.126144
C4    C     C_R   0.818228 0.443617 0.359109 -0.126144
C5    C     C_R   0.818228 0.556384 0.640890 -0.126144
C6    C     C_R   0.181772 0.556383 0.359109 -0.126144
C7    C     C_R   0.145532 0.500000 0.500000 -0.015323
C8    C     C_R   0.854468 0.500000 0.499999 -0.015323
C9    C     C_R   0.290790 0.500000 0.500000 0.058705
C10   C     C_R   0.709210 0.500000 0.500000 0.058705
C11   C     C_R   0.930181 0.500000 0.499999 0.343941
C12   C     C_R   0.500000 0.780027 0.500000 0.530017
C13   C     C_R   0.069819 0.500000 0.500000 0.343941
C14   C     C_3   0.309028 0.221737 0.751442 -0.275737
C15   C     C_3   0.690971 0.221736 0.248560 -0.275737
C16   C     C_3   0.690971 0.778264 0.751439 -0.275737
C17   C     C_3   0.309030 0.778264 0.248560 -0.275736
C18   C     C_R   0.367005 0.500000 0.500000 0.559453
C19   C     C_R   0.632995 0.500000 0.500000 0.559453
C20   C     C_1   0.500000 0.065366 0.500000 -0.071614
C21   C     C_1   0.500000 0.934634 0.500000 -0.071614
C22   C     C_R   0.253861 0.439781 0.640888 0.091412
C23   C     C_R   0.746138 0.439780 0.359112 0.091412
C24   C     C_R   0.746138 0.560220 0.640887 0.091412
Cu1   Cu    Cu3+1 0.500000 0.500000 0.669080 1.028119
Cu2   Cu    Cu3+1 0.500000 0.500000 0.330920 1.028119
H1    H     H_    0.154022 0.397627 0.749317 0.138738
H2    H     H_    0.737301 0.151070 0.264755 0.128701
H3    H     H_    0.660705 0.180921 0.137067 0.150448
H4    H     H_    0.658180 0.213449 0.365348 0.153573
H5    H     H_    0.736597 0.615402 0.898068 0.247461
H6    H     H_    0.660705 0.819080 0.862932 0.150449
H7    H     H_    0.658181 0.786552 0.634651 0.153572
H8    H     H_    0.737301 0.848931 0.735245 0.128701
H9    H     H_    0.263403 0.615402 0.101931 0.247460
H10   H     H_    0.262699 0.848931 0.264753 0.128700
H11   H     H_    0.339296 0.819079 0.137067 0.150449
H12   H     H_    0.845978 0.397627 0.250683 0.138738
H13   H     H_    0.341819 0.786551 0.365348 0.153572
H14   H     H_    0.845978 0.602374 0.749315 0.138738
H15   H     H_    0.154022 0.602373 0.250684 0.138738
H16   H     H_    0.263402 0.384601 0.898070 0.247461
H17   H     H_    0.262698 0.151071 0.735247 0.128701
H18   H     H_    0.339294 0.180922 0.862936 0.150448
H19   H     H_    0.341819 0.213449 0.634655 0.153573
H20   H     H_    0.736598 0.384599 0.101931 0.247461
N1    N     N_1   0.500000 0.500000 0.076820 -0.068876
N2    N     N_2   0.288607 0.627379 0.218018 -0.488872
N3    N     N_1   0.500000 0.500000 0.923180 -0.068876
N4    N     N_R   0.034286 0.500290 0.349611 -0.223297
N5    N     N_R   0.965714 0.500290 0.650389 -0.223297
N6    N     N_R   0.965714 0.499710 0.349611 -0.223297
N7    N     N_R   0.034286 0.499710 0.650389 -0.223297
N8    N     N_2   0.288607 0.372622 0.781983 -0.488873
N9    N     N_2   0.711393 0.372621 0.218018 -0.488873
N10   N     N_2   0.711393 0.627379 0.781981 -0.488872
O1    O     O_R   0.500000 0.288390 0.642760 -0.502499
O2    O     O_R   0.500000 0.711610 0.357240 -0.502499
O3    O     O_R   0.500000 0.711610 0.642760 -0.502499
O4    O     O_R   0.500000 0.288390 0.357240 -0.502499
O5    O     O_R   0.400140 0.500000 0.642830 -0.475994
O6    O     O_R   0.599860 0.500000 0.357170 -0.475993
O7    O     O_R   0.599860 0.500000 0.642830 -0.475993
O8    O     O_R   0.400140 0.500000 0.357170 -0.475993

loop_
_geom_bond_atom_site_label_1
_geom_bond_atom_site_label_2
_ccdc_geom_bond_type
H20   N9    S    
C2    C9    A    
C5    C8    A    
N4    N6    A    
C16   N10   S    
C18   O5    A    
C23   N9    S    
C6    C7    A    
C17   H10   S    
C1    O1    A    
C10   C23   A    
C24   N10   S    
C13   N7    A    
C17   N2    S    
C10   C19   S    
C4    C8    A    
C12   O2    A    
C3    H1    S    
Cu2   O6    S    
C22   N8    S    
Cu1   O5    S    
H16   N8    S    
Cu2   O2    S    
C18   O8    A    
C15   H2    S    
C2    C6    A    
C5    C24   A    
Cu1   O1    S    
Cu2   N1    S    
C8    C11   S    
H9    N2    S    
C14   H18   S    
C14   N8    S    
C4    H12   S    
C15   H3    S    
C14   H19   S    
C3    C7    A    
C16   H8    S    
C17   H13   S    
C16   H7    S    
Cu1   N3    S    
C9    C22   A    
C1    O4    A    
C16   H6    S    
C19   O6    A    
C13   N4    A    
C9    C18   S    
C7    C13   S    
C11   N5    A    
C20   C21   T    
C15   H4    S    
N1    N3    T    
Cu1   O7    S    
C5    H14   S    
C4    C23   A    
Cu2   O8    S    
C3    C22   A    
C17   H11   S    
C11   N6    A    
Cu1   O3    S    
C2    N2    S    
Cu1   Cu2   S    
C12   O3    A    
Cu2   O4    S    
C12   C21   S    
H5    N10   S    
C10   C24   A    
N5    N7    A    
C19   O7    A    
C14   H17   S    
C1    C20   S    
C6    H15   S    
C15   N9    S    
