data_mof_unit_51672.cif
_audit_creation_date              2012-10-26T20:06:04-0400
_audit_creation_method            fapswitch 2.2
_symmetry_space_group_name_H-M    P1
_symmetry_Int_Tables_number       1
_space_group_crystal_system       triclinic
_cell_length_a                    9.53062
_cell_length_b                    10.833445
_cell_length_c                    13.505694
_cell_angle_alpha                 90.215454
_cell_angle_beta                  73.3605
_cell_angle_gamma                 90.008457
_cell_volume                      1336.05309473

loop_
_atom_site_label
_atom_site_type_symbol
_atom_type_description
_atom_site_fract_x
_atom_site_fract_y
_atom_site_fract_z
_atom_type_partial_charge
C1    C     C_R   0.499995 0.737893 0.500109 0.546398
C2    C     C_R   0.383868 0.545037 0.810922 -0.002342
C3    C     C_R   0.627158 0.936165 0.500901 -0.138597
C4    C     C_R   0.423762 0.514012 0.699035 0.543192
C5    C     C_R   0.627187 0.063879 0.500776 -0.137752
C6    C     C_R   0.499956 0.128230 0.500071 0.021178
C7    C     C_R   0.372687 0.063812 0.499515 -0.137990
C8    C     C_R   0.372661 0.936101 0.499630 -0.138333
C9    C     C_R   0.499927 0.871756 0.500249 0.021632
C10   C     C_R   0.906823 0.592800 0.547047 0.003803
C11   C     C_R   0.054967 0.592040 0.548064 0.007210
C12   C     C_R   0.444835 0.555252 0.975815 0.033979
C13   C     C_R   0.094124 0.408506 0.451057 0.010223
C14   C     C_R   0.945314 0.408338 0.451356 0.010630
C15   C     C_R   0.499966 0.262109 0.499995 0.556311
C16   C     C_R   0.577508 0.498967 0.300501 0.549638
C17   C     C_R   0.806405 0.494787 0.023433 -0.136642
C18   C     C_R   0.621022 0.502151 0.187742 0.000552
C19   C     C_R   0.235895 0.563630 0.864533 -0.137266
C20   C     C_R   0.193903 0.585637 0.970465 -0.145339
C21   C     C_R   0.295053 0.576256 0.026420 -0.119221
C22   C     C_R   0.490888 0.555602 0.866225 0.029955
C23   C     C_R   0.551365 0.535894 0.029747 0.029062
C24   C     C_R   0.701321 0.524804 0.973487 0.053111
C25   C     C_R   0.745681 0.547988 0.868274 -0.142208
C26   C     C_R   0.642215 0.569243 0.816659 -0.116070
C27   C     C_R   0.513774 0.523326 0.137349 -0.133712
C28   C     C_R   0.767197 0.485391 0.130327 -0.138126
Cu1   Cu    Cu3+1 0.359340 0.499980 0.500000 0.935091
Cu2   Cu    Cu3+1 0.640660 0.500020 0.500000 0.934330
H1    H     H_    0.850875 0.465170 0.167853 0.127754
H2    H     H_    0.918630 0.478168 0.979180 0.107045
H3    H     H_    0.401544 0.529450 0.183755 0.123844
H4    H     H_    0.152569 0.563487 0.824297 0.122291
H5    H     H_    0.253060 0.590057 0.108661 0.102739
H6    H     H_    0.081610 0.608071 0.010593 0.116848
H7    H     H_    0.684437 0.601899 0.739048 0.143779
H8    H     H_    0.726626 0.888170 0.501478 0.123286
H9    H     H_    0.726690 0.111923 0.501243 0.124501
H10   H     H_    0.273209 0.111802 0.498955 0.124074
H11   H     H_    0.273159 0.888055 0.499165 0.123601
H12   H     H_    0.836748 0.668291 0.583598 0.092463
H13   H     H_    0.094939 0.665694 0.586981 0.103128
H14   H     H_    0.165880 0.335334 0.411468 0.106827
H15   H     H_    0.905475 0.335001 0.412043 0.104941
H16   H     H_    0.860963 0.551797 0.825874 0.100819
N1    N     N_R   0.147940 0.499970 0.499970 -0.224063
N2    N     N_R   0.852060 0.500060 0.499990 -0.223443
O1    O     O_R   0.381250 0.680340 0.500010 -0.514379
O2    O     O_R   0.618820 0.680370 0.500010 -0.516354
O3    O     O_R   0.323240 0.499950 0.650980 -0.499267
O4    O     O_R   0.560810 0.499980 0.650980 -0.507433
O5    O     O_R   0.381180 0.319630 0.499990 -0.509069
O6    O     O_R   0.618750 0.319660 0.499990 -0.508653
O7    O     O_R   0.439190 0.500020 0.349020 -0.506914
O8    O     O_R   0.676760 0.500050 0.349020 -0.501062

loop_
_geom_bond_atom_site_label_1
_geom_bond_atom_site_label_2
_ccdc_geom_bond_type
C2    C22   A    
C2    C4    S    
C23   C24   A    
C16   O8    A    
C26   H7    S    
C11   H13   S    
C6    C7    A    
C21   H5    S    
C23   C27   A    
C10   H12   S    
C1    O2    A    
C11   N1    A    
C19   C20   A    
C7    H10   S    
Cu1   O3    S    
Cu2   O2    S    
C16   O7    A    
C1    C9    S    
C7    C8    A    
Cu1   O1    S    
C13   C14   A    
C20   C21   A    
Cu2   O6    S    
C12   C23   A    
Cu1   Cu2   S    
Cu1   O5    S    
C4    O4    A    
C3    C9    A    
C15   O5    A    
Cu2   N2    S    
C25   C26   A    
Cu1   N1    S    
C14   H15   S    
C5    H9    S    
C13   H14   S    
C10   N2    A    
C5    C6    A    
C24   C25   A    
C17   C24   A    
C10   C11   A    
C4    O3    A    
C20   H6    S    
C15   O6    A    
C12   C22   A    
C18   C28   A    
C8    H11   S    
C25   H16   S    
C16   C18   S    
C22   C26   A    
C13   N1    A    
C17   H2    S    
Cu2   O4    S    
C14   N2    A    
Cu1   O7    S    
C6    C15   S    
C2    C19   A    
C17   C28   A    
Cu2   O8    S    
C12   C21   A    
C28   H1    S    
C27   H3    S    
C18   C27   A    
C3    H8    S    
C8    C9    A    
C3    C5    A    
C19   H4    S    
C1    O1    A    
