data_mof_unit_48742.cif
_audit_creation_date              2012-12-11T14:27:03-0500
_audit_creation_method            fapswitch 2.2
_symmetry_space_group_name_H-M    P1
_symmetry_Int_Tables_number       1
_space_group_crystal_system       triclinic
_cell_length_a                    14.999638
_cell_length_b                    14.887417
_cell_length_c                    14.977606
_cell_angle_alpha                 109.451526
_cell_angle_beta                  109.418262
_cell_angle_gamma                 109.047906
_cell_volume                      2590.27417506

loop_
_atom_site_label
_atom_site_type_symbol
_atom_type_description
_atom_site_fract_x
_atom_site_fract_y
_atom_site_fract_z
_atom_type_partial_charge
C1    C     C_R   0.983329 0.794988 0.074738 0.013177
C2    C     C_R   0.221111 0.774002 0.313214 0.024990
C3    C     C_R   0.929985 0.407023 0.216776 -0.134140
C4    C     C_R   0.794683 0.199758 0.701258 -0.157361
C5    C     C_R   0.296479 0.589642 0.990736 -0.142379
C6    C     C_R   0.981261 0.496338 0.317857 0.139981
C7    C     C_R   0.297263 0.499194 0.927183 -0.015992
C8    C     C_R   0.324000 0.814800 0.325882 0.073746
C9    C     C_R   0.050373 0.222733 0.048831 0.096279
C10   C     C_3   0.469590 0.393246 0.831504 -0.394809
C11   C     C_3   0.365193 0.393519 0.825383 -0.408246
C12   C     C_R   0.704109 0.135964 0.700160 0.139989
C13   C     C_3   0.564081 0.502133 0.037428 -0.395479
C14   C     C_3   0.568201 0.598388 0.926328 -0.399790
C15   C     C_3   0.570605 0.497859 0.935104 0.393005
C16   C     C_R   0.093376 0.591009 0.792212 -0.155366
C17   C     C_3   0.394181 0.498531 0.924493 0.400541
C18   C     C_3   0.460985 0.502516 0.031183 -0.388550
C19   C     C_3   0.463920 0.598946 0.920505 -0.405069
C20   C     C_2   0.444496 0.879088 0.514264 -0.133999
C21   C     C_2   0.424005 0.892796 0.426897 -0.193441
C22   C     C_2   0.540318 0.964704 0.618632 -0.122413
C23   C     C_R   0.065665 0.500350 0.700793 0.147939
C24   C     C_2   0.630902 0.021418 0.620218 -0.203078
C25   C     C_2   0.069494 0.417025 0.531595 0.101911
C26   C     C_2   0.102645 0.505779 0.623677 -0.250722
C27   C     C_2   0.043922 0.424618 0.432028 -0.158332
C28   C     C_R   0.685965 0.407329 0.934598 -0.130903
C29   C     C_2   0.006832 0.492409 0.417293 -0.218526
C30   C     C_2   0.161855 0.135896 0.083535 -0.135134
C31   C     C_2   0.093354 0.168484 0.101223 -0.195365
C32   C     C_2   0.148548 0.032109 0.078369 -0.121680
C33   C     C_2   0.047855 0.950902 0.035813 -0.195073
C34   C     C_R   0.672802 0.498026 0.949715 -0.012672
C35   C     C_R   0.002997 0.408992 0.701331 -0.109579
C36   C     C_R   0.773968 0.589624 0.025157 -0.146411
C37   C     C_R   0.703532 0.197509 0.792265 -0.126999
C38   C     C_R   0.070012 0.787605 0.977971 -0.146772
C39   C     C_R   0.027377 0.845092 0.024120 0.080465
C40   C     C_R   0.960008 0.847391 0.161529 0.112030
C41   C     C_R   0.911099 0.912988 0.154849 -0.162608
C42   C     C_R   0.889882 0.961587 0.236977 -0.123270
C43   C     C_R   0.914880 0.943535 0.325594 -0.089391
C44   C     C_R   0.959361 0.875283 0.331157 -0.127108
C45   C     C_R   0.019711 0.588849 0.309270 -0.152727
C46   C     C_R   0.980814 0.826876 0.249246 -0.161288
C47   C     C_R   0.208121 0.409419 0.901793 -0.126955
C48   C     C_R   0.312969 0.773932 0.223464 0.028568
C49   C     C_R   0.974938 0.249905 0.063542 -0.176613
C50   C     C_R   0.063310 0.245629 0.969576 0.067106
H1    H     H_    0.177045 0.326658 0.841594 0.092111
H2    H     H_    0.565002 0.430291 0.044615 0.155437
H3    H     H_    0.412269 0.430808 0.035279 0.159202
H4    H     H_    0.638505 0.676465 0.998030 0.153284
H5    H     H_    0.572063 0.595776 0.852650 0.156636
H6    H     H_    0.416594 0.597274 0.844288 0.156811
H7    H     H_    0.487895 0.676643 0.990383 0.146674
H8    H     H_    0.635532 0.576986 0.112649 0.160796
H9    H     H_    0.483064 0.577535 0.103335 0.156768
H10   H     H_    0.386214 0.810360 0.511551 0.128805
H11   H     H_    0.152345 0.674562 0.823061 0.087728
H12   H     H_    0.941600 0.234399 0.113581 0.099066
H13   H     H_    0.481331 0.961486 0.428612 0.146605
H14   H     H_    0.529408 0.991601 0.689057 0.117605
H15   H     H_    0.641957 0.988960 0.550464 0.134875
H16   H     H_    0.137115 0.586147 0.630954 0.123946
H17   H     H_    0.048475 0.368782 0.367171 0.126782
H18   H     H_    0.000100 0.548620 0.479538 0.134743
H19   H     H_    0.212966 0.172669 0.054765 0.134168
H20   H     H_    0.052109 0.137383 0.140718 0.140743
H21   H     H_    0.218350 0.019625 0.101733 0.127603
H22   H     H_    0.624405 0.322253 0.887185 0.090347
H23   H     H_    0.879007 0.323367 0.193112 0.089394
H24   H     H_    0.977409 0.960471 0.003602 0.131745
H25   H     H_    0.976067 0.324458 0.648972 0.102476
H26   H     H_    0.790150 0.672205 0.061772 0.115314
H27   H     H_    0.652596 0.167853 0.824092 0.080504
H28   H     H_    0.121836 0.811889 0.944968 0.101249
H29   H     H_    0.050651 0.670772 0.371083 0.104643
H30   H     H_    0.885280 0.923934 0.084854 0.097043
H31   H     H_    0.852732 0.012207 0.231147 0.101103
H32   H     H_    0.898045 0.980872 0.388901 0.095207
H33   H     H_    0.976444 0.859061 0.398480 0.105105
H34   H     H_    0.345695 0.671846 0.010548 0.082664
H35   H     H_    0.011328 0.771522 0.253225 0.132415
H36   H     H_    0.434422 0.778600 0.192513 0.098831
H37   H     H_    0.355368 0.820886 0.125048 0.091750
H38   H     H_    0.068654 0.112295 0.883657 0.103029
H39   H     H_    0.050148 0.182004 0.821683 0.082146
H40   H     H_    0.228376 0.813781 0.459349 0.089666
H41   H     H_    0.227436 0.906096 0.418065 0.116234
H42   H     H_    0.019146 0.254000 0.446860 0.093542
H43   H     H_    0.124501 0.322638 0.573967 0.095567
H44   H     H_    0.466246 0.318109 0.832809 0.145463
H45   H     H_    0.472996 0.389325 0.757289 0.157770
H46   H     H_    0.316693 0.389240 0.747937 0.153633
H47   H     H_    0.826635 0.172129 0.649177 0.089230
H48   H     H_    0.316000 0.318802 0.824746 0.148313
N1    N     N_R   0.993980 0.704500 0.053430 -0.063369
N2    N     N_R   0.053690 0.556380 0.849240 -0.037004
N3    N     N_R   0.790390 0.443640 0.997160 -0.035854
N4    N     N_R   0.998260 0.443670 0.792970 -0.045884
N5    N     N_R   0.845830 0.556350 0.053430 -0.039481
N6    N     N_R   0.792820 0.295510 0.849240 -0.041380
N7    N     N_R   0.051260 0.704510 0.997160 -0.049097
N8    N     N_R   0.001740 0.556330 0.207030 -0.042179
N9    N     N_3   0.393615 0.823323 0.198892 -0.225542
N10   N     N_3   0.096012 0.192533 0.898032 -0.230289
N11   N     N_3   0.193364 0.822418 0.391994 -0.233176
N12   N     N_R   0.154170 0.443650 0.946570 -0.034225
N13   N     N_3   0.049612 0.313811 0.526700 -0.220962
N14   N     N_R   0.207180 0.704490 0.150760 -0.064620
N15   N     N_R   0.948740 0.295490 0.002840 -0.045674
N16   N     N_R   0.006020 0.295500 0.946570 -0.058993
N17   N     N_R   0.149890 0.704480 0.207030 -0.062267
N18   N     N_R   0.946310 0.443620 0.150760 -0.040276
N19   N     N_R   0.209610 0.556360 0.002840 -0.033410
N20   N     N_R   0.850110 0.295520 0.792970 -0.040665
Ni1   Ni    Ni4+2 0.997880 0.629240 0.129060 0.207655
Ni2   Ni    Ni4+2 0.002120 0.370760 0.870940 0.200685
Ni3   Ni    Ni4+2 0.129260 0.629260 0.000000 0.196036
Ni4   Ni    Ni4+2 0.870740 0.370740 0.000000 0.203712

loop_
_geom_bond_atom_site_label_1
_geom_bond_atom_site_label_2
_ccdc_geom_bond_type
C11   H46   S    
C19   H6    S    
C49   N15   A    
C2    N11   S    
C6    C45   A    
N8    Ni1   S    
C27   C29   D    
C41   C42   A    
H36   N9    S    
C44   H33   S    
C1    N1    A    
C41   H30   S    
C25   N13   S    
C19   H7    S    
C40   C46   A    
C35   H25   S    
C33   C39   S    
N18   Ni4   S    
C13   C18   S    
C36   N5    A    
C3    N18   A    
C30   C31   D    
H38   N10   S    
C48   N9    S    
N6    Ni4   S    
C10   H44   S    
C13   H2    S    
N2    Ni3   S    
C23   C26   S    
C12   C37   A    
N19   Ni3   S    
C36   H26   S    
C1    C40   S    
C28   N3    A    
C31   H20   S    
N15   Ni4   S    
C7    C17   S    
C4    C12   A    
C15   C34   S    
C18   H3    S    
C46   H35   S    
C35   N4    A    
C14   H5    S    
C28   C34   A    
N3    N5    A    
C4    H47   S    
C50   N10   S    
C4    N20   A    
C28   H22   S    
C42   H31   S    
N12   N19   A    
C44   C46   A    
C17   C18   S    
C32   H21   S    
N6    N20   A    
N1    N7    A    
N5    Ni1   S    
C26   H16   S    
C9    C49   A    
N12   Ni2   S    
C5    C7    A    
C5    H34   S    
C9    C31   S    
C16   N2    A    
C47   H1    S    
C13   H8    S    
C38   H28   S    
C25   C26   D    
C37   H27   S    
N8    N18   A    
C50   N16   A    
C7    C47   A    
C43   C44   A    
C8    C48   A    
C29   H18   S    
C2    N17   A    
C18   H9    S    
N2    N4    A    
C8    C21   S    
N7    Ni3   S    
C45   H29   S    
C24   H15   S    
H43   N13   S    
C40   C41   A    
C48   N14   A    
C20   C22   S    
C16   C23   A    
C23   C35   A    
C11   H48   S    
C22   C24   D    
C20   H10   S    
C42   C43   A    
C30   H19   S    
N4    Ni2   S    
C45   N8    A    
N15   N16   A    
C11   C17   S    
C49   H12   S    
C14   H4    S    
C14   C19   S    
C2    C8    A    
C9    C50   A    
C37   N6    A    
H42   N13   S    
C25   C27   S    
C47   N12   A    
C12   C24   S    
N17   Ni1   S    
N3    Ni4   S    
H40   N11   S    
C10   C15   S    
C32   C33   D    
H41   N11   S    
C38   N7    A    
C13   C15   S    
N14   Ni3   S    
C30   C32   S    
C38   C39   A    
C10   H45   S    
H39   N10   S    
C17   C19   S    
C34   C36   A    
C3    H23   S    
N20   Ni2   S    
C21   H13   S    
C27   H17   S    
C10   C11   S    
C1    C39   A    
N1    Ni1   S    
C33   H24   S    
C6    C29   S    
H37   N9    S    
C20   C21   D    
C16   H11   S    
C3    C6    A    
C5    N19   A    
C43   H32   S    
C14   C15   S    
C22   H14   S    
N14   N17   A    
N16   Ni2   S    
