data_mof_unit_21327.cif
_audit_creation_date              2013-03-05T15:42:15-0500
_audit_creation_method            fapswitch 2.2
_symmetry_space_group_name_H-M    P1
_symmetry_Int_Tables_number       1
_space_group_crystal_system       triclinic
_cell_length_a                    11.599121
_cell_length_b                    11.501541
_cell_length_c                    19.505757
_cell_angle_alpha                 90.548929
_cell_angle_beta                  90.149325
_cell_angle_gamma                 59.92819
_cell_volume                      2251.84509036

loop_
_atom_site_label
_atom_site_type_symbol
_atom_site_description
_atom_site_fract_x
_atom_site_fract_y
_atom_site_fract_z
_atom_type_partial_charge
O1    O     O_R   0.267740 0.231960 0.575440 -0.500878
O2    O     O_R   0.527280 0.186640 0.570530 -0.494458
C1    C     C_R   0.640425 0.117795 0.599102 0.548287
O3    O     O_R   0.728090 0.003450 0.576380 -0.503539
O4    O     O_R   0.682970 0.789190 0.570490 -0.492246
C2    C     C_R   0.612378 0.745957 0.598514 0.545258
O5    O     O_R   0.499290 0.771880 0.575530 -0.506725
O6    O     O_R   0.285330 0.030870 0.569730 -0.488299
C3    C     C_R   0.240651 0.145568 0.598075 0.557383
O7    O     O_R   0.270980 0.227080 0.423890 -0.532755
O8    O     O_R   0.530280 0.182120 0.430050 -0.526981
C4    C     C_R   0.648226 0.111858 0.402924 0.536786
O9    O     O_R   0.731330 0.998570 0.424830 -0.530436
O10   O     O_R   0.685970 0.784660 0.430010 -0.497404
C5    C     C_R   0.616144 0.736592 0.402587 0.536695
O11   O     O_R   0.502530 0.767000 0.423990 -0.534254
O12   O     O_R   0.288330 0.026350 0.429250 -0.495993
C6    C     C_R   0.300382 0.116740 0.393377 0.556986
Cr1   Cr    Cr6+3 0.404720 0.198220 0.499960 1.010952
Cr2   Cr    Cr6+3 0.698290 0.897110 0.500380 1.018853
Cr3   Cr    Cr6+3 0.396970 0.904720 0.499610 1.021924
O13   O     O_3   0.499990 0.000020 0.499980 -0.265852
C7    C     C_1   0.670041 0.646881 0.860267 0.004905
C8    C     C_1   0.654689 0.683637 0.728421 -0.031488
C9    C     C_1   0.663169 0.666988 0.799753 -0.031438
C10   C     C_1   0.641222 0.703697 0.667899 0.004820
C11   C     C_1   0.127233 0.197908 0.859449 0.005129
C12   C     C_1   0.171508 0.170177 0.727691 -0.031612
C13   C     C_1   0.150515 0.181608 0.799007 -0.030865
C14   C     C_1   0.195060 0.161201 0.667283 0.002025
C15   C     C_1   0.678589 0.190618 0.860931 0.004578
C16   C     C_1   0.658307 0.167587 0.729016 -0.031282
C17   C     C_1   0.665531 0.180623 0.800404 -0.031371
C18   C     C_1   0.652760 0.150323 0.668517 0.003782
H1    H     H_    0.848288 0.628543 0.333470 0.133928
C19   C     C_R   0.660015 0.680200 0.190872 -0.010540
C20   C     C_R   0.534219 0.730632 0.221653 0.044772
C21   C     C_R   0.533174 0.700410 0.290971 0.019155
C22   C     C_R   0.762751 0.649237 0.302430 -0.152986
C23   C     C_R   0.773562 0.639332 0.231825 -0.147455
C24   C     C_R   0.412821 0.789448 0.183782 0.148178
C25   C     C_R   0.302910 0.786689 0.210753 -0.075583
C26   C     C_R   0.309198 0.736294 0.275854 -0.184344
C27   C     C_R   0.423104 0.691860 0.315417 -0.115704
C28   C     C_R   0.642395 0.681255 0.332980 -0.000509
H2    H     H_    0.871852 0.592888 0.209286 0.143639
H3    H     H_    0.211580 0.825708 0.181590 0.131660
H4    H     H_    0.224060 0.736161 0.297207 0.155137
H5    H     H_    0.424613 0.648264 0.364534 0.139489
H6    H     H_    0.174115 0.009303 0.325809 0.144712
C29   C     C_R   0.171801 0.178405 0.184104 0.015298
C30   C     C_R   0.253323 0.229646 0.206130 0.041445
C31   C     C_R   0.279223 0.227854 0.277278 0.001631
C32   C     C_R   0.195646 0.072661 0.293915 -0.142083
C33   C     C_R   0.145640 0.098633 0.227918 -0.137327
C34   C     C_R   0.298064 0.295395 0.160700 0.133579
C35   C     C_R   0.324089 0.392680 0.186866 -0.061715
C36   C     C_R   0.324816 0.410679 0.257089 -0.151130
C37   C     C_R   0.315664 0.321687 0.301496 -0.115461
C38   C     C_R   0.259743 0.138430 0.320626 0.003636
H7    H     H_    0.080961 0.060589 0.212200 0.141858
H8    H     H_    0.349596 0.450413 0.152923 0.133082
H9    H     H_    0.346235 0.485366 0.277382 0.125833
H10   H     H_    0.334052 0.334259 0.354062 0.172227
H11   H     H_    0.559981 0.355616 0.345242 0.111143
C39   C     C_R   0.673584 0.185604 0.194323 0.019193
C40   C     C_R   0.738897 0.052583 0.218751 0.019442
C41   C     C_R   0.764047 0.032332 0.289208 0.012754
C42   C     C_R   0.615072 0.271296 0.310613 -0.163326
C43   C     C_R   0.618678 0.293815 0.241024 -0.144699
C44   C     C_R   0.794539 0.940277 0.173799 -0.110316
C45   C     C_R   0.897537 0.816877 0.195421 -0.087588
C46   C     C_R   0.939655 0.800001 0.263368 0.092317
C47   C     C_R   0.872989 0.907000 0.310010 -0.065492
C48   C     C_R   0.682227 0.140500 0.335122 0.003288
H12   H     H_    0.765126 0.949925 0.120472 0.129642
H13   H     H_    0.576706 0.396355 0.223601 0.141572
H14   H     H_    0.946433 0.734948 0.158824 0.121191
H15   H     H_    0.915309 0.893193 0.360624 0.140849
O14   O     O_R   0.821500 0.119340 0.952830 -0.509544
O15   O     O_R   0.037130 0.162530 0.957360 -0.493683
C49   C     C_R   0.082295 0.230573 0.928750 0.543564
O16   O     O_R   0.056440 0.344740 0.951340 -0.513267
O17   O     O_R   0.797900 0.560360 0.957470 -0.494630
C50   C     C_R   0.683765 0.604533 0.929630 0.540767
O18   O     O_R   0.596130 0.579390 0.952730 -0.510822
O19   O     O_R   0.639060 0.321160 0.958670 -0.489869
C51   C     C_R   0.708328 0.206234 0.930281 0.548106
O20   O     O_R   0.821240 0.124200 0.104370 -0.524647
O21   O     O_R   0.036890 0.167040 0.097840 -0.497814
C52   C     C_R   0.087527 0.232774 0.123583 0.541258
O22   O     O_R   0.056180 0.349610 0.102880 -0.526154
O23   O     O_R   0.797660 0.564870 0.097950 -0.509489
C53   C     C_R   0.681624 0.615768 0.124184 0.530277
O24   O     O_R   0.595880 0.584250 0.104270 -0.520443
O25   O     O_R   0.638830 0.325670 0.099150 -0.498482
C54   C     C_R   0.707002 0.210224 0.126181 0.545354
Cr4   Cr    Cr6+3 0.926180 0.151990 0.028120 1.026380
Cr5   Cr    Cr6+3 0.921330 0.451820 0.027470 1.008615
Cr6   Cr    Cr6+3 0.626260 0.446870 0.028710 1.020793
O26   O     O_3   0.824590 0.350230 0.028100 -0.248046
N1    N     N_3   0.051597 0.674698 0.284232 -0.669258
H16   H     H_    0.061371 0.672197 0.337592 0.214009
H17   H     H_    0.034929 0.596359 0.270882 0.234510
N2    N     N_3   0.396177 0.859065 0.120391 -0.634899
H18   H     H_    0.385185 0.803812 0.080629 0.248331
H19   H     H_    0.478626 0.869769 0.109849 0.223843
N3    N     N_3   0.329495 0.257102 0.089798 -0.630451
H20   H     H_    0.324647 0.170867 0.078017 0.236764
H21   H     H_    0.262438 0.336117 0.058979 0.254045

loop_
_geom_bond_atom_site_label_1
_geom_bond_atom_site_label_2
_geom_bond_distance
_ccdc_geom_bond_type
C27   H5    1.081634 S    
O19   C51   1.274106 A    
O23   C53   1.274469 A    
C11   C13   1.201955 T    
N1    H16   1.045794 S    
C24   C25   1.395514 A    
O15   C49   1.272444 A    
C31   C37   1.418764 A    
C35   H8    1.083098 S    
O4    Cr2   1.922836 S    
C32   C38   1.396583 A    
C50   O18   1.272539 A    
C34   C35   1.389387 A    
C41   C48   1.431907 A    
C23   H2    1.079902 S    
N2    H19   1.044754 S    
O8    Cr1   1.936523 S    
C37   H10   1.069887 S    
H6    C32   1.082733 S    
C24   N2    1.438791 S    
C39   C54   1.454993 S    
C12   C13   1.406360 S    
C8    C10   1.199748 T    
O4    C2    1.277532 A    
O15   Cr4   1.935125 S    
C41   C47   1.422105 A    
C5    O11   1.253573 A    
C33   H7    1.083274 S    
N3    H20   1.044582 S    
C46   C47   1.403104 A    
C34   N3    1.438626 S    
C21   C28   1.429424 A    
C45   H14   1.082973 S    
C29   C52   1.461391 S    
O6    C3    1.271586 A    
C15   C17   1.201637 T    
O18   Cr6   2.036785 S    
C26   H4    1.073478 S    
O23   Cr5   1.935236 S    
C29   C33   1.399885 A    
C22   C28   1.387284 A    
C39   C40   1.411467 A    
O16   Cr5   2.054444 S    
Cr3   O13   1.985393 S    
C43   H13   1.083888 S    
C42   C43   1.388959 A    
C31   C38   1.440276 A    
O6    Cr3   1.934173 S    
C35   C36   1.383981 A    
O1    Cr1   2.055727 S    
C29   C30   1.406263 A    
O10   Cr2   1.930659 S    
C19   C23   1.405330 A    
Cr1   O13   1.973120 S    
O1    C3    1.266090 A    
C8    C9    1.402794 S    
C22   C23   1.381659 A    
O24   Cr6   2.047720 S    
C1    C18   1.427113 S    
C36   C37   1.391249 A    
O5    Cr3   2.037858 S    
O12   Cr3   1.920834 S    
C40   C41   1.401453 A    
O20   C54   1.263609 A    
C16   C18   1.201689 T    
H1    C22   1.081921 S    
C26   C27   1.388487 A    
C21   C27   1.413131 A    
C20   C21   1.400882 A    
O7    Cr1   2.049310 S    
O25   C54   1.274889 A    
O12   C6    1.322903 A    
C2    C10   1.423785 S    
O17   C50   1.277933 A    
N1    H17   1.042510 S    
C3    C14   1.427646 S    
C6    C38   1.477701 S    
C46   N1    1.435854 S    
Cr5   O26   1.984645 S    
Cr2   O13   1.990786 S    
C47   H15   1.078527 S    
C25   C26   1.387444 A    
C5    C28   1.460342 S    
C1    O3    1.269247 A    
C52   O22   1.273199 A    
C30   C31   1.417329 A    
O19   Cr6   1.930567 S    
C36   H9    1.078503 S    
C32   C33   1.383000 A    
C19   C20   1.405596 A    
C15   C51   1.426932 S    
O9    Cr2   2.040683 S    
O14   Cr4   2.051616 S    
O2    Cr1   1.933141 S    
O17   Cr5   1.924525 S    
C11   C49   1.427521 S    
C45   C46   1.392634 A    
O8    C4    1.300866 A    
O11   Cr3   2.050581 S    
C2    O5    1.272030 A    
Cr4   O26   1.973493 S    
N2    H18   1.045406 S    
C39   C43   1.404060 A    
O20   Cr4   2.050443 S    
C16   C17   1.405881 S    
C12   C14   1.201981 T    
O2    C1    1.274031 A    
C44   C45   1.388920 A    
O14   C51   1.267315 A    
O21   C52   1.266859 A    
C44   H12   1.083114 S    
O7    C6    1.278268 A    
H11   C42   1.083398 S    
O25   Cr6   1.919442 S    
Cr6   O26   1.991242 S    
N3    H21   1.044940 S    
C42   C48   1.391359 A    
C40   C44   1.414065 A    
C25   H3    1.082831 S    
C7    C9    1.199731 T    
C20   C24   1.426753 A    
C53   O24   1.275940 A    
O3    Cr2   2.049213 S    
C19   C53   1.449543 S    
C4    O9    1.248733 A    
C49   O16   1.266202 A    
C7    C50   1.423712 S    
C4    C48   1.467780 S    
O10   C5    1.299446 A    
O21   Cr4   1.933280 S    
C30   C34   1.426510 A    
O22   Cr5   2.042187 S    
