data_mof_unit_19261.cif
_audit_creation_date              2013-03-05T15:46:19-0500
_audit_creation_method            fapswitch 2.2
_symmetry_space_group_name_H-M    P1
_symmetry_Int_Tables_number       1
_space_group_crystal_system       triclinic
_cell_length_a                    17.42831
_cell_length_b                    24.63539
_cell_length_c                    14.801149
_cell_angle_alpha                 89.989736
_cell_angle_beta                  126.203802
_cell_angle_gamma                 89.993682
_cell_volume                      5127.91961344

loop_
_atom_site_label
_atom_site_type_symbol
_atom_site_description
_atom_site_fract_x
_atom_site_fract_y
_atom_site_fract_z
_atom_type_partial_charge
C1    C     C_R   0.812057 0.628557 0.908397 0.329465
C2    C     C_R   0.152686 0.349038 0.091314 0.322153
C3    C     C_R   0.152684 0.650954 0.091269 0.319786
C4    C     C_R   0.811977 0.371577 0.908427 0.329295
C5    C     C_R   0.312062 0.128564 0.908399 0.329404
C6    C     C_R   0.652683 0.849036 0.091314 0.322108
C7    C     C_R   0.652688 0.150955 0.091278 0.319656
C8    C     C_R   0.312002 0.871542 0.908421 0.328661
N1    N     N_R   0.892620 0.603790 0.941800 -0.099919
N2    N     N_R   0.107380 0.396210 0.058200 -0.095069
N3    N     N_R   0.107380 0.603790 0.058200 -0.096369
N4    N     N_R   0.892620 0.396210 0.941800 -0.100464
N5    N     N_R   0.392620 0.103790 0.941800 -0.099937
N6    N     N_R   0.607380 0.896210 0.058200 -0.095116
N7    N     N_R   0.607380 0.103790 0.058200 -0.096363
N8    N     N_R   0.392620 0.896210 0.941800 -0.100320
C9    C     C_R   0.906108 0.376631 0.096016 -0.137303
C10   C     C_R   0.059937 0.648542 0.904677 -0.101452
C11   C     C_R   0.059998 0.351477 0.904713 -0.103277
C12   C     C_R   0.906102 0.623353 0.096000 -0.137437
C13   C     C_R   0.406119 0.876624 0.096020 -0.136851
C14   C     C_R   0.559917 0.148553 0.904687 -0.100916
C15   C     C_R   0.559995 0.851476 0.904713 -0.103180
C16   C     C_R   0.406107 0.123357 0.096002 -0.137459
H1    H     H_    0.936459 0.369125 0.183003 0.148422
H2    H     H_    0.017505 0.661930 0.818462 0.145359
H3    H     H_    0.017574 0.338091 0.818516 0.145250
H4    H     H_    0.936424 0.630810 0.182988 0.148449
H5    H     H_    0.436472 0.869126 0.183009 0.148384
H6    H     H_    0.517478 0.161946 0.818471 0.145285
H7    H     H_    0.517572 0.838090 0.818516 0.145281
H8    H     H_    0.436431 0.130815 0.182989 0.148445
N9    N     N_R   0.952210 0.397600 0.057910 -0.069943
N10   N     N_R   0.047790 0.602400 0.942090 -0.070753
N11   N     N_R   0.047790 0.397600 0.942090 -0.070660
N12   N     N_R   0.952210 0.602400 0.057910 -0.070315
N13   N     N_R   0.452210 0.897600 0.057910 -0.069959
N14   N     N_R   0.547790 0.102400 0.942090 -0.070769
N15   N     N_R   0.547790 0.897600 0.942090 -0.070656
N16   N     N_R   0.452210 0.102400 0.057910 -0.070316
C17   C     C_R   0.053426 0.545387 0.307602 -0.075116
C18   C     C_R   0.018562 0.454260 0.749970 -0.069277
C19   C     C_R   0.018590 0.545735 0.749993 -0.070811
C20   C     C_R   0.053408 0.454593 0.307599 -0.078607
C21   C     C_R   0.553427 0.045388 0.307602 -0.075143
C22   C     C_R   0.518565 0.954261 0.749973 -0.069305
C23   C     C_R   0.518597 0.045736 0.750003 -0.070635
C24   C     C_R   0.553411 0.954593 0.307601 -0.078525
H9    H     H_    0.072725 0.586788 0.336345 0.129390
H10   H     H_    0.028366 0.412484 0.737925 0.104634
H11   H     H_    0.028440 0.587511 0.737985 0.104971
H12   H     H_    0.072681 0.413181 0.336342 0.130023
H13   H     H_    0.572724 0.086789 0.336344 0.129391
H14   H     H_    0.528370 0.912485 0.737928 0.104637
H15   H     H_    0.528455 0.087513 0.738009 0.105003
H16   H     H_    0.572686 0.913182 0.336346 0.130029
N17   N     N_R   0.026300 0.529110 0.206760 -0.045278
N18   N     N_R   0.973700 0.470890 0.793240 -0.050006
N19   N     N_R   0.973700 0.529110 0.793240 -0.050123
N20   N     N_R   0.026300 0.470890 0.206760 -0.045021
N21   N     N_R   0.526300 0.029110 0.206760 -0.045289
N22   N     N_R   0.473700 0.970890 0.793240 -0.049987
N23   N     N_R   0.473700 0.029110 0.793240 -0.050142
N24   N     N_R   0.526300 0.970890 0.206760 -0.045070
C25   C     C_R   0.738964 0.455229 0.697975 -0.071945
C26   C     C_R   0.267647 0.544864 0.242322 0.006633
C27   C     C_R   0.267659 0.454868 0.243282 -0.018094
C28   C     C_R   0.738770 0.545049 0.698712 -0.084491
C29   C     C_R   0.238927 0.955221 0.698032 -0.072168
C30   C     C_R   0.767644 0.044866 0.242321 0.006078
C31   C     C_R   0.767654 0.954872 0.243250 -0.017549
C32   C     C_R   0.238740 0.045044 0.698738 -0.084306
H17   H     H_    0.724532 0.414545 0.665300 0.179981
H18   H     H_    0.291711 0.586392 0.257935 0.151089
H19   H     H_    0.291408 0.413278 0.259330 0.151066
H20   H     H_    0.724611 0.585822 0.666546 0.176997
H21   H     H_    0.224480 0.914534 0.665373 0.179966
H22   H     H_    0.791709 0.086393 0.257948 0.150940
H23   H     H_    0.791411 0.913283 0.259298 0.151062
H24   H     H_    0.224558 0.085813 0.666551 0.177044
N25   N     N_R   0.818530 0.472270 0.792960 -0.064919
N26   N     N_R   0.181470 0.527730 0.207040 -0.051698
N27   N     N_R   0.181470 0.472270 0.207040 -0.051562
N28   N     N_R   0.818530 0.527730 0.792960 -0.063432
N29   N     N_R   0.318530 0.972270 0.792960 -0.064914
N30   N     N_R   0.681470 0.027730 0.207040 -0.051623
N31   N     N_R   0.681470 0.972270 0.207040 -0.051541
N32   N     N_R   0.318530 0.027730 0.792960 -0.063480
C33   C     C_R   0.817735 0.639612 0.004130 0.031573
C34   C     C_R   0.126601 0.321539 0.996645 -0.016241
C35   C     C_R   0.126514 0.678492 0.996575 -0.016617
C36   C     C_R   0.817679 0.360463 0.004151 0.032300
C37   C     C_R   0.317742 0.139619 0.004132 0.031581
C38   C     C_R   0.626597 0.821536 0.996644 -0.016223
C39   C     C_R   0.626477 0.178510 0.996591 -0.016895
C40   C     C_R   0.317713 0.860423 0.004161 0.031516
C41   C     C_R   0.071841 0.499984 0.372741 0.027218
C42   C     C_R   0.049861 0.499994 0.725186 0.038258
C43   C     C_R   0.571843 0.999985 0.372742 0.027301
C44   C     C_R   0.549867 0.999995 0.725193 0.038262
C45   C     C_R   0.688198 0.500231 0.639753 0.079487
C46   C     C_R   0.322462 0.499744 0.264543 0.057723
C47   C     C_R   0.188137 0.000221 0.639833 0.079556
C48   C     C_R   0.822457 0.999750 0.264510 0.057612
Ni1   Ni    Ni4+2 0.934150 0.565840 0.869060 0.268617
Ni2   Ni    Ni4+2 0.065850 0.434160 0.130940 0.299295
Ni3   Ni    Ni4+2 0.065850 0.565840 0.130940 0.300208
Ni4   Ni    Ni4+2 0.934150 0.434160 0.869060 0.269462
Ni5   Ni    Ni4+2 0.434150 0.065840 0.869060 0.268619
Ni6   Ni    Ni4+2 0.565850 0.934160 0.130940 0.299306
Ni7   Ni    Ni4+2 0.565850 0.065840 0.130940 0.300155
Ni8   Ni    Ni4+2 0.434150 0.934160 0.869060 0.269519
C49   C     C_3   0.520764 0.458637 0.509070 -0.317833
C50   C     C_3   0.498767 0.541577 0.374621 -0.303593
C51   C     C_3   0.492872 0.451633 0.389080 -0.312172
C52   C     C_3   0.526852 0.548315 0.494892 -0.325645
C53   C     C_3   0.020788 0.958497 0.508887 -0.317951
C54   C     C_3   0.998676 0.041707 0.374897 -0.304019
C55   C     C_3   0.992961 0.951715 0.388883 -0.312129
C56   C     C_3   0.026686 0.048223 0.495175 -0.325648
C57   C     C_3   0.452187 0.506372 0.470388 0.684055
C58   C     C_3   0.569270 0.493608 0.415112 0.698468
C59   C     C_3   0.952101 0.006163 0.470410 0.684251
C60   C     C_3   0.069284 0.993812 0.415177 0.698748
H25   H     H_    0.531277 0.425532 0.566327 0.201584
H26   H     H_    0.487336 0.574470 0.316584 0.211092
H27   H     H_    0.476964 0.412923 0.342778 0.207223
H28   H     H_    0.541763 0.587210 0.540377 0.199806
H29   H     H_    0.031349 0.925280 0.565960 0.201759
H30   H     H_    0.987196 0.074712 0.317050 0.210838
H31   H     H_    0.977147 0.913079 0.342378 0.207360
H32   H     H_    0.041506 0.087043 0.540865 0.199842
C61   C     C_3   0.423393 0.499664 0.351130 -0.030113
C62   C     C_3   0.596419 0.500399 0.533076 -0.017722
C63   C     C_3   0.923377 0.999671 0.351140 -0.030081
C64   C     C_3   0.096363 0.000382 0.533152 -0.017831
C65   C     C_R   0.816586 0.268236 0.049779 -0.267066
C66   C     C_R   0.123255 0.774096 0.957611 -0.236064
C67   C     C_R   0.123144 0.226042 0.956936 -0.235733
C68   C     C_R   0.816962 0.731631 0.051122 -0.267596
C69   C     C_R   0.316768 0.768259 0.050324 -0.267161
C70   C     C_R   0.623333 0.274189 0.958206 -0.235630
C71   C     C_R   0.623131 0.726040 0.956915 -0.235785
C72   C     C_R   0.316967 0.231641 0.051104 -0.267553
H33   H     H_    0.890616 0.265920 0.080939 0.191587
H34   H     H_    0.048828 0.775265 0.924800 0.194544
H35   H     H_    0.048571 0.224962 0.923545 0.194815
H36   H     H_    0.891234 0.733839 0.083206 0.191436
H37   H     H_    0.390904 0.765975 0.081872 0.191651
H38   H     H_    0.549012 0.275366 0.925836 0.194829
H39   H     H_    0.548556 0.724963 0.923504 0.194831
H40   H     H_    0.391234 0.233850 0.083176 0.191436
C73   C     C_R   0.269972 0.721395 0.040772 0.414208
C74   C     C_R   0.670388 0.321560 0.966454 0.421438
C75   C     C_R   0.670143 0.678663 0.965140 0.426769
C76   C     C_R   0.270231 0.278523 0.041578 0.416584
C77   C     C_R   0.769786 0.221388 0.040280 0.413932
C78   C     C_R   0.170344 0.821458 0.965943 0.422360
C79   C     C_R   0.170158 0.178665 0.965169 0.426734
C80   C     C_R   0.770230 0.778515 0.041595 0.416556
C81   C     C_R   0.172983 0.725106 0.994831 -0.052126
C82   C     C_R   0.767413 0.317385 0.011566 -0.071026
C83   C     C_R   0.767457 0.682646 0.011618 -0.071510
C84   C     C_R   0.173097 0.274926 0.994964 -0.053670
C85   C     C_R   0.672923 0.225145 0.994849 -0.052122
C86   C     C_R   0.267477 0.817351 0.011615 -0.071083
C87   C     C_R   0.267468 0.182653 0.011622 -0.071514
C88   C     C_R   0.673091 0.774922 0.994964 -0.053657
C89   C     C_R   0.110834 0.450876 0.633392 -0.111415
C90   C     C_R   0.115685 0.549094 0.543350 -0.137266
C91   C     C_R   0.115589 0.450852 0.543316 -0.128868
C92   C     C_R   0.110900 0.549078 0.633408 -0.110516
C93   C     C_R   0.610843 0.950878 0.633399 -0.111571
C94   C     C_R   0.615683 0.049097 0.543349 -0.137288
C95   C     C_R   0.615596 0.950854 0.543322 -0.128928
C96   C     C_R   0.610900 0.049081 0.633409 -0.110409
H41   H     H_    0.108059 0.412142 0.665596 0.135558
H42   H     H_    0.115983 0.587860 0.509445 0.137774
H43   H     H_    0.115795 0.412083 0.509380 0.137084
H44   H     H_    0.108165 0.587813 0.665623 0.135870
H45   H     H_    0.608072 0.912145 0.665607 0.135568
H46   H     H_    0.615976 0.087863 0.509441 0.137791
H47   H     H_    0.615805 0.912085 0.509388 0.137140
H48   H     H_    0.608161 0.087815 0.665620 0.135930
C97   C     C_R   0.107022 0.499975 0.490180 0.114281
C98   C     C_R   0.096707 0.499982 0.669510 0.121493
C99   C     C_R   0.607024 0.999977 0.490182 0.114206
C100  C     C_R   0.596712 0.999985 0.669516 0.121517
N33   N     N_R   0.753884 0.657189 0.804469 0.214757
O1    O     O_R   0.791291 0.675758 0.756255 -0.403764
O2    O     O_R   0.665298 0.667727 0.760922 -0.395200
N34   N     N_R   0.192123 0.325271 0.198996 0.225296
O3    O     O_R   0.234200 0.278276 0.225426 -0.366777
O4    O     O_R   0.179260 0.348611 0.267932 -0.414759
N35   N     N_R   0.192512 0.674611 0.199114 0.225802
O5    O     O_R   0.180303 0.651086 0.268458 -0.413051
O6    O     O_R   0.234410 0.721645 0.225396 -0.367857
N36   N     N_R   0.753332 0.343271 0.804210 0.215323
O7    O     O_R   0.664849 0.332750 0.761181 -0.389018
O8    O     O_R   0.790355 0.324668 0.755581 -0.403530
N37   N     N_R   0.253895 0.157197 0.804472 0.214780
O9    O     O_R   0.291299 0.175746 0.756240 -0.403771
O10   O     O_R   0.165320 0.167756 0.760945 -0.395090
N38   N     N_R   0.692122 0.825272 0.198998 0.225317
O11   O     O_R   0.734184 0.778272 0.225422 -0.366699
O12   O     O_R   0.679276 0.848619 0.267943 -0.414682
N39   N     N_R   0.692556 0.174599 0.199141 0.225782
O13   O     O_R   0.680294 0.151097 0.268459 -0.413071
O14   O     O_R   0.734606 0.221588 0.225497 -0.367960
N40   N     N_R   0.253464 0.843192 0.804239 0.215326
O15   O     O_R   0.164958 0.832666 0.761074 -0.388684
O16   O     O_R   0.290565 0.824647 0.755659 -0.403493
O17   O     O_3   0.384247 0.512859 0.492640 -0.634467
C101  C     C_3   0.431171 0.518452 0.608832 -0.026208
H49   H     H_    0.476906 0.555262 0.641826 0.156339
H50   H     H_    0.473656 0.481693 0.654935 0.148558
H51   H     H_    0.376803 0.523287 0.624730 0.181506
O18   O     O_3   0.639317 0.487095 0.396570 -0.626173
C102  C     C_3   0.594638 0.481273 0.280913 -0.067177
H52   H     H_    0.552347 0.517928 0.233825 0.145159
H53   H     H_    0.549193 0.444348 0.247261 0.158041
H54   H     H_    0.650369 0.476465 0.267245 0.184976
O19   O     O_3   0.884105 0.012440 0.492624 -0.634409
C103  C     C_3   0.930960 0.017840 0.608836 -0.026489
H55   H     H_    0.976670 0.054657 0.642091 0.156192
H56   H     H_    0.973461 0.981050 0.654725 0.149062
H57   H     H_    0.876544 0.022528 0.624693 0.181425
O20   O     O_3   0.139381 0.987510 0.396665 -0.626138
C104  C     C_3   0.094766 0.981860 0.280991 -0.067525
H58   H     H_    0.052403 0.018527 0.234079 0.145350
H59   H     H_    0.049401 0.944909 0.247130 0.157742
H60   H     H_    0.150540 0.977221 0.267358 0.185042
N41   N     N_R   0.320912 0.670604 0.075805 0.229911
O21   O     O_R   0.410931 0.669428 0.158736 -0.378904
O22   O     O_R   0.281170 0.626731 0.016994 -0.409010
N42   N     N_R   0.619549 0.372438 0.928310 0.248762
O23   O     O_R   0.527007 0.372953 0.862908 -0.352856
O24   O     O_R   0.664444 0.418523 0.964442 -0.368622
N43   N     N_R   0.618984 0.627958 0.925480 0.247883
O25   O     O_R   0.526552 0.627738 0.856672 -0.364616
O26   O     O_R   0.663352 0.581772 0.963135 -0.367917
N44   N     N_R   0.321365 0.329247 0.077196 0.229080
O27   O     O_R   0.281969 0.373223 0.018558 -0.409865
O28   O     O_R   0.411277 0.330258 0.160506 -0.388663
N45   N     N_R   0.820611 0.170556 0.074857 0.229989
O29   O     O_R   0.910736 0.169297 0.157502 -0.378881
O30   O     O_R   0.780636 0.126732 0.015983 -0.408856
N46   N     N_R   0.119456 0.872290 0.927324 0.248578
O31   O     O_R   0.026982 0.872733 0.859407 -0.352922
O32   O     O_R   0.164160 0.918354 0.965187 -0.368571
N47   N     N_R   0.119010 0.127956 0.925536 0.247894
O33   O     O_R   0.163387 0.081773 0.963189 -0.368065
O34   O     O_R   0.026574 0.127729 0.856761 -0.364363
N48   N     N_R   0.821371 0.829236 0.077230 0.229044
O35   O     O_R   0.781987 0.873215 0.018599 -0.410008
O36   O     O_R   0.911280 0.830242 0.160550 -0.388529

loop_
_geom_bond_atom_site_label_1
_geom_bond_atom_site_label_2
_geom_bond_distance
_ccdc_geom_bond_type
C30   C48   1.372873 A    
C76   C84   1.403564 A    
C31   C48   1.370732 A    
C93   C100  1.402001 A    
C27   N27   1.332602 A    
C48   C63   1.439972 S    
C66   C81   1.395252 A    
C30   H22   1.077774 S    
N37   O10   1.300286 A    
C14   C39   1.370099 A    
C26   C46   1.372884 A    
C12   N12   1.328612 A    
C29   H21   1.076183 S    
O19   C103  1.408547 S    
C8    C40   1.387896 A    
C19   C42   1.392141 A    
C25   C45   1.361344 A    
N29   Ni8   1.878454 S    
C19   H11   1.075276 S    
C103  H55   1.112057 S    
C68   H36   1.085311 S    
C43   C99   1.462323 S    
C51   H27   1.109864 S    
N47   O33   1.301386 A    
N31   Ni6   1.878877 S    
C55   C60   1.544418 S    
C68   C83   1.395379 A    
C41   C97   1.462314 S    
N34   O4    1.300890 A    
C67   H35   1.084140 S    
C69   C86   1.395342 A    
C104  H58   1.112316 S    
C1    N33   1.431347 S    
C9    N9    1.328851 A    
C74   N42   1.443371 S    
C90   H42   1.080194 S    
C10   C35   1.370037 A    
N42   O24   1.301272 A    
C65   H33   1.085202 S    
C67   C84   1.395222 A    
C44   C100  1.463049 S    
C2    N34   1.435609 S    
C89   C98   1.402000 A    
C104  H60   1.109201 S    
C18   C42   1.392079 A    
C23   N23   1.334584 A    
C65   C82   1.395455 A    
C50   H26   1.109858 S    
C101  H50   1.112072 S    
C24   N24   1.333730 A    
C49   H25   1.110483 S    
N1    Ni1   1.864905 S    
C14   N14   1.334901 A    
N23   Ni5   1.862065 S    
N20   Ni2   1.862067 S    
C25   H17   1.076205 S    
N42   O23   1.301597 A    
C3    C35   1.370069 A    
N37   O9    1.301201 A    
C80   N48   1.441890 S    
N33   O2    1.300294 A    
C58   C62   1.524666 S    
N5    N16   1.387354 A    
N5    Ni5   1.864905 S    
N11   Ni4   1.836422 S    
C32   N32   1.330148 A    
N6    N15   1.387354 A    
N24   Ni6   1.862067 S    
N19   Ni1   1.862065 S    
C2    N2    1.325368 A    
N43   O25   1.301628 A    
C92   C98   1.401994 A    
C94   H46   1.080195 S    
C6    C38   1.370013 A    
C32   C47   1.359969 A    
C10   H2    1.081234 S    
N1    N12   1.387354 A    
N48   O36   1.301558 A    
C59   O19   1.413022 S    
N2    N11   1.387354 A    
C4    N4    1.329576 A    
C53   H29   1.110454 S    
N41   O21   1.301518 A    
C5    N5    1.329593 A    
C56   C59   1.528173 S    
C19   N19   1.334586 A    
N8    N13   1.387375 A    
C4    C36   1.387724 A    
C5    C37   1.387868 A    
C92   H44   1.080364 S    
N22   Ni8   1.861944 S    
C71   H39   1.084099 S    
N25   Ni4   1.878454 S    
C21   H13   1.079613 S    
C8    N8    1.329572 A    
C51   C58   1.544352 S    
N45   O29   1.301803 A    
N12   Ni3   1.836424 S    
C89   C91   1.383784 A    
C91   H43   1.080195 S    
C9    C36   1.381118 A    
C78   N46   1.442969 S    
C8    N40   1.431269 S    
C39   C85   1.414454 S    
C17   H9    1.079613 S    
O20   C104  1.408101 S    
C60   O20   1.409645 S    
N46   O32   1.301335 A    
C96   C100  1.401994 A    
N16   Ni7   1.836424 S    
C94   C96   1.383862 A    
C29   C47   1.361337 A    
C57   C61   1.532528 S    
C70   C85   1.395251 A    
C17   N17   1.333704 A    
N18   Ni4   1.861944 S    
C52   C57   1.528220 S    
C60   C64   1.524664 S    
C72   C87   1.395385 A    
C69   H37   1.085316 S    
N39   O13   1.300911 A    
C28   N28   1.330127 A    
N7    Ni7   1.864792 S    
C1    N1    1.329592 A    
C28   C45   1.359921 A    
C7    N39   1.435570 S    
C21   C43   1.384780 A    
C38   C88   1.414060 S    
N44   O28   1.301557 A    
N4    Ni4   1.864792 S    
C91   C97   1.402240 A    
C101  H49   1.112061 S    
N17   N20   1.434270 A    
C7    N7    1.325523 A    
C12   H4    1.080307 S    
C75   C83   1.407526 A    
N18   N19   1.434270 A    
O17   C101  1.408574 S    
C13   H5    1.080278 S    
C55   H31   1.109904 S    
C3    N35   1.435589 S    
C31   H23   1.077594 S    
C32   H24   1.075849 S    
C34   C84   1.414057 S    
C56   C64   1.540375 S    
C57   O17   1.413050 S    
C72   C76   1.371639 A    
N21   N24   1.434270 A    
C47   C64   1.438076 S    
C16   H8    1.080297 S    
N7    N14   1.387375 A    
C6    N38   1.435604 S    
N48   O35   1.301496 A    
C54   H30   1.109776 S    
C14   H6    1.081283 S    
C94   C99   1.402292 A    
C26   N26   1.334285 A    
N41   O22   1.301513 A    
C20   C41   1.384861 A    
C66   C78   1.389526 A    
C71   C75   1.389348 A    
C3    N3    1.325483 A    
C50   C58   1.547585 S    
C96   H48   1.080363 S    
C22   H14   1.075251 S    
N22   N23   1.434270 A    
C55   C63   1.541985 S    
N28   Ni1   1.878878 S    
C73   N41   1.441683 S    
N43   O26   1.301405 A    
C54   C60   1.547478 S    
N26   Ni3   1.878453 S    
C70   C74   1.389725 A    
C52   C62   1.540396 S    
C10   N10   1.334887 A    
C95   H47   1.080195 S    
N13   Ni6   1.836828 S    
N36   O7    1.300321 A    
C93   C95   1.383791 A    
C76   N44   1.441896 S    
C18   H10   1.075249 S    
C31   N31   1.332618 A    
N32   Ni5   1.878878 S    
N15   Ni8   1.836422 S    
N17   Ni3   1.861945 S    
N38   O12   1.300897 A    
N26   N27   1.366281 A    
N40   O16   1.301209 A    
C49   C62   1.539562 S    
N45   O30   1.301386 A    
N3    Ni3   1.864792 S    
C104  H59   1.112275 S    
C17   C41   1.384782 A    
N2    Ni2   1.864905 S    
C27   H19   1.077588 S    
C77   C85   1.403403 A    
C30   N30   1.334251 A    
C103  H57   1.109395 S    
C102  H52   1.112300 S    
N25   N28   1.366281 A    
C29   N29   1.331504 A    
N46   O31   1.301624 A    
N8    Ni8   1.864792 S    
C23   H15   1.075288 S    
N30   N31   1.366281 A    
N29   N32   1.366281 A    
C36   C82   1.421095 S    
C24   H16   1.079608 S    
C24   C43   1.384865 A    
C22   C44   1.392088 A    
C1    C33   1.387881 A    
C58   O18   1.409673 S    
N44   O27   1.301504 A    
C56   H32   1.110224 S    
N10   Ni1   1.836827 S    
C74   C82   1.407820 A    
N3    N10   1.387375 A    
N9    Ni2   1.836828 S    
C22   N22   1.334503 A    
N14   Ni5   1.836827 S    
C4    N36   1.431222 S    
C101  H51   1.109402 S    
C103  H56   1.112086 S    
C20   H12   1.079609 S    
C50   C52   1.551407 S    
C7    C39   1.370005 A    
N27   Ni2   1.878877 S    
C13   C40   1.381107 A    
C45   C62   1.438091 S    
C28   H20   1.075870 S    
C49   C57   1.526519 S    
C51   C61   1.542024 S    
C12   C33   1.380980 A    
C15   C38   1.369851 A    
C65   C77   1.371817 A    
C66   H34   1.084006 S    
C9    H1    1.080295 S    
N34   O3    1.300759 A    
C70   H38   1.083979 S    
C95   C99   1.402239 A    
C53   C55   1.549376 S    
N30   Ni7   1.878453 S    
C53   C59   1.526555 S    
C46   C61   1.439995 S    
C79   N47   1.442954 S    
C6    N6    1.325382 A    
C42   C98   1.463040 S    
C11   C34   1.369845 A    
C11   N11   1.334762 A    
C16   C37   1.380970 A    
C68   C80   1.371629 A    
C102  H54   1.109268 S    
C5    N37   1.431351 S    
C67   C79   1.389323 A    
C69   C73   1.371888 A    
O18   C102  1.408114 S    
C90   C92   1.383860 A    
C20   N20   1.333722 A    
N21   Ni7   1.861945 S    
N6    Ni6   1.864905 S    
C90   C97   1.402289 A    
C21   N21   1.333705 A    
C16   N16   1.328605 A    
C50   C61   1.540638 S    
C79   C87   1.407542 A    
C33   C83   1.420789 S    
C89   H41   1.080347 S    
C40   C86   1.420896 S    
C102  H53   1.112268 S    
C80   C88   1.403583 A    
C93   H45   1.080349 S    
N33   O1    1.301200 A    
C54   C56   1.551398 S    
C71   C88   1.395219 A    
N47   O34   1.301658 A    
C23   C44   1.392144 A    
C75   N43   1.442971 S    
N35   O5    1.300924 A    
C18   N18   1.334498 A    
C78   C86   1.407498 A    
C13   N13   1.328805 A    
N38   O11   1.300760 A    
C37   C87   1.420763 S    
C2    C34   1.370003 A    
N40   O15   1.300289 A    
C52   H28   1.110182 S    
C59   C63   1.532548 S    
N39   O14   1.300731 A    
C25   N25   1.331543 A    
C35   C81   1.414270 S    
N36   O8    1.301204 A    
C49   C51   1.549352 S    
N4    N9    1.387375 A    
C53   C64   1.539547 S    
C77   N45   1.441774 S    
C15   N15   1.334771 A    
C73   C81   1.403627 A    
C54   C63   1.540636 S    
C72   H40   1.085269 S    
C27   C46   1.370687 A    
C15   H7    1.081201 S    
C11   H3    1.081205 S    
N35   O6    1.300748 A    
C26   H18   1.077786 S    
