data_mof_unit_21041.cif
_audit_creation_date              2012-12-11T14:49:22-0500
_audit_creation_method            fapswitch 2.2
_symmetry_space_group_name_H-M    P1
_symmetry_Int_Tables_number       1
_space_group_crystal_system       triclinic
_cell_length_a                    16.917247
_cell_length_b                    16.788118
_cell_length_c                    19.495953
_cell_angle_alpha                 117.06202
_cell_angle_beta                  62.118401
_cell_angle_gamma                 100.621899
_cell_volume                      4355.56664617

loop_
_atom_site_label
_atom_site_type_symbol
_atom_type_description
_atom_site_fract_x
_atom_site_fract_y
_atom_site_fract_z
_atom_type_partial_charge
C1    C     C_R   0.021555 0.760639 0.030466 -0.148856
C2    C     C_R   0.234147 0.582854 0.835504 -0.123753
C3    C     C_R   0.193193 0.441145 0.042445 -0.126640
C4    C     C_R   0.748284 0.479052 0.171384 -0.123213
C5    C     C_R   0.049681 0.329950 0.753343 -0.113079
C6    C     C_R   0.276490 0.457476 0.987947 0.008880
C7    C     C_R   0.039392 0.243916 0.746400 0.080022
C8    C     C_R   0.231324 0.563399 0.759655 0.067400
C9    C     C_R   0.990544 0.230791 0.040530 0.083271
C10   C     C_R   0.099278 0.083034 0.651611 0.446157
C11   C     C_R   0.074592 0.166510 0.664017 -0.064656
C12   C     C_R   0.740920 0.540030 0.252058 0.034540
C13   C     C_R   0.078202 0.177701 0.595834 -0.289768
C14   C     C_R   0.096918 0.106725 0.518048 0.141582
C15   C     C_R   0.112807 0.021193 0.506571 -0.038203
C16   C     C_R   0.819510 0.501985 0.906771 -0.096547
C17   C     C_R   0.117497 0.009296 0.571864 0.038419
C18   C     C_R   0.091915 0.119628 0.454238 -0.175962
C19   C     C_R   0.093549 0.046384 0.381952 -0.196769
C20   C     C_R   0.102103 0.960597 0.372871 0.130696
C21   C     C_R   0.117300 0.947167 0.432056 0.058541
C22   C     C_R   0.130595 0.859869 0.419433 0.077679
C23   C     C_R   0.746940 0.449042 0.927811 0.101423
C24   C     C_R   0.144484 0.849422 0.480787 -0.226450
C25   C     C_R   0.136922 0.923269 0.556655 -0.119365
C26   C     C_R   0.087568 0.888447 0.309441 -0.248547
C27   C     C_R   0.094648 0.801766 0.298750 0.065010
C28   C     C_R   0.013957 0.659473 0.239416 0.480925
C29   C     C_R   0.124669 0.786069 0.348176 -0.067247
C30   C     C_R   0.363979 0.648331 0.703548 -0.239080
C31   C     C_R   0.289793 0.598498 0.695982 0.106292
C32   C     C_R   0.277793 0.573907 0.622393 -0.203591
C33   C     C_R   0.345729 0.585941 0.551822 0.045740
C34   C     C_R   0.066866 0.732615 0.235756 -0.120341
C35   C     C_R   0.425346 0.625243 0.555830 0.033853
C36   C     C_R   0.432140 0.661313 0.633684 0.142933
C37   C     C_R   0.338234 0.551617 0.475089 -0.265635
C38   C     C_R   0.412592 0.544981 0.399239 0.508104
C39   C     C_R   0.495701 0.577458 0.401112 -0.035878
C40   C     C_R   0.752659 0.426332 0.985100 -0.157201
C41   C     C_R   0.500402 0.621673 0.480762 -0.019391
C42   C     C_R   0.581960 0.656058 0.484655 0.103587
C43   C     C_R   0.584840 0.701402 0.564893 0.028085
C44   C     C_R   0.510005 0.703101 0.638661 -0.264436
C45   C     C_R   0.262965 0.523329 0.969094 0.064684
C46   C     C_R   0.574999 0.562361 0.325906 -0.213692
C47   C     C_R   0.657652 0.583260 0.329127 0.119699
C48   C     C_R   0.659901 0.637027 0.407998 -0.235628
C49   C     C_R   0.680075 0.415629 0.893053 0.042446
C50   C     C_R   0.360995 0.413941 0.958905 0.108214
C51   C     C_R   0.448605 0.343932 0.987018 0.038296
C52   C     C_R   0.085218 0.733309 0.159470 -0.024984
C53   C     C_R   0.366067 0.369749 0.003005 -0.217848
C54   C     C_R   0.438051 0.419883 0.889774 -0.226110
C55   C     C_R   0.521454 0.403038 0.878883 0.135239
C56   C     C_R   0.977888 0.247809 0.826576 -0.139728
C57   C     C_R   0.526971 0.368212 0.930154 0.117837
C58   C     C_R   0.608359 0.369473 0.931694 -0.344162
C59   C     C_R   0.678311 0.439082 0.832669 0.536243
C60   C     C_R   0.598443 0.430357 0.824743 -0.370971
C61   C     C_R   0.827692 0.195694 0.208789 0.114312
C62   C     C_R   0.923349 0.866809 0.038858 0.133916
C63   C     C_R   0.797022 0.957868 0.082326 -0.221088
C64   C     C_R   0.826574 0.548756 0.247414 -0.113469
C65   C     C_R   0.839898 0.874305 0.042298 -0.154623
C66   C     C_R   0.963148 0.945443 0.076421 -0.272195
C67   C     C_R   0.156883 0.512871 0.760166 -0.143838
C68   C     C_R   0.919149 0.029314 0.119186 0.186960
C69   C     C_R   0.835351 0.035579 0.122024 0.183268
C70   C     C_R   0.790486 0.119257 0.166347 -0.272335
C71   C     C_R   0.910103 0.189524 0.206619 -0.162944
C72   C     C_R   0.956280 0.106877 0.161338 -0.226707
C73   C     C_R   0.947035 0.693594 0.950846 0.061046
C74   C     C_R   0.964260 0.777458 0.005176 0.001809
C75   C     C_1   0.151317 0.696543 0.324466 0.105382
C76   C     C_1   0.664997 0.742087 0.573019 0.053834
C77   C     C_1   0.450311 0.302160 0.036935 0.049318
C78   C     C_R   0.027423 0.311985 0.074031 -0.130606
C79   C     C_1   0.161290 0.774496 0.114033 0.058387
C80   C     C_1   0.911668 0.679529 0.892107 -0.001210
C81   C     C_1   0.329106 0.582818 0.940475 0.012801
C82   C     C_R   0.950300 0.244345 0.998745 -0.131898
H1    H     H_    0.047996 0.809565 0.073235 0.115492
H2    H     H_    0.080984 0.185802 0.462715 0.129610
H3    H     H_    0.695673 0.456588 0.151049 0.099039
H4    H     H_    0.083732 0.056555 0.335328 0.130349
H5    H     H_    0.065664 0.900597 0.270718 0.135121
H6    H     H_    0.156140 0.783851 0.472901 0.148560
H7    H     H_    0.143257 0.912191 0.604453 0.182155
H8    H     H_    0.373066 0.670951 0.760847 0.123098
H9    H     H_    0.219451 0.538547 0.616429 0.116506
H10   H     H_    0.276190 0.523157 0.472444 0.163723
H11   H     H_    0.573863 0.529155 0.264401 0.122609
H12   H     H_    0.952163 0.191922 0.842905 0.124159
H13   H     H_    0.845826 0.518042 0.852911 0.180105
H14   H     H_    0.723151 0.658276 0.410276 0.124556
H15   H     H_    0.514037 0.733125 0.699327 0.144000
H16   H     H_    0.610838 0.344984 0.972924 0.149593
H17   H     H_    0.594190 0.453361 0.782794 0.139684
H18   H     H_    0.306801 0.359653 0.053504 0.129438
H19   H     H_    0.434243 0.445577 0.849592 0.135592
H20   H     H_    0.726319 0.125510 0.169204 0.130284
H21   H     H_    0.938459 0.249149 0.239536 0.127646
H22   H     H_    0.732423 0.961372 0.084673 0.135585
H23   H     H_    0.125681 0.498287 0.718638 0.093826
H24   H     H_    0.020237 0.103422 0.160197 0.130573
H25   H     H_    0.805312 0.815637 0.017391 0.135452
H26   H     H_    0.027391 0.941562 0.074493 0.123335
H27   H     H_    0.717735 0.374706 0.005448 0.096868
H28   H     H_    0.845435 0.591308 0.297868 0.156294
H29   H     H_    0.109626 0.130092 0.758460 0.320346
H30   H     H_    0.453152 0.460842 0.280185 0.306635
H31   H     H_    0.739362 0.485686 0.746175 0.320410
H32   H     H_    0.983917 0.674853 0.352562 0.311965
H33   H     H_    0.053461 0.328323 0.119802 0.101520
H34   H     H_    0.905943 0.198598 0.974426 0.104825
H35   H     H_    0.271576 0.635355 0.863555 0.111108
H36   H     H_    0.178135 0.396369 0.072177 0.105336
H37   H     H_    0.092909 0.352010 0.704031 0.102582
H38   H     H_    0.058651 0.240912 0.604690 0.145336
N1    N     N_R   0.036080 0.671900 0.995420 -0.047929
N2    N     N_R   0.867430 0.509300 0.948100 -0.058518
N3    N     N_R   0.003360 0.617250 0.167070 -0.081281
N4    N     N_R   0.825450 0.461270 0.995400 -0.043125
N5    N     N_R   0.045340 0.665280 0.119770 -0.088183
N6    N     N_R   0.883740 0.497640 0.167070 -0.035371
N7    N     N_R   0.987050 0.628910 0.948110 -0.061374
N8    N     N_R   0.174550 0.538730 0.004600 -0.065469
N9    N     N_1   0.172857 0.625055 0.305382 -0.051314
N10   N     N_1   0.729145 0.774642 0.579523 -0.080678
N11   N     N_1   0.451628 0.268811 0.076915 -0.084262
N12   N     N_R   0.954660 0.334720 0.880230 -0.041815
N13   N     N_1   0.222328 0.807449 0.077537 -0.090291
N14   N     N_1   0.883827 0.669630 0.844755 -0.066297
N15   N     N_1   0.382931 0.630611 0.918151 -0.091168
N16   N     N_R   0.116260 0.502360 0.832930 -0.043771
N17   N     N_R   0.012950 0.371090 0.051890 -0.040347
N18   N     N_R   0.963920 0.328100 0.004580 -0.046411
N19   N     N_R   0.165290 0.545350 0.880240 -0.044438
N20   N     N_R   0.132570 0.490700 0.051900 -0.050150
N21   N     N_R   0.996640 0.382750 0.832930 -0.044010
N22   N     N_R   0.834710 0.454650 0.119760 -0.044701
Ni1   Ni    Ni4+2 0.104370 0.604370 0.000010 0.218301
Ni2   Ni    Ni4+2 0.895630 0.395630 0.999990 0.208839
Ni3   Ni    Ni4+2 0.991920 0.505780 0.891500 0.215146
Ni4   Ni    Ni4+2 0.008080 0.494220 0.108500 0.258859
O1    O     O_3   0.104489 0.071108 0.715035 -0.772146
O2    O     O_3   0.401587 0.503003 0.325010 -0.746907
O3    O     O_3   0.752752 0.472924 0.784667 -0.791622
O4    O     O_3   0.988240 0.624673 0.298072 -0.781063

loop_
_geom_bond_atom_site_label_1
_geom_bond_atom_site_label_2
_ccdc_geom_bond_type
C61   C70   A    
N12   Ni2   S    
C66   C68   A    
C63   C65   A    
C28   O4    S    
C6    C45   A    
C27   C29   A    
C41   C42   A    
N1    Ni1   S    
C54   H19   S    
C35   C36   A    
C58   H16   S    
C30   H8    S    
C60   H17   S    
N6    Ni4   S    
C28   N3    A    
C39   C41   A    
C62   C74   S    
C7    C11   S    
C26   C27   A    
C50   C54   A    
C5    H37   S    
C1    C74   A    
C22   C24   A    
C22   C29   A    
N1    N7    A    
N16   N19   A    
C4    N22   A    
C30   C31   A    
C12   C64   A    
C23   C49   S    
C32   H9    S    
C10   C17   A    
C23   C40   A    
N12   N21   A    
C80   N14   T    
C18   C19   A    
C73   C74   A    
N2    Ni3   S    
C16   N2    A    
C46   C47   A    
C76   N10   T    
C78   H33   S    
C68   C69   A    
C18   H2    S    
C51   C57   A    
C4    C12   A    
C52   C79   S    
N16   Ni3   S    
C62   C65   A    
N21   Ni3   S    
C10   O1    S    
C55   C60   A    
C61   C71   A    
C28   C34   A    
C59   C60   A    
C53   H18   S    
C21   C22   A    
N19   Ni1   S    
C7    C56   A    
C12   C47   S    
C79   N13   T    
C2    H35   S    
C81   N15   T    
C59   O3    S    
C27   C34   S    
C40   N4    A    
C2    C8    A    
C50   C53   A    
C62   C66   A    
H31   O3    S    
N17   Ni4   S    
C24   C25   A    
N20   Ni4   S    
C5    C7    A    
C26   H5    S    
C4    H3    S    
C73   N7    A    
N6    N22   A    
C33   C37   A    
C49   C58   A    
H30   O2    S    
C51   C53   A    
C56   H12   S    
C43   C44   A    
C51   C77   S    
C37   C38   A    
C3    H36   S    
H29   O1    S    
C44   H15   S    
C64   H28   S    
C47   C48   A    
N3    Ni4   S    
C15   C21   A    
C68   C72   A    
C42   C48   A    
C6    C50   S    
C24   H6    S    
C38   O2    S    
C56   N12   A    
N7    Ni3   S    
C39   C46   A    
C72   H24   S    
C16   C23   A    
C64   N6    A    
C55   C57   A    
N22   Ni2   S    
C36   C44   A    
C42   C43   A    
C2    N19   A    
N2    N4    A    
C78   N17   A    
C13   H38   S    
C43   C76   S    
C15   C17   A    
C71   H21   S    
C54   C55   A    
C16   H13   S    
C48   H14   S    
C37   H10   S    
C8    C31   S    
C25   H7    S    
C14   C18   A    
C31   C32   A    
C77   N11   T    
C5    N21   A    
C66   H26   S    
C63   H22   S    
C52   N5    A    
C70   H20   S    
C40   H27   S    
C29   C75   S    
C1    H1    S    
N17   N18   A    
C9    C82   A    
C34   C52   A    
C49   C59   A    
C30   C36   A    
C17   C25   A    
C32   C33   A    
C19   C20   A    
C67   N16   A    
N8    N20   A    
C82   H34   S    
C63   C69   A    
C82   N18   A    
N18   Ni2   S    
C11   C13   A    
C57   C58   A    
C38   C39   A    
C46   H11   S    
C20   C26   A    
N5    Ni1   S    
C33   C35   A    
C73   C80   S    
C45   C81   S    
C9    C78   A    
C69   C70   A    
C35   C41   A    
N8    Ni1   S    
C1    N1    A    
C19   H4    S    
N3    N5    A    
C10   C11   A    
C71   C72   A    
C67   H23   S    
C20   C21   A    
C8    C67   A    
C3    C6    A    
H32   O4    S    
C14   C15   A    
N4    Ni2   S    
C3    N20   A    
C45   N8    A    
C13   C14   A    
C65   H25   S    
C75   N9    T    
