data_mof_unit_24746.cif
_audit_creation_date              2013-03-05T16:48:40-0500
_audit_creation_method            fapswitch 2.2
_symmetry_space_group_name_H-M    P1
_symmetry_Int_Tables_number       1
_space_group_crystal_system       triclinic
_cell_length_a                    27.632277
_cell_length_b                    8.958648
_cell_length_c                    8.082291
_cell_angle_alpha                 89.998838
_cell_angle_beta                  90.03465
_cell_angle_gamma                 91.223182
_cell_volume                      2000.2974232

loop_
_atom_site_label
_atom_site_type_symbol
_atom_site_description
_atom_site_fract_x
_atom_site_fract_y
_atom_site_fract_z
_atom_type_partial_charge
O1    O     O_R   0.500000 0.285350 0.636850 -0.614209
O2    O     O_R   0.500000 0.714650 0.363150 -0.621069
O3    O     O_R   0.500000 0.714650 0.636850 -0.613887
O4    O     O_R   0.500000 0.285350 0.363150 -0.614216
C1    C     C_R   0.499899 0.217846 0.500003 0.942805
C2    C     C_R   0.500074 0.782151 0.500000 0.933013
O5    O     O_R   0.428760 0.500000 0.636860 -0.593161
O6    O     O_R   0.571240 0.500000 0.363140 -0.602490
O7    O     O_R   0.571240 0.500000 0.636860 -0.603716
O8    O     O_R   0.428760 0.500000 0.363140 -0.642338
C3    C     C_R   0.405543 0.496007 0.500055 0.903539
C4    C     C_R   0.594435 0.504213 0.500245 0.934968
Zn1   Zn    Zn3+2 0.500000 0.500000 0.682780 1.006149
Zn2   Zn    Zn3+2 0.500000 0.500000 0.317220 0.990412
C5    C     C_R   0.172451 0.337059 0.503828 0.565350
C6    C     C_R   0.827837 0.657303 0.496816 0.565635
C7    C     C_R   0.181026 0.588225 0.602267 0.535916
C8    C     C_R   0.818787 0.405361 0.592381 0.536356
O9    O     O_2   0.194055 0.212606 0.449624 -0.536317
O10   O     O_2   0.806474 0.782567 0.443690 -0.537755
O11   O     O_2   0.211192 0.701595 0.646488 -0.584355
O12   O     O_2   0.788412 0.291724 0.633971 -0.587117
N1    N     N_R   0.200266 0.459481 0.543613 -0.326339
N2    N     N_R   0.799801 0.535053 0.535242 -0.325027
C9    C     C_R   0.273060 0.530731 0.388933 0.117163
C10   C     C_R   0.726156 0.469932 0.381690 0.064869
C11   C     C_R   0.279665 0.385648 0.642589 0.065558
C12   C     C_R   0.721150 0.607725 0.641026 0.062403
C13   C     C_R   0.323546 0.543604 0.378261 -0.022759
C14   C     C_R   0.675359 0.458250 0.374303 -0.015293
C15   C     C_R   0.330374 0.395207 0.632006 0.010010
C16   C     C_R   0.670401 0.598961 0.633616 -0.014756
C17   C     C_R   0.251534 0.454855 0.522366 0.278279
C18   C     C_R   0.748486 0.541641 0.516540 0.302983
C19   C     C_R   0.101119 0.475931 0.573618 -0.119632
C20   C     C_R   0.898862 0.517225 0.567667 -0.119649
C21   C     C_R   0.121906 0.340926 0.520782 -0.031245
C22   C     C_R   0.878342 0.652610 0.514668 -0.031338
C23   C     C_R   0.130558 0.602363 0.613559 -0.054877
C24   C     C_R   0.869211 0.390724 0.605378 -0.054857
C25   C     C_R   0.091294 0.216966 0.481945 0.150935
C26   C     C_R   0.909162 0.776374 0.477231 0.151455
C27   C     C_R   0.108053 0.737579 0.659951 0.111571
C28   C     C_R   0.891472 0.255180 0.652126 0.111841
C29   C     C_R   0.352515 0.478221 0.502332 -0.123498
C30   C     C_R   0.647476 0.520331 0.502342 -0.087923
C31   C     C_R   0.970798 0.366721 0.595617 0.020188
C32   C     C_R   0.029050 0.626197 0.597896 0.020150
C33   C     C_R   0.979032 0.637246 0.568027 0.041057
C34   C     C_R   0.020974 0.355743 0.569030 0.041191
C35   C     C_R   0.949524 0.507303 0.578875 0.081384
C36   C     C_R   0.050412 0.485681 0.582073 0.081368
C37   C     C_R   0.941518 0.242873 0.637896 -0.220411
C38   C     C_R   0.058087 0.749916 0.642603 -0.220442
C39   C     C_R   0.958472 0.770671 0.514788 -0.281093
C40   C     C_R   0.041832 0.222417 0.516985 -0.281100
H1    H     H_    0.957506 0.136857 0.667725 0.153694
H2    H     H_    0.041929 0.855811 0.671798 0.153870
H3    H     H_    0.981090 0.867734 0.487846 0.130547
H4    H     H_    0.019393 0.125238 0.488815 0.130500
C41   C     C_1   0.499947 0.065110 0.500008 -0.188105
C42   C     C_1   0.500009 0.934885 0.500004 -0.188932
N3    N     N_1   0.500000 0.500000 0.073640 -0.033876
N4    N     N_1   0.500000 0.500000 0.926360 -0.030287
N5    N     N_3   0.359618 0.319401 0.751144 -0.427286
H5    H     H_    0.351726 0.359623 0.869267 0.188840
H6    H     H_    0.351132 0.205226 0.746715 0.186745
N6    N     N_3   0.641928 0.671129 0.757567 -0.427057
H7    H     H_    0.650564 0.785275 0.757370 0.188126
H8    H     H_    0.650407 0.626877 0.873403 0.188960
N7    N     N_3   0.344191 0.628292 0.244039 -0.458079
H9    H     H_    0.367296 0.711591 0.291847 0.202190
H10   H     H_    0.363722 0.556922 0.168127 0.215150
N8    N     N_3   0.651974 0.379276 0.240839 -0.428673
H11   H     H_    0.663746 0.269195 0.240134 0.192371
H12   H     H_    0.661889 0.430198 0.129189 0.186020
N9    N     N_3   0.255963 0.309314 0.777037 -0.436443
H13   H     H_    0.266376 0.197865 0.777032 0.208865
H14   H     H_    0.266979 0.359007 0.888220 0.183381
N10   N     N_3   0.745734 0.680156 0.776345 -0.438794
H15   H     H_    0.735524 0.791729 0.780558 0.207934
H16   H     H_    0.735227 0.627821 0.886544 0.178448
N11   N     N_3   0.242850 0.597793 0.266511 -0.438156
H17   H     H_    0.250639 0.712497 0.264021 0.229823
H18   H     H_    0.251587 0.553260 0.151004 0.199947
N12   N     N_3   0.755879 0.406070 0.255792 -0.444039
H19   H     H_    0.748518 0.291289 0.250058 0.210580
H20   H     H_    0.747120 0.453864 0.142009 0.182727
N13   N     N_3   0.109286 0.089006 0.397374 -0.384731
H21   H     H_    0.094003 0.087098 0.278997 0.186786
H22   H     H_    0.096493 0.993390 0.457971 0.185278
N14   N     N_3   0.891582 0.904124 0.391129 -0.385468
H23   H     H_    0.906994 0.904639 0.273017 0.186664
H24   H     H_    0.904547 0.999988 0.450870 0.185273
N15   N     N_3   0.134218 0.864856 0.724268 -0.445580
H25   H     H_    0.158082 0.906765 0.634620 0.263367
H26   H     H_    0.153303 0.832880 0.829743 0.232490
N16   N     N_3   0.864983 0.127595 0.714052 -0.445103
H27   H     H_    0.841505 0.086373 0.622762 0.264566
H28   H     H_    0.845456 0.158942 0.818724 0.231787

loop_
_geom_bond_atom_site_label_1
_geom_bond_atom_site_label_2
_geom_bond_distance
_ccdc_geom_bond_type
C25   N13   1.432921 S    
C39   H3    1.082169 S    
N15   H25   1.044395 S    
O3    C2    1.260550 A    
N9    H13   1.044951 S    
C11   C17   1.397299 A    
C32   C38   1.401601 A    
C7    N1    1.365330 A    
N8    H12   1.045181 S    
C8    N2    1.365333 A    
C19   C21   1.415996 A    
C22   C26   1.416376 A    
C32   C36   1.407586 A    
C14   N8    1.435743 S    
N12   H20   1.044875 S    
N5    H6    1.045108 S    
C7    C23   1.405983 A    
C8    C24   1.406148 A    
C5    C21   1.404638 A    
C20   C24   1.417445 A    
O7    Zn1   2.003423 S    
C5    O9    1.349115 S    
C28   N16   1.434364 S    
C28   C37   1.394437 A    
C10   C18   1.401285 A    
N6    H7    1.045093 S    
N1    C17   1.428610 S    
C27   N15   1.434391 S    
N13   H22   1.042040 S    
O3    Zn1   1.958469 S    
C6    O10   1.349113 S    
C16   N6    1.436435 S    
C5    N1    1.364060 A    
C12   C18   1.397639 A    
C6    N2    1.363860 A    
O4    Zn2   1.958470 S    
O2    C2    1.260571 A    
C12   N10   1.434908 S    
O5    C3    1.278112 A    
C31   C34   1.408675 A    
N9    H14   1.045105 S    
C9    C13   1.400074 A    
N8    H11   1.045028 S    
C11   C15   1.404644 A    
C12   C16   1.404069 A    
N10   H16   1.044934 S    
O8    Zn2   2.003425 S    
N7    H10   1.044829 S    
C37   H1    1.083109 S    
N12   H19   1.044958 S    
N10   H15   1.044935 S    
C31   C35   1.407671 A    
C10   N12   1.434715 S    
C33   C35   1.409695 A    
C33   C39   1.401906 A    
C34   C40   1.401950 A    
C40   H4    1.082129 S    
C13   C29   1.417192 A    
C19   C23   1.417473 A    
C25   C40   1.397833 A    
C26   C39   1.397785 A    
C27   C38   1.394426 A    
C34   C36   1.409725 A    
N11   H17   1.045583 S    
O5    Zn1   2.002984 S    
O6    C4    1.279954 A    
N14   H24   1.041981 S    
C1    C41   1.368338 S    
C20   C35   1.407492 A    
C4    C30   1.469756 S    
C32   C33   1.408443 A    
N11   H18   1.045655 S    
C10   C14   1.406527 A    
N16   H28   1.045337 S    
O1    C1    1.260552 A    
C3    C29   1.470671 S    
O1    Zn1   1.958485 S    
C38   H2    1.083160 S    
C15   N5    1.436616 S    
O6    Zn2   2.002981 S    
C8    O12   1.348216 S    
C16   C30   1.415403 A    
C14   C30   1.411785 A    
O4    C1    1.260575 A    
C11   N9    1.434950 S    
C23   C27   1.423785 A    
N15   H26   1.045357 S    
C31   C37   1.401567 A    
C2    C42   1.368329 S    
C20   C22   1.416002 A    
N7    H9    1.045540 S    
Zn1   N4    1.968684 S    
Zn2   N3    1.968684 S    
N14   H23   1.045517 S    
C26   N14   1.432956 S    
N5    H5    1.045212 S    
C21   C25   1.416631 A    
C41   C42   1.166675 T    
O2    Zn2   1.958484 S    
O7    C4    1.277191 A    
N2    C18   1.428362 S    
O8    C3    1.279554 A    
N3    N4    1.190359 T    
C24   C28   1.423804 A    
N6    H8    1.045106 S    
N16   H27   1.044424 S    
C15   C29   1.416738 A    
C9    C17   1.400844 A    
C19   C36   1.407425 A    
C9    N11   1.434284 S    
N13   H21   1.045571 S    
C6    C22   1.404439 A    
C13   N7    1.435312 S    
C7    O11   1.348196 S    
