data_mof_unit_64641.cif
_audit_creation_date              2012-12-10T17:12:01-0500
_audit_creation_method            fapswitch 2.2
_symmetry_space_group_name_H-M    P1
_symmetry_Int_Tables_number       1
_space_group_crystal_system       triclinic
_cell_length_a                    21.667382
_cell_length_b                    21.69451
_cell_length_c                    22.194902
_cell_angle_alpha                 59.28369
_cell_angle_beta                  118.584412
_cell_angle_gamma                 90.210642
_cell_volume                      7464.9763134

loop_
_atom_site_label
_atom_site_type_symbol
_atom_type_description
_atom_site_fract_x
_atom_site_fract_y
_atom_site_fract_z
_atom_type_partial_charge
C1    C     C_R   0.621514 0.498472 0.503154 0.864949
C2    C     C_R   0.804162 0.291245 0.678192 -0.142022
C3    C     C_R   0.862304 0.288721 0.667857 -0.137420
C4    C     C_R   0.418647 0.582081 0.337462 0.898145
C5    C     C_R   0.865553 0.354848 0.608984 -0.173967
C6    C     C_R   0.810583 0.424963 0.559385 0.099823
C7    C     C_R   0.748812 0.426476 0.565209 0.099778
C8    C     C_R   0.690286 0.495449 0.508827 -0.104480
C9    C     C_R   0.694997 0.562210 0.452441 -0.206201
C10   C     C_R   0.757042 0.561369 0.449661 -0.203442
C11   C     C_R   0.814664 0.493643 0.502705 -0.111867
C12   C     C_3   0.289084 0.712979 0.082083 0.205324
C13   C     C_3   0.708646 0.237830 0.029242 -0.160913
C14   C     C_3   0.713531 0.314411 0.970286 -0.161204
C15   C     C_1   0.626620 0.371529 0.751683 -0.186869
C16   C     C_R   0.378488 0.501525 0.496849 0.864964
C17   C     C_1   0.875683 0.124664 0.248385 -0.188009
C18   C     C_3   0.705245 0.211151 0.975313 -0.162617
C19   C     C_3   0.710911 0.286983 0.917915 0.205110
C20   C     C_3   0.790932 0.178094 0.030006 -0.166461
C21   C     C_3   0.793483 0.205617 0.082284 0.205913
C22   C     C_3   0.795758 0.254766 0.970919 -0.164857
C23   C     C_3   0.195709 0.722684 0.975094 -0.162569
C24   C     C_3   0.799142 0.281430 0.024864 -0.162246
C25   C     C_1   0.664837 0.332891 0.826869 -0.078376
C26   C     C_1   0.838732 0.161127 0.173269 -0.079366
C27   C     C_R   0.252299 0.640636 0.372534 -0.174086
C28   C     C_R   0.581353 0.417919 0.662537 0.898127
C29   C     C_R   0.195837 0.708747 0.321789 -0.142174
C30   C     C_R   0.137699 0.711279 0.332128 -0.137377
C31   C     C_R   0.134453 0.645155 0.391010 -0.173932
C32   C     C_R   0.189419 0.575038 0.440611 0.099815
C33   C     C_R   0.251189 0.573521 0.434785 0.099815
C34   C     C_3   0.206503 0.794292 0.917715 0.205781
C35   C     C_R   0.309716 0.504549 0.491174 -0.104494
C36   C     C_R   0.305006 0.437791 0.547566 -0.206192
C37   C     C_R   0.242960 0.438636 0.550345 -0.203420
C38   C     C_R   0.185338 0.506363 0.497296 -0.111868
C39   C     C_R   0.000063 0.879923 0.500494 0.862986
C40   C     C_3   0.290440 0.755399 0.971101 -0.160887
C41   C     C_R   0.080816 0.918545 0.662551 0.889635
C42   C     C_R   0.999931 0.119952 0.499495 0.862747
C43   C     C_R   0.919184 0.081307 0.337449 0.889592
C44   C     C_R   0.002150 0.621606 0.498142 0.875033
C45   C     C_3   0.205138 0.751873 0.028743 -0.165616
C46   C     C_R   0.879973 0.497434 0.500718 0.878947
C47   C     C_R   0.997864 0.378393 0.501853 0.874824
C48   C     C_R   0.120028 0.502576 0.499282 0.878898
C49   C     C_R   0.968352 0.897581 0.350219 -0.168425
C50   C     C_R   0.957722 0.905017 0.279640 -0.131803
C51   C     C_R   0.963181 0.841740 0.279032 -0.162452
C52   C     C_3   0.299881 0.784605 0.024718 -0.161746
C53   C     C_R   0.978126 0.770987 0.348400 -0.187919
C54   C     C_R   0.987861 0.761601 0.420996 0.109729
C55   C     C_R   0.984576 0.826092 0.421832 0.097160
C56   C     C_3   0.215097 0.824339 0.969690 -0.166456
C57   C     C_R   0.996950 0.817792 0.494227 -0.085503
C58   C     C_R   0.009752 0.748942 0.563540 -0.219376
C59   C     C_R   0.012199 0.685935 0.563248 -0.195960
C60   C     C_R   0.001547 0.690861 0.493368 -0.127500
C61   C     C_R   0.031662 0.102366 0.649762 -0.168497
C62   C     C_R   0.042311 0.094933 0.720348 -0.132333
C63   C     C_R   0.036851 0.158213 0.720952 -0.162448
C64   C     C_1   0.373379 0.628469 0.248314 -0.186868
C65   C     C_R   0.021892 0.228967 0.651577 -0.187919
C66   C     C_R   0.012148 0.238356 0.578980 0.109882
C67   C     C_1   0.335161 0.667094 0.173129 -0.078370
C68   C     C_R   0.015425 0.173852 0.578141 0.097402
C69   C     C_R   0.003032 0.182131 0.505745 -0.085777
C70   C     C_R   0.990213 0.251002 0.436430 -0.219203
C71   C     C_R   0.987776 0.314024 0.436726 -0.195838
C72   C     C_R   0.998458 0.309111 0.506615 -0.127707
C73   C     C_1   0.124313 0.875200 0.751616 -0.188014
C74   C     C_3   0.280423 0.683026 0.030016 -0.161321
C75   C     C_1   0.161259 0.838754 0.826731 -0.079399
C76   C     C_R   0.747700 0.359356 0.627452 -0.174190
H1    H     H_    0.343383 0.809181 0.046673 0.134515
H2    H     H_    0.665953 0.183151 0.953386 0.134521
H3    H     H_    0.350142 0.385058 0.590617 0.158185
H4    H     H_    0.324607 0.757613 0.945882 0.136734
H5    H     H_    0.295964 0.641180 0.361680 0.150051
H6    H     H_    0.197614 0.759817 0.274915 0.134459
H7    H     H_    0.094787 0.764491 0.294108 0.136153
H8    H     H_    0.089548 0.649471 0.398503 0.134357
H9    H     H_    0.239577 0.386078 0.593596 0.160334
H10   H     H_    0.018953 0.743832 0.618648 0.145511
H11   H     H_    0.963251 0.948440 0.347785 0.138913
H12   H     H_    0.905218 0.235510 0.705875 0.136194
H13   H     H_    0.945489 0.960005 0.225408 0.131358
H14   H     H_    0.955635 0.847430 0.224344 0.129305
H15   H     H_    0.981928 0.725534 0.342282 0.160713
H16   H     H_    0.187445 0.883090 0.943233 0.128822
H17   H     H_    0.980994 0.256120 0.381313 0.145433
H18   H     H_    0.036759 0.051505 0.652200 0.138921
H19   H     H_    0.054557 0.039945 0.774587 0.131680
H20   H     H_    0.044404 0.152523 0.775643 0.129334
H21   H     H_    0.018078 0.274426 0.657686 0.160694
H22   H     H_    0.978215 0.366946 0.381920 0.170472
H23   H     H_    0.910466 0.350534 0.601500 0.134400
H24   H     H_    0.171021 0.749625 0.054026 0.132734
H25   H     H_    0.152215 0.698093 0.953154 0.134489
H26   H     H_    0.308007 0.624315 0.056316 0.136833
H27   H     H_    0.649861 0.614943 0.409395 0.158159
H28   H     H_    0.704034 0.358806 0.638305 0.150090
H29   H     H_    0.802384 0.240172 0.725059 0.134624
H30   H     H_    0.021744 0.633018 0.618050 0.170559
H31   H     H_    0.760425 0.613929 0.406414 0.160325
H32   H     H_    0.680998 0.371073 0.944233 0.136830
H33   H     H_    0.673737 0.230110 0.054744 0.136754
H34   H     H_    0.838422 0.309450 0.046769 0.134366
H35   H     H_    0.830624 0.262513 0.945362 0.133197
H36   H     H_    0.823520 0.121386 0.056217 0.128132
O1    O     O_R   0.591660 0.448290 0.500000 -0.623160
O2    O     O_R   0.034730 0.556800 0.569600 -0.617260
O3    O     O_R   0.873600 0.534810 0.430420 -0.616204
O4    O     O_R   0.591590 0.551700 0.500020 -0.619592
O5    O     O_R   0.943150 0.465220 0.569550 -0.629294
O6    O     O_R   0.965270 0.443220 0.430400 -0.617148
O7    O     O_R   0.034830 0.373630 0.569530 -0.642441
O8    O     O_R   0.056850 0.534790 0.430450 -0.629289
O9    O     O_R   0.126400 0.465210 0.569580 -0.616226
O10   O     O_R   0.438430 0.509910 0.376770 -0.609903
O11   O     O_R   0.438360 0.613320 0.376790 -0.627705
O12   O     O_R   0.948250 0.908380 0.499990 -0.617731
O13   O     O_R   0.408410 0.448300 0.499980 -0.619584
O14   O     O_R   0.408340 0.551710 0.500000 -0.623176
O15   O     O_R   0.561640 0.386680 0.623210 -0.627729
O16   O     O_R   0.561570 0.490090 0.623230 -0.609890
O17   O     O_R   0.051700 0.908270 0.500000 -0.620905
O18   O     O_R   0.113330 0.938270 0.623230 -0.611329
O19   O     O_R   0.009880 0.938380 0.623210 -0.623970
O20   O     O_R   0.051750 0.091470 0.500010 -0.617620
O21   O     O_R   0.948300 0.091580 0.500000 -0.620784
O22   O     O_R   0.990120 0.061470 0.376790 -0.623969
O23   O     O_R   0.886670 0.061580 0.376770 -0.611348
O24   O     O_R   0.965170 0.626380 0.430470 -0.642499
Zn1   Zn    Zn3+2 0.500040 0.430950 0.499990 0.956958
Zn2   Zn    Zn3+2 0.499960 0.569050 0.500010 0.956985
Zn3   Zn    Zn3+2 0.069070 0.999850 0.500010 0.961686
Zn4   Zn    Zn3+2 0.930930 0.000000 0.499990 0.961664
Zn5   Zn    Zn3+2 0.953560 0.546470 0.407100 0.943451
Zn6   Zn    Zn3+2 0.046440 0.453550 0.592900 0.943438

loop_
_geom_bond_atom_site_label_1
_geom_bond_atom_site_label_2
_ccdc_geom_bond_type
C76   H28   S    
C66   C68   A    
C21   C26   S    
C63   C65   A    
C34   C56   S    
C23   C45   S    
C12   C74   S    
C27   C29   A    
C1    C8    S    
C49   H11   S    
C35   C36   A    
O6    Zn5   S    
O3    Zn5   S    
C15   C28   S    
C7    C8    A    
C48   O8    A    
C54   C60   A    
C53   C54   A    
C27   C33   A    
O20   Zn3   S    
O11   Zn2   S    
C37   C38   A    
C13   C18   S    
C42   O21   A    
C34   C40   S    
C17   C26   T    
O2    Zn6   S    
C22   C24   S    
C37   H9    S    
C36   C37   A    
C44   O24   A    
C51   H14   S    
C30   C31   A    
C15   C25   T    
C23   H25   S    
C54   C55   A    
C39   C57   S    
C18   C19   S    
C14   C24   S    
C30   H7    S    
O16   Zn2   S    
C13   H33   S    
O19   Zn4   S    
C20   H36   S    
C47   O6    A    
C66   C72   A    
C5    H23   S    
C45   C56   S    
C68   C69   A    
C53   H15   S    
C40   H4    S    
C70   C71   A    
C1    O4    A    
C32   C38   A    
C29   C30   A    
C9    C10   A    
C38   C48   S    
C28   O15   A    
C18   H2    S    
C34   C75   S    
C74   H26   S    
C47   O7    A    
C44   O2    A    
C59   C60   A    
C13   C14   S    
C73   C75   T    
C10   H31   S    
C61   C62   A    
C1    O1    A    
O18   Zn3   S    
C58   H10   S    
C12   C52   S    
O4    Zn2   S    
O23   Zn4   S    
C12   C67   S    
C59   H30   S    
C4    O10   A    
C64   C67   T    
C27   H5    S    
C70   H17   S    
C24   H34   S    
C6    C11   A    
C41   O19   A    
C61   H18   S    
C8    C9    A    
C39   O17   A    
O13   Zn1   S    
C58   C59   A    
C49   C55   A    
C63   H20   S    
C36   H3    S    
C42   C69   S    
C39   O12   A    
C46   O5    A    
C51   C53   A    
C43   O22   A    
C17   C43   S    
C62   C63   A    
C50   H13   S    
C31   C32   A    
O17   Zn3   S    
C9    H27   S    
C23   C34   S    
C19   C22   S    
C50   C51   A    
C13   C21   S    
C43   O23   A    
C6    C7    A    
C46   O3    A    
C20   C22   S    
C65   C66   A    
C55   C57   A    
O1    Zn1   S    
C23   C74   S    
C52   H1    S    
C48   O9    A    
O22   Zn3   S    
C2    C76   A    
C16   O13   A    
C71   H22   S    
O14   Zn2   S    
C3    H12   S    
C14   C19   S    
O12   Zn4   S    
O8    Zn5   S    
O10   Zn1   S    
C12   C45   S    
C3    C5    A    
C45   H24   S    
C7    C76   A    
C4    C64   S    
C2    H29   S    
C41   O18   A    
C22   H35   S    
C32   C33   A    
C2    C3    A    
C65   H21   S    
C29   H6    S    
C16   C35   S    
C40   C52   S    
O9    Zn6   S    
C61   C68   A    
C57   C58   A    
C5    C6    A    
C44   C60   S    
C14   H32   S    
C33   C35   A    
O24   Zn5   S    
C40   C74   S    
O5    Zn6   S    
C18   C20   S    
C69   C70   A    
C19   C25   S    
C47   C72   S    
C10   C11   A    
C31   H8    S    
C41   C73   S    
C52   C56   S    
C56   H16   S    
C71   C72   A    
C20   C21   S    
C4    O11   A    
O21   Zn4   S    
C49   C50   A    
C21   C24   S    
O7    Zn6   S    
C11   C46   S    
C42   O20   A    
O15   Zn1   S    
C62   H19   S    
C16   O14   A    
C28   O16   A    
