data_mof_unit_9053.cif
_audit_creation_date              2013-03-05T15:43:37-0500
_audit_creation_method            fapswitch 2.2
_symmetry_space_group_name_H-M    P1
_symmetry_Int_Tables_number       1
_space_group_crystal_system       triclinic
_cell_length_a                    8.4317
_cell_length_b                    15.175036
_cell_length_c                    18.828583
_cell_angle_alpha                 100.343275
_cell_angle_beta                  91.310629
_cell_angle_gamma                 99.287775
_cell_volume                      2335.5851396

loop_
_atom_site_label
_atom_site_type_symbol
_atom_site_description
_atom_site_fract_x
_atom_site_fract_y
_atom_site_fract_z
_atom_type_partial_charge
P1    P     P_3+3 0.038110 0.412300 0.335300 0.467324
O1    O     O_2   0.871030 0.438240 0.324420 -0.383125
O2    O     O_3   0.120590 0.445310 0.413740 -0.377313
O3    O     O_3   0.663040 0.605930 0.370050 -0.382242
O4    O     O_2   0.755085 0.535970 0.242845 -0.395260
O5    O     O_3   0.007124 0.295320 0.339060 -0.561725
O6    O     O_3   0.707266 0.702672 0.256733 -0.532548
C1    C     C_3   0.556626 0.818219 0.238476 -1.129422
H1    H     H_    0.656151 0.851428 0.209672 0.268254
H2    H     H_    0.473304 0.769103 0.198131 0.268525
P2    P     P_3+3 0.679950 0.711710 0.558590 0.436969
P3    P     P_3+3 0.136496 0.774975 0.412556 0.436880
O7    O     O_2   0.855660 0.723510 0.537160 -0.369783
O8    O     O_3   0.086340 0.654970 0.406630 -0.400196
O9    O     O_2   0.007734 0.818698 0.456875 -0.384966
O10   O     O_3   0.713224 0.746112 0.652717 -0.587498
O11   O     O_3   0.108494 0.801159 0.326771 -0.532223
C2    C     C_3   0.122828 0.724900 0.274126 0.501837
H3    H     H_    0.026349 0.666945 0.277967 0.165395
H4    H     H_    0.242490 0.704448 0.279997 0.020308
C3    C     C_3   0.104365 0.748358 0.199487 -1.009503
H5    H     H_    0.983254 0.765934 0.191324 0.284465
H6    H     H_    0.196935 0.807216 0.193776 0.259959
C4    C     C_3   0.082040 0.750760 0.668181 0.405371
H7    H     H_    0.094662 0.782311 0.619557 0.106499
H8    H     H_    0.965742 0.704596 0.663357 0.140328
C5    C     C_3   0.085052 0.828174 0.732281 -1.015976
H9    H     H_    0.059153 0.801329 0.782464 0.250587
H10   H     H_    0.204614 0.872808 0.739211 0.262681
H11   H     H_    0.991652 0.869269 0.722772 0.257852
Ba1   Ba    Ba6+2 0.854120 0.540280 0.465540 1.504880
C6    C     C_3   0.889822 0.234621 0.292613 0.647479
H12   H     H_    0.799176 0.270537 0.273520 0.052559
C7    C     C_3   0.964873 0.182230 0.227160 -0.765590
H13   H     H_    0.878270 0.120592 0.202215 0.192994
H14   H     H_    0.073577 0.157710 0.244533 0.218088
C8    C     C_3   0.630726 0.682047 0.689519 0.421522
H15   H     H_    0.636135 0.610928 0.663394 0.138354
H16   H     H_    0.506260 0.695063 0.693240 0.152532
C9    C     C_3   0.704673 0.696008 0.766158 -1.108367
H17   H     H_    0.832149 0.687233 0.765453 0.254844
H18   H     H_    0.641206 0.644216 0.795044 0.251030
H19   H     H_    0.696281 0.765035 0.796062 0.272411
P4    P     P_3+3 0.151600 0.587780 0.664700 0.432814
O12   O     O_2   0.318670 0.561790 0.675630 -0.373371
O13   O     O_3   0.069120 0.554770 0.586270 -0.425444
O14   O     O_3   0.526680 0.394150 0.629950 -0.387530
O15   O     O_3   0.213451 0.706103 0.674384 -0.591246
P5    P     P_3+3 0.060213 0.229626 0.594339 0.443018
O16   O     O_3   0.607620 0.388570 0.462320 -0.379407
O17   O     O_3   0.103380 0.345110 0.593380 -0.366287
O18   O     O_2   0.180790 0.184527 0.545413 -0.405355
O19   O     O_3   0.111363 0.213129 0.681428 -0.547373
Ba2   Ba    Ba6+2 0.335710 0.459790 0.534460 1.527544
P6    P     P_3+3 0.634776 0.595587 0.276995 0.423025
C10   C     C_3   0.622990 0.768745 0.293612 0.601528
H20   H     H_    0.518712 0.739936 0.322411 0.029109
H21   H     H_    0.489264 0.870603 0.266007 0.249825
O20   O     O_3   0.582100 0.611510 0.537680 -0.437304
C11   C     C_3   0.455639 0.270290 0.296582 0.440471
C12   C     C_3   0.414802 0.202485 0.223261 -0.593957
H22   H     H_    0.346829 0.137171 0.233387 0.205801
H23   H     H_    0.335175 0.230261 0.188624 0.173796
P7    P     P_3+3 0.516076 0.273253 0.441296 0.446737
O21   O     O_2   0.334040 0.276520 0.462890 -0.365693
O22   O     O_3   0.522330 0.226044 0.347576 -0.596122
H24   H     H_    0.118647 0.689358 0.157326 0.230386
C13   C     C_3   0.055389 0.276848 0.734589 0.563183
H25   H     H_    0.105809 0.347613 0.728768 0.119450
C14   C     C_3   0.114983 0.264314 0.809012 -0.998945
H26   H     H_    0.247985 0.274220 0.813250 0.295180
H27   H     H_    0.075759 0.315053 0.852239 0.226251
H28   H     H_    0.066509 0.194891 0.818032 0.252890
P8    P     P_3+3 0.555567 0.405202 0.723480 0.415201
C15   C     C_3   0.488438 0.229448 0.683376 0.426514
H29   H     H_    0.604692 0.231642 0.657512 0.017213
O23   O     O_2   0.428809 0.460846 0.757791 -0.380105
O24   O     O_3   0.496167 0.297405 0.745523 -0.577622
H30   H     H_    0.398099 0.238513 0.643150 0.176408
C16   C     C_3   0.438912 0.135414 0.703142 -0.626619
H31   H     H_    0.423383 0.082899 0.652943 0.186767
H32   H     H_    0.321763 0.131829 0.729008 0.252559
C17   C     C_R   0.994181 0.461552 0.048361 0.053722
C18   C     C_R   0.897368 0.419227 0.096969 -0.188249
C19   C     C_R   0.790854 0.406094 0.945584 -0.223443
C20   C     C_R   0.939075 0.458356 0.975364 0.049070
C21   C     C_R   0.730743 0.410509 0.877277 -0.186352
C22   C     C_R   0.820793 0.460629 0.831904 -0.003090
C23   C     C_R   0.974998 0.509830 0.858077 -0.009520
C24   C     C_R   0.032207 0.510605 0.930921 0.041625
C25   C     C_R   0.763054 0.460533 0.760466 0.182303
C26   C     C_R   0.868289 0.498607 0.713378 -0.498301
C27   C     C_R   0.022594 0.546564 0.736828 0.221652
C28   C     C_R   0.070313 0.559994 0.812312 -0.030580
C29   C     C_R   0.150033 0.508887 0.074212 -0.001013
C30   C     C_R   0.208300 0.506500 0.146226 0.016325
C31   C     C_R   0.107600 0.462465 0.193699 -0.053625
C32   C     C_R   0.952575 0.419972 0.167133 -0.065232
H33   H     H_    0.827920 0.491904 0.657400 0.186596
H34   H     H_    0.612570 0.372590 0.860803 0.190617
H35   H     H_    0.871154 0.383847 0.199320 0.147913
C33   C     C_R   0.202079 0.624860 0.845902 0.058239
C34   C     C_R   0.249666 0.629013 0.918220 -0.225624
C35   C     C_R   0.179806 0.565672 0.959362 0.050397
C36   C     C_R   0.246705 0.559501 0.029095 -0.011810
C37   C     C_R   0.407752 0.599372 0.055475 0.158749
C38   C     C_R   0.367414 0.547732 0.170546 -0.026675
C39   C     C_R   0.464888 0.590510 0.123589 -0.263679
C40   C     C_R   0.425159 0.545772 0.241450 0.172738
C41   C     C_R   0.322136 0.505327 0.288098 -0.499116
C42   C     C_R   0.165107 0.462183 0.265919 0.192119
H36   H     H_    0.589230 0.618699 0.138903 0.200079
H37   H     H_    0.366669 0.505344 0.342280 0.153921
H38   H     H_    0.715176 0.361740 0.974201 0.133475
H39   H     H_    0.775246 0.385654 0.083187 0.118516
H40   H     H_    0.335971 0.687592 0.942096 0.148986
C43   C     C_R   0.765636 0.236236 0.527386 -0.453408
C44   C     C_R   0.851884 0.180424 0.558927 0.228061
C45   C     C_R   0.781770 0.089654 0.561375 0.022925
C46   C     C_R   0.630501 0.050994 0.521543 -0.005727
C47   C     C_R   0.551521 0.110344 0.488114 -0.317361
C48   C     C_R   0.614145 0.202461 0.493682 0.319155
C49   C     C_R   0.399249 0.916939 0.476582 -0.316405
C50   C     C_R   0.342662 0.823422 0.455838 0.221269
C51   C     C_R   0.585551 0.791455 0.511620 0.300717
C52   C     C_R   0.649420 0.883490 0.522733 -0.330666
C53   C     C_R   0.558602 0.949906 0.508083 0.104867
C54   C     C_R   0.439258 0.762475 0.471941 -0.224346
H41   H     H_    0.316498 0.961588 0.467864 0.155441
H42   H     H_    0.771484 0.899340 0.540863 0.191233
H43   H     H_    0.443201 0.086184 0.454191 0.159551
H44   H     H_    0.819535 0.305763 0.526585 0.187099
N1    N     N_3   0.733811 0.832907 0.346837 -0.157557
H45   H     H_    0.673747 0.884610 0.371219 0.075362
H46   H     H_    0.828887 0.863586 0.320109 0.172177
N2    N     N_2   0.811870 0.168525 0.333962 -0.101038
H47   H     H_    0.716554 0.123006 0.306870 0.162978
C55   C     C_3   0.914778 0.123710 0.373412 -0.857315
H48   H     H_    0.839664 0.078673 0.404401 0.235529
H49   H     H_    0.999620 0.174174 0.412237 0.291434
H50   H     H_    0.982732 0.080647 0.335762 0.227396
N3    N     N_3   0.003975 0.236954 0.172115 -0.208937
H51   H     H_    0.107113 0.283895 0.190927 0.136798
H52   H     H_    0.035821 0.194668 0.126370 0.149181
N4    N     N_3   0.304866 0.295473 0.319541 -0.214421
H53   H     H_    0.242881 0.239872 0.338734 0.185717
H54   H     H_    0.325851 0.351704 0.361461 0.150745
N5    N     N_3   0.566893 0.350757 0.285846 -0.183814
H55   H     H_    0.521114 0.376402 0.243169 0.073206
H56   H     H_    0.574045 0.401593 0.331749 0.168543
N6    N     N_3   0.552080 0.183589 0.180809 -0.190909
H57   H     H_    0.626390 0.243594 0.174859 0.131478
H58   H     H_    0.615416 0.142654 0.205049 0.135091
N7    N     N_3   0.879720 0.262005 0.729486 -0.215239
H59   H     H_    0.846120 0.304035 0.695708 0.043547
H60   H     H_    0.834120 0.282599 0.779650 0.107767
N8    N     N_3   0.557986 0.114566 0.752420 -0.193677
H61   H     H_    0.575463 0.164910 0.799068 0.174135
H62   H     H_    0.667252 0.115232 0.727414 0.141976
N9    N     N_3   0.279610 0.694333 0.810548 -0.162786
H63   H     H_    0.267142 0.757242 0.841182 0.098141
H64   H     H_    0.401962 0.691351 0.811817 0.136318
N10   N     N_2   0.518988 0.646541 0.013972 -0.127934
H65   H     H_    0.590986 0.703314 0.043645 0.171766
C56   C     C_3   0.610643 0.589549 0.967921 -0.881289
H66   H     H_    0.683666 0.630287 0.933084 0.248006
H67   H     H_    0.528869 0.533186 0.932564 0.274268
H68   H     H_    0.692726 0.562151 0.001857 0.259717
N11   N     N_2   0.852246 0.045214 0.612004 -0.112788
H69   H     H_    0.774007 0.006884 0.640379 0.163046
C57   C     C_3   0.003638 0.013087 0.595931 -0.770157
H70   H     H_    0.996717 0.941975 0.604205 0.213584
H71   H     H_    0.101429 0.053102 0.634031 0.272335
H72   H     H_    0.035477 0.016140 0.539354 0.257601
N12   N     N_2   0.372642 0.670921 0.457666 -0.142439
H73   H     H_    0.442367 0.624968 0.436013 0.203763
C58   C     C_3   0.274662 0.647384 0.514216 -0.486594
H74   H     H_    0.206544 0.580751 0.492190 0.292407
H75   H     H_    0.188070 0.694201 0.528647 0.203327
H76   H     H_    0.344865 0.650267 0.564355 0.228932

loop_
_geom_bond_atom_site_label_1
_geom_bond_atom_site_label_2
_geom_bond_distance
_ccdc_geom_bond_type
O5    C6    1.403066 S    
C21   C22   1.400508 A    
C52   C53   1.420402 A    
C5    H10   1.110819 S    
C2    C3    1.521010 S    
C38   C40   1.417537 A    
N11   H69   1.030923 S    
C29   C30   1.440175 A    
C4    C5    1.522232 S    
O6    P6    1.752867 S    
O8    Ba1   2.790298 S    
C15   H29   1.102824 S    
C1    C10   1.530815 S    
C31   C32   1.398850 A    
C46   C53   1.529089 S    
C49   C50   1.402855 A    
N12   C58   1.423143 S    
Ba2   O21   2.862080 S    
C19   C20   1.411948 A    
P4    O12   1.541920 D    
C57   H71   1.103696 S    
N8    H61   1.045765 S    
C17   C18   1.411567 A    
C19   H38   1.076034 S    
P2    C51   1.882302 S    
C4    H8    1.100866 S    
P1    O1    1.541526 D    
C8    C9    1.523929 S    
C13   N7    1.460110 S    
C31   C42   1.434137 A    
O2    Ba2   2.829864 S    
P5    O19   1.757116 S    
C52   H42   1.052706 S    
P1    Ba1   3.410025 S    
O16   P7    1.765232 S    
C10   H20   1.114042 S    
C7    H13   1.111213 S    
Ba1   O20   2.947786 S    
C23   C28   1.427453 A    
C12   H23   1.106238 S    
O19   C13   1.407464 S    
O7    Ba1   2.862002 S    
C41   C42   1.397421 A    
C10   N1    1.462381 S    
P4    C27   1.889895 S    
C29   C36   1.428235 A    
C1    H21   1.111054 S    
C44   C45   1.417794 A    
C9    H19   1.110507 S    
N10   H65   1.032342 S    
C1    H1    1.111194 S    
C58   H75   1.103995 S    
P8    O23   1.549076 D    
P3    O11   1.750946 S    
C51   C54   1.392069 A    
C13   H25   1.114886 S    
N6    H57   1.044021 S    
P3    O9    1.546094 D    
C14   H26   1.106245 S    
C15   C16   1.534472 S    
N7    H60   1.042595 S    
O10   C8    1.398161 S    
C50   C54   1.393997 A    
C58   H76   1.093048 S    
C9    H18   1.109464 S    
C11   O22   1.420407 S    
C56   H67   1.111002 S    
C3    H5    1.110404 S    
C49   H41   1.077109 S    
C5    H11   1.110545 S    
N11   C57   1.457491 S    
C33   C34   1.398237 A    
O6    C10   1.412427 S    
C47   H43   1.075952 S    
P2    O20   1.585237 S    
C35   C36   1.441593 A    
N4    H54   1.041840 S    
P4    O13   1.578045 S    
N4    H53   1.044725 S    
Ba2   O20   2.832077 S    
C19   C21   1.388362 A    
C57   H72   1.111647 S    
P1    O5    1.766580 S    
C4    O15   1.401942 S    
C4    H7    1.106419 S    
N2    C55   1.452407 S    
C20   C24   1.418751 A    
C33   N9    1.425261 S    
C25   C26   1.400588 A    
C6    N2    1.461230 S    
C2    H3    1.111327 S    
P5    O17   1.734850 S    
Ba1   O13   2.829367 S    
C39   H36   1.078153 S    
O1    Ba1   2.844175 S    
P1    O2    1.578210 S    
P6    C40   1.864437 S    
C6    C7    1.548387 S    
P8    C25   1.873698 S    
C43   C48   1.389885 A    
C8    H15   1.111338 S    
P2    O10   1.757823 S    
C49   C53   1.430867 A    
N12   H73   1.019468 S    
P3    C50   1.879878 S    
C22   C25   1.419634 A    
C38   C39   1.394881 A    
P5    O18   1.546494 D    
C17   C29   1.421348 A    
C30   C31   1.425661 A    
O13   Ba2   2.953450 S    
C14   H28   1.110942 S    
O11   C2    1.405377 S    
C47   C48   1.396594 A    
C27   C28   1.437625 A    
O16   Ba2   2.946937 S    
C37   N10   1.421401 S    
N5    H55   1.045327 S    
O2    Ba1   2.952460 S    
C12   N6    1.458777 S    
C57   H70   1.110239 S    
C24   C35   1.416687 A    
N7    H59   1.042729 S    
C55   H49   1.109420 S    
C45   N11   1.432102 S    
O14   Ba2   2.801054 S    
C16   H32   1.109052 S    
C9    H17   1.104262 S    
C30   C38   1.413899 A    
P3    O8    1.784358 S    
O12   Ba2   2.844906 S    
C56   H68   1.108234 S    
C3    H6    1.109878 S    
O3    P6    1.738190 S    
N1    H45   1.045162 S    
N3    H52   1.045682 S    
C11   N4    1.439336 S    
Ba1   O16   2.832531 S    
N9    H64   1.039817 S    
C5    H9    1.106961 S    
C46   C47   1.424358 A    
C21   H34   1.075561 S    
C7    N3    1.452188 S    
C54   N12   1.387479 S    
N10   C56   1.440186 S    
O4    P6    1.542113 D    
C1    H2    1.108786 S    
O14   P8    1.746389 S    
N5    H56   1.043521 S    
C16   H31   1.111658 S    
C55   H50   1.109474 S    
C45   C46   1.445732 A    
C3    H24   1.109164 S    
C18   H39   1.076174 S    
C32   H35   1.075159 S    
C43   H44   1.082223 S    
C36   C37   1.432732 A    
O17   Ba2   2.790875 S    
C18   C32   1.388127 A    
N9    H63   1.045239 S    
C34   H40   1.074517 S    
C8    H16   1.100270 S    
C43   C44   1.399468 A    
C6    H12   1.096670 S    
P2    O7    1.535407 D    
C16   N8    1.460912 S    
C51   C52   1.389793 A    
C37   C39   1.396255 A    
P7    C48   1.854900 S    
P7    O21   1.602957 D    
C26   C27   1.403569 A    
C7    H14   1.107066 S    
C2    H4    1.111224 S    
N6    H58   1.037837 S    
Ba1   Ba2   4.646891 S    
C12   H22   1.112069 S    
C15   O24   1.406575 S    
O3    Ba1   2.801714 S    
C55   H48   1.108629 S    
P2    Ba1   3.421685 S    
P5    C44   1.852535 S    
P4    Ba2   3.410673 S    
C56   H66   1.110273 S    
C17   C20   1.430686 A    
C22   C23   1.419874 A    
C28   C33   1.412291 A    
N8    H62   1.043597 S    
C58   H74   1.084151 S    
P8    O24   1.757231 S    
C41   H37   1.078932 S    
C34   C35   1.405849 A    
N1    H46   1.046304 S    
C13   C14   1.531843 S    
N3    H51   1.041383 S    
C11   C12   1.561083 S    
C14   H27   1.110919 S    
C11   N5    1.462681 S    
C23   C24   1.440872 A    
C40   C41   1.399676 A    
C15   H30   1.103459 S    
P1    C42   1.893054 S    
N2    H47   1.028967 S    
P4    O15   1.762129 S    
C26   H33   1.082143 S    
P7    O22   1.786720 S    
