data_mof_unit_41808.cif
_audit_creation_date              2012-12-10T17:34:25-0500
_audit_creation_method            fapswitch 2.2
_symmetry_space_group_name_H-M    P1
_symmetry_Int_Tables_number       1
_space_group_crystal_system       triclinic
_cell_length_a                    12.688332
_cell_length_b                    13.164244
_cell_length_c                    14.31934
_cell_angle_alpha                 72.256555
_cell_angle_beta                  102.814095
_cell_angle_gamma                 118.074227
_cell_volume                      2001.22340346

loop_
_atom_site_label
_atom_site_type_symbol
_atom_type_description
_atom_site_fract_x
_atom_site_fract_y
_atom_site_fract_z
_atom_type_partial_charge
C1    C     C_R   0.856224 0.284618 0.505765 0.903529
C2    C     C_1   0.993115 0.500640 0.227662 -0.141242
C3    C     C_R   0.306404 0.023948 0.337618 -0.235327
C4    C     C_R   0.228546 0.845309 0.465335 -0.240812
C5    C     C_R   0.819622 0.064550 0.539612 0.270285
C6    C     C_R   0.733214 0.945755 0.568780 0.332815
C7    C     C_R   0.611798 0.920704 0.568707 0.374609
C8    C     C_R   0.569582 0.004508 0.507032 -0.036859
C9    C     C_R   0.658944 0.118014 0.465838 -0.036489
C10   C     C_R   0.446083 0.977098 0.470774 -0.033528
C11   C     C_R   0.423556 0.047699 0.378538 -0.069610
C12   C     C_R   0.003016 0.500520 0.668766 0.861050
C13   C     C_R   0.517803 0.145389 0.328713 0.508727
C14   C     C_R   0.632652 0.185213 0.375972 -0.153052
C15   C     C_R   0.343841 0.881025 0.517340 0.428237
C16   C     C_R   0.208646 0.927843 0.381785 0.324987
C17   C     C_R   0.778786 0.155018 0.505646 -0.241168
C18   C     C_R   0.370891 0.359725 0.672510 0.394604
C19   C     C_R   0.747742 0.624972 0.354685 0.522288
C20   C     C_R   0.637965 0.626171 0.309491 0.145659
C21   C     C_R   0.533829 0.537972 0.353647 0.533957
C22   C     C_R   0.543146 0.509413 0.456993 -0.127376
C23   C     C_R   0.144871 0.716114 0.486867 0.862948
C24   C     C_R   0.654918 0.505515 0.503749 -0.105094
C25   C     C_R   0.446140 0.475602 0.515449 -0.195283
C26   C     C_R   0.467099 0.431774 0.616627 -0.302669
C27   C     C_R   0.583897 0.451253 0.659308 0.396126
C28   C     C_R   0.659980 0.448625 0.605339 0.363192
C29   C     C_R   0.336670 0.493222 0.485031 0.512650
C30   C     C_R   0.263240 0.370154 0.644065 0.426403
C31   C     C_R   0.997613 0.500640 0.331036 0.790214
C32   C     C_1   0.006458 0.499449 0.772250 -0.048393
C33   C     C_1   0.005136 0.499180 0.857649 0.043751
C34   C     C_1   0.001156 0.499380 0.957634 0.032033
C35   C     C_1   0.997342 0.499784 0.042307 0.038906
C36   C     C_1   0.993765 0.500312 0.142292 0.030746
Cu1   Cu    Cu3+1 0.098280 0.475420 0.520190 1.135220
Cu2   Cu    Cu3+1 0.901720 0.524580 0.479810 1.064726
H1    H     H_    0.289940 0.083177 0.270933 0.211669
H2    H     H_    0.704156 0.262415 0.337213 0.129008
N1    N     N_R   0.246290 0.438200 0.550780 -0.314301
N2    N     N_R   0.754310 0.561180 0.449760 -0.245317
O1    O     O_R   0.972510 0.318130 0.525390 -0.494845
O2    O     O_R   0.806530 0.359650 0.491290 -0.506449
O3    O     O_R   0.083010 0.479240 0.641000 -0.502578
O4    O     O_R   0.917030 0.520750 0.606900 -0.546861
O5    O     O_R   0.193470 0.640350 0.508710 -0.529317
O6    O     O_R   0.027490 0.681870 0.474610 -0.505498
O7    O     O_R   0.082970 0.479250 0.393100 -0.466645
O8    O     O_R   0.916990 0.520760 0.359000 -0.577052
S1    S     S_3+6 0.068984 0.930345 0.333045 0.045384
O9    O     O_2   0.973586 0.853784 0.402471 -0.228641
O10   O     O_2   0.083675 0.055200 0.312094 -0.240989
O11   O     O_3   0.028233 0.888603 0.225884 -0.528894
H3    H     H_    0.087385 0.952660 0.180656 0.347767
S2    S     S_3+6 0.635262 0.477031 0.779292 0.070539
O12   O     O_2   0.560031 0.521249 0.807929 -0.255901
O13   O     O_2   0.628811 0.365577 0.853116 -0.183737
O14   O     O_3   0.778697 0.579933 0.778987 -0.549095
H4    H     H_    0.801319 0.593132 0.846557 0.372463
O15   O     O_3   0.383130 0.275893 0.754721 -0.468058
C37   C     C_3   0.330411 0.165178 0.728924 -0.082248
H5    H     H_    0.361002 0.170818 0.659622 0.116717
H6    H     H_    0.231210 0.127262 0.720832 0.185751
H7    H     H_    0.356014 0.102035 0.788963 0.194510
S3    S     S_3+6 0.328319 0.598867 0.368424 0.022283
O16   O     O_2   0.451546 0.687264 0.340523 -0.365115
O17   O     O_2   0.261599 0.529101 0.291254 -0.260138
O18   O     O_3   0.262134 0.686553 0.355633 -0.545218
H8    H     H_    0.262636 0.728004 0.285072 0.359934
O19   O     O_3   0.848786 0.683204 0.303192 -0.482671
C38   C     C_3   0.823778 0.659133 0.208420 -0.090141
H9    H     H_    0.797593 0.724478 0.152164 0.200220
H10   H     H_    0.755472 0.567049 0.206890 0.084841
H11   H     H_    0.907479 0.670493 0.185951 0.170200
O20   O     O_3   0.427162 0.472126 0.303055 -0.554322
C39   C     C_3   0.424232 0.509093 0.199032 -0.087089
H12   H     H_    0.502565 0.515854 0.170923 0.117604
H13   H     H_    0.416855 0.594247 0.172186 0.243701
H14   H     H_    0.342705 0.442220 0.167241 0.164804
O21   O     O_3   0.630561 0.705140 0.221303 -0.605933
C40   C     C_3   0.690522 0.821932 0.234988 -0.159669
H15   H     H_    0.789335 0.854849 0.241139 0.229485
H16   H     H_    0.663856 0.830089 0.300280 0.160591
H17   H     H_    0.666051 0.880699 0.169455 0.196414
S4    S     S_3+6 0.650605 0.302389 0.641029 0.042428
O22   O     O_2   0.770640 0.300773 0.671936 -0.253248
O23   O     O_2   0.578165 0.227966 0.727301 -0.270494
O24   O     O_3   0.580809 0.237900 0.546227 -0.550042
H18   H     H_    0.500550 0.237131 0.534327 0.326509
O25   O     O_3   0.499695 0.193208 0.229620 -0.566637
C41   C     C_3   0.501056 0.303294 0.218783 -0.291603
H19   H     H_    0.591000 0.368523 0.242204 0.142193
H20   H     H_    0.431497 0.293741 0.260567 0.192732
H21   H     H_    0.479531 0.337741 0.139655 0.215225
O26   O     O_3   0.349401 0.829885 0.616877 -0.547676
C42   C     C_3   0.354283 0.907675 0.668856 -0.209155
H22   H     H_    0.275145 0.928019 0.646129 0.124540
H23   H     H_    0.438878 0.990898 0.659580 0.212268
H24   H     H_    0.352701 0.863987 0.748449 0.199154
S5    S     S_3+6 0.971207 0.095261 0.532145 0.059847
O27   O     O_2   0.014148 0.184019 0.437579 -0.230193
O28   O     O_2   0.049071 0.146511 0.616271 -0.287604
O29   O     O_3   0.991956 0.976707 0.537020 -0.467063
H25   H     H_    0.012704 0.946459 0.607476 0.366564
O30   O     O_3   0.542113 0.822061 0.635213 -0.497032
C43   C     C_3   0.492142 0.719533 0.598360 -0.083988
H26   H     H_    0.550917 0.673609 0.624144 0.184312
H27   H     H_    0.472340 0.737452 0.516900 0.138896
H28   H     H_    0.405952 0.657249 0.630529 0.211974
O31   O     O_3   0.766986 0.854167 0.600800 -0.525427
C44   C     C_3   0.753618 0.808095 0.519093 -0.187460
H29   H     H_    0.794275 0.878331 0.453583 0.200590
H30   H     H_    0.658755 0.755445 0.495649 0.099619
H31   H     H_    0.798825 0.748812 0.540643 0.221702
S6    S     S_3+6 0.173814 0.319452 0.746026 0.095022
O32   O     O_2   0.041013 0.271829 0.717778 -0.226820
O33   O     O_2   0.193777 0.223617 0.825994 -0.249745
O34   O     O_3   0.220302 0.435291 0.796577 -0.534127
H32   H     H_    0.188106 0.400783 0.861796 0.366818

loop_
_geom_bond_atom_site_label_1
_geom_bond_atom_site_label_2
_ccdc_geom_bond_type
S3    O17   D    
Cu1   O1    S    
S5    O27   D    
C24   N2    A    
C6    O31   S    
C19   O19   S    
C35   C36   S    
C18   C26   A    
C16   S1    S    
C44   H30   S    
O21   C40   S    
C7    C8    A    
C30   S6    S    
C39   H12   S    
S6    O32   D    
C21   O20   S    
C26   C27   A    
C37   H5    S    
O31   C44   S    
Cu2   N2    S    
C10   C15   A    
C5    C6    A    
S4    O23   D    
S3    O18   S    
C5    C17   A    
O30   C43   S    
S2    O12   D    
C34   C35   T    
C44   H29   S    
C37   H6    S    
C1    O1    A    
C19   C20   A    
S6    O33   D    
C8    C9    A    
C22   C25   A    
C43   H26   S    
C30   N1    A    
C18   C30   A    
Cu1   O5    S    
Cu2   O6    S    
C19   N2    A    
S3    O16   D    
C3    H1    S    
O14   H4    S    
S5    O28   D    
C21   C22   A    
C12   C32   S    
C43   H27   S    
O15   C37   S    
C31   O7    A    
C38   H11   S    
O29   H25   S    
C42   H23   S    
C42   H22   S    
C39   H13   S    
C25   C29   A    
C5    S5    S    
C23   O5    A    
S1    O9    D    
O20   C39   S    
C38   H10   S    
O25   C41   S    
C4    C23   S    
C27   S2    S    
C12   O3    A    
C25   C26   A    
C41   H21   S    
C2    C31   S    
S1    O10   D    
C12   O4    A    
C4    C16   A    
C9    C14   A    
Cu2   O2    S    
Cu1   Cu2   S    
Cu1   O7    S    
C1    O2    A    
O26   C42   S    
C41   H20   S    
C33   C34   S    
C7    O30   S    
C9    C17   A    
S5    O29   S    
C40   H16   S    
C28   S4    S    
C43   H28   S    
C22   C24   A    
C31   O8    A    
Cu1   O3    S    
C15   O26   S    
C42   H24   S    
C39   H14   S    
C2    C36   T    
O11   H3    S    
C23   O6    A    
C37   H7    S    
C29   N1    A    
S4    O22   D    
C24   C28   A    
C38   H9    S    
S4    O24   S    
O34   H32   S    
S6    O34   S    
C18   O15   S    
C6    C7    A    
Cu2   O8    S    
C40   H17   S    
C1    C17   S    
S2    O14   S    
S1    O11   S    
C32   C33   T    
C4    C15   A    
O19   C38   S    
C11   C13   A    
C41   H19   S    
S2    O13   D    
Cu1   N1    S    
O18   H8    S    
Cu2   O4    S    
C3    C11   A    
C10   C11   A    
C14   H2    S    
C29   S3    S    
C20   C21   A    
C8    C10   A    
C40   H15   S    
C27   C28   A    
O24   H18   S    
C13   C14   A    
C44   H31   S    
C13   O25   S    
C3    C16   A    
C20   O21   S    
