data_mof_unit_42965.cif
_audit_creation_date              2012-12-10T17:54:27-0500
_audit_creation_method            fapswitch 2.2
_symmetry_space_group_name_H-M    P1
_symmetry_Int_Tables_number       1
_space_group_crystal_system       triclinic
_cell_length_a                    27.739077
_cell_length_b                    10.717329
_cell_length_c                    9.87775
_cell_angle_alpha                 88.877032
_cell_angle_beta                  89.723217
_cell_angle_gamma                 91.927494
_cell_volume                      2934.27509108

loop_
_atom_site_label
_atom_site_type_symbol
_atom_type_description
_atom_site_fract_x
_atom_site_fract_y
_atom_site_fract_z
_atom_type_partial_charge
C1    C     C_R   0.502670 0.259693 0.502376 0.873044
C2    C     C_R   0.972772 0.383208 0.475154 0.045838
C3    C     C_R   0.976155 0.608829 0.523210 0.046642
C4    C     C_R   0.406057 0.499270 0.500314 0.846950
C5    C     C_R   0.949248 0.496550 0.498581 0.071224
C6    C     C_R   0.944191 0.272640 0.459283 -0.215552
C7    C     C_R   0.894248 0.274511 0.460303 -0.133417
C8    C     C_R   0.870892 0.386312 0.477916 -0.022738
C9    C     C_R   0.898194 0.497623 0.497472 -0.051514
C10   C     C_R   0.874313 0.609995 0.516064 -0.022144
C11   C     C_R   0.823886 0.608873 0.514985 0.506232
C12   C     C_R   0.277946 0.490807 0.625291 -0.102578
C13   C     C_R   0.820524 0.389394 0.477886 0.505654
C14   C     C_R   0.721916 0.492246 0.375134 -0.099030
C15   C     C_R   0.671844 0.492600 0.375758 -0.197869
C16   C     C_R   0.494955 0.738716 0.499261 0.899212
C17   C     C_R   0.672153 0.508866 0.620890 -0.210649
C18   C     C_R   0.722229 0.508881 0.619818 -0.098727
C19   C     C_R   0.747024 0.500359 0.497071 0.319800
C20   C     C_R   0.023828 0.383733 0.469437 0.046226
C21   C     C_R   0.050665 0.494425 0.501186 0.071004
C22   C     C_R   0.027070 0.606132 0.531697 0.045534
C23   C     C_R   0.252945 0.491828 0.502815 0.323671
C24   C     C_R   0.049200 0.277285 0.431845 -0.216763
C25   C     C_R   0.105315 0.708752 0.573805 -0.136353
C26   C     C_R   0.951020 0.720601 0.537414 -0.215843
C27   C     C_R   0.901076 0.720820 0.534297 -0.135968
C28   C     C_R   0.593949 0.500369 0.499673 0.893008
C29   C     C_R   0.055414 0.711408 0.570972 -0.216463
C30   C     C_R   0.502691 0.104439 0.763600 -0.157353
C31   C     C_R   0.484810 0.039204 0.877772 -0.146251
C32   C     C_R   0.459915 0.925775 0.863053 -0.156435
C33   C     C_R   0.457378 0.871868 0.736050 -0.143671
C34   C     C_R   0.101721 0.493447 0.502344 -0.051770
C35   C     C_R   0.479675 0.932119 0.621827 0.096563
C36   C     C_R   0.495736 0.056516 0.631733 0.100498
C37   C     C_R   0.504218 0.125528 0.508682 -0.122612
C38   C     C_R   0.506711 0.064997 0.384850 -0.225030
C39   C     C_R   0.500477 0.938093 0.380804 -0.196655
C40   C     C_R   0.176225 0.386252 0.468424 0.502258
C41   C     C_R   0.488527 0.870932 0.499171 -0.132103
C42   C     C_R   0.436134 0.336418 0.144084 -0.171074
C43   C     C_R   0.404206 0.255104 0.075956 0.164671
C44   C     C_R   0.404344 0.258314 0.935096 -0.268152
C45   C     C_R   0.125782 0.384913 0.467332 -0.020256
C46   C     C_R   0.436016 0.338390 0.863431 -0.195408
C47   C     C_R   0.468444 0.419993 0.929609 0.152764
C48   C     C_R   0.468466 0.419587 0.074176 0.094797
C49   C     C_R   0.530017 0.577498 0.069095 0.014185
C50   C     C_R   0.529963 0.577122 0.925695 -0.153610
C51   C     C_R   0.179202 0.598220 0.538448 0.503961
C52   C     C_R   0.277910 0.494801 0.379518 -0.100522
C53   C     C_R   0.327996 0.497568 0.378487 -0.235847
C54   C     C_R   0.328035 0.493184 0.624664 -0.223856
C55   C     C_1   0.562628 0.662176 0.137001 0.214227
C56   C     C_R   0.099187 0.278060 0.431187 -0.138855
C57   C     C_3   0.369454 0.162659 0.147184 -0.403922
C58   C     C_3   0.372213 0.157493 0.301841 -0.855468
C59   C     C_R   0.128844 0.601072 0.538354 -0.021596
C60   C     C_R   0.353394 0.496941 0.501154 -0.040724
C61   C     C_R   0.646620 0.500647 0.498776 -0.046247
H1    H     H_    0.346794 0.492179 0.720581 0.165488
H2    H     H_    0.523512 0.189060 0.782267 0.175099
H3    H     H_    0.489528 0.077966 0.977452 0.146864
H4    H     H_    0.258478 0.488353 0.720654 0.138728
H5    H     H_    0.444127 0.877428 0.950623 0.138652
H6    H     H_    0.438079 0.782883 0.728147 0.159197
H7    H     H_    0.506107 0.892612 0.285261 0.176887
H8    H     H_    0.435060 0.333218 0.250977 0.224329
H9    H     H_    0.380205 0.196443 0.879743 0.164795
H10   H     H_    0.434570 0.331971 0.756201 0.221189
H11   H     H_    0.554274 0.639788 0.868795 0.158482
H12   H     H_    0.258423 0.495812 0.284789 0.139418
H13   H     H_    0.116923 0.194109 0.401844 0.190499
H14   H     H_    0.652980 0.486185 0.280270 0.165707
H15   H     H_    0.741283 0.485816 0.280204 0.139663
H16   H     H_    0.873980 0.187381 0.447438 0.193149
H17   H     H_    0.959190 0.181971 0.448744 0.140062
H18   H     H_    0.031596 0.192093 0.399242 0.142049
H19   H     H_    0.346732 0.499983 0.281952 0.169109
H20   H     H_    0.408785 0.131804 0.335036 0.258286
H21   H     H_    0.362899 0.248526 0.344782 0.260655
H22   H     H_    0.345940 0.085352 0.341901 0.270557
H23   H     H_    0.125411 0.791964 0.604092 0.192065
H24   H     H_    0.332042 0.185490 0.118285 0.222606
H25   H     H_    0.376383 0.067681 0.109800 0.210675
H26   H     H_    0.968836 0.810621 0.548291 0.139568
H27   H     H_    0.653536 0.515416 0.716994 0.162788
H28   H     H_    0.883509 0.808758 0.546230 0.190362
H29   H     H_    0.741841 0.515059 0.714114 0.139463
H30   H     H_    0.040200 0.797099 0.603185 0.142785
H31   H     H_    0.514025 0.115487 0.290421 0.176319
N1    N     N_R   0.201615 0.491929 0.503580 -0.357842
N2    N     N_R   0.798324 0.499570 0.496369 -0.358972
N3    N     N_R   0.499540 0.498800 0.142780 -0.138030
N4    N     N_R   0.499520 0.498720 0.857170 -0.126229
N5    N     N_1   0.588962 0.730530 0.191163 -0.202153
O1    O     O_R   0.500000 0.316780 0.614690 -0.652580
O2    O     O_R   0.571250 0.499990 0.614680 -0.620404
O3    O     O_R   0.571240 0.499970 0.385350 -0.612229
O4    O     O_2   0.199811 0.282880 0.435401 -0.558785
O5    O     O_2   0.793840 0.283320 0.460335 -0.547656
O6    O     O_2   0.205680 0.700943 0.571912 -0.556757
O7    O     O_2   0.800471 0.715916 0.531971 -0.547149
O8    O     O_R   0.500000 0.316750 0.385360 -0.641815
O9    O     O_R   0.428760 0.500030 0.614650 -0.646726
O10   O     O_R   0.428750 0.500010 0.385320 -0.643662
O11   O     O_R   0.500000 0.683250 0.614640 -0.621311
O12   O     O_R   0.500000 0.683220 0.385310 -0.613400
Zn1   Zn    Zn3+2 0.500000 0.500020 0.653130 0.929913
Zn2   Zn    Zn3+2 0.500000 0.499980 0.346870 0.945353

loop_
_geom_bond_atom_site_label_1
_geom_bond_atom_site_label_2
_ccdc_geom_bond_type
C10   C27   A    
C15   H14   S    
C8    C13   A    
O1    Zn1   S    
C48   N3    A    
C17   H27   S    
C39   H7    S    
C35   C36   A    
C40   N1    A    
C23   C52   A    
C7    C8    A    
C39   C41   A    
C54   C60   A    
C12   C23   A    
C33   H6    S    
C26   C27   A    
C36   C37   A    
C22   C29   A    
O12   Zn2   S    
C30   C31   A    
C31   C32   A    
C6    H17   S    
C51   O6    S    
C38   H31   S    
C57   H25   S    
C18   C19   A    
C50   H11   S    
C17   C61   A    
C40   O4    S    
C20   C24   A    
C45   C56   A    
C57   H24   S    
C26   H26   S    
C25   H23   S    
C47   N4    A    
C44   H9    S    
C11   O7    S    
C9    C10   A    
C1    C37   S    
C7    H16   S    
C28   C61   S    
C28   O3    A    
O8    Zn2   S    
C30   H2    S    
C4    C60   S    
C2    C6    A    
C14   C19   A    
C53   C60   A    
C44   C46   A    
C16   O12   A    
C25   C29   A    
C40   C45   A    
C4    O10   A    
C56   H13   S    
C2    C20   A    
C18   H29   S    
C53   H19   S    
C52   H12   S    
C58   H20   S    
C43   C57   S    
C8    C9    A    
C21   C34   A    
C54   H1    S    
C49   C55   S    
O2    Zn1   S    
C4    O9    A    
C42   H8    S    
C23   N1    S    
C14   H15   S    
C43   C44   A    
C5    C9    A    
C37   C38   A    
C24   H18   S    
C47   C48   A    
C55   N5    T    
C17   C18   A    
C15   C61   A    
C34   C45   A    
C42   C48   A    
C49   N3    A    
C46   H10   S    
C19   N2    S    
C51   N1    A    
C28   O2    A    
C34   C59   A    
C2    C5    A    
C51   C59   A    
C42   C43   A    
C29   H30   S    
C52   C53   A    
C11   N2    A    
C32   H5    S    
O9    Zn1   S    
C46   C47   A    
O10   Zn2   S    
C31   H3    S    
C3    C26   A    
C3    C5    A    
C1    O1    A    
C6    C7    A    
C24   C56   A    
C12   H4    S    
C30   C36   A    
C13   N2    A    
C32   C33   A    
C58   H21   S    
N3    Zn2   S    
C58   H22   S    
C50   N4    A    
C57   C58   S    
C38   C39   A    
N4    Zn1   S    
C33   C35   A    
O11   Zn1   S    
C27   H28   S    
C35   C41   A    
C10   C11   A    
C16   O11   A    
C20   C21   A    
O3    Zn2   S    
C49   C50   A    
C14   C15   A    
C3    C22   A    
C25   C59   A    
C13   O5    S    
C21   C22   A    
C16   C41   S    
C12   C54   A    
C1    O8    A    
