data_mof_unit_65065.cif
_audit_creation_date              2012-12-10T18:35:27-0500
_audit_creation_method            fapswitch 2.2
_symmetry_space_group_name_H-M    P1
_symmetry_Int_Tables_number       1
_space_group_crystal_system       triclinic
_cell_length_a                    15.149421
_cell_length_b                    15.544782
_cell_length_c                    16.956939
_cell_angle_alpha                 89.078892
_cell_angle_beta                  99.303772
_cell_angle_gamma                 98.190745
_cell_volume                      3900.4365175

loop_
_atom_site_label
_atom_site_type_symbol
_atom_type_description
_atom_site_fract_x
_atom_site_fract_y
_atom_site_fract_z
_atom_type_partial_charge
C1    C     C_R   0.556862 0.661758 0.511133 0.894009
C2    C     C_R   0.471572 0.188015 0.489021 -0.166133
C3    C     C_R   0.553011 0.900643 0.511159 0.080711
C4    C     C_R   0.445839 0.099550 0.476750 0.081925
C5    C     C_R   0.646097 0.934181 0.520717 0.067799
C6    C     C_R   0.352660 0.066467 0.467826 0.068915
C7    C     C_R   0.486231 0.956130 0.502597 -0.049217
C8    C     C_R   0.512064 0.043581 0.483484 -0.049003
C9    C     C_R   0.603662 0.072758 0.474082 0.122785
C10   C     C_R   0.394451 0.926910 0.511633 0.121375
C11   C     C_R   0.671537 0.022063 0.503445 0.124376
C12   C     C_R   0.443154 0.338293 0.488033 0.890091
C13   C     C_R   0.326857 0.978111 0.482890 0.123346
C14   C     C_R   0.179112 0.661373 0.412014 -0.272169
C15   C     C_R   0.821074 0.337796 0.584804 -0.272696
C16   C     C_R   0.510308 0.495934 0.350085 0.884460
C17   C     C_R   0.488219 0.500067 0.649861 0.876969
C18   C     C_R   0.256906 0.624444 0.410173 0.282948
C19   C     C_R   0.743096 0.373910 0.587436 0.281238
C20   C     C_R   0.203798 0.504590 0.487831 0.187429
C21   C     C_R   0.796007 0.495989 0.512078 0.187391
C22   C     C_R   0.116987 0.531269 0.475888 -0.046050
C23   C     C_R   0.590708 0.754454 0.517633 -0.065576
C24   C     C_R   0.882942 0.469411 0.522942 -0.045868
C25   C     C_R   0.110931 0.616908 0.448964 0.099132
C26   C     C_R   0.889176 0.383390 0.548774 0.098920
C27   C     C_R   0.037881 0.480005 0.494603 0.097518
C28   C     C_R   0.961882 0.520840 0.503673 0.097333
C29   C     C_R   0.969532 0.611878 0.497186 -0.185557
C30   C     C_R   0.030196 0.388984 0.500157 -0.185567
C31   C     C_R   0.038755 0.657892 0.462651 -0.128962
C32   C     C_R   0.961079 0.342571 0.534260 -0.130504
C33   C     C_R   0.511360 0.482555 0.265692 -0.041371
C34   C     C_R   0.409139 0.245899 0.477773 -0.063800
C35   C     C_R   0.476026 0.481678 0.732234 -0.043856
C36   C     C_R   0.436537 0.496279 0.209137 -0.179655
C37   C     C_R   0.538512 0.437617 0.780828 -0.173348
C38   C     C_R   0.434233 0.476177 0.129564 -0.137663
C39   C     C_R   0.521196 0.406400 0.854171 -0.135084
C40   C     C_R   0.506523 0.441329 0.105997 0.191211
C41   C     C_R   0.444169 0.424533 0.882944 0.188963
C42   C     C_R   0.581953 0.429243 0.162070 -0.156441
C43   C     C_R   0.381223 0.468548 0.834963 -0.148700
C44   C     C_R   0.584395 0.449450 0.241654 -0.146732
C45   C     C_R   0.710330 0.876342 0.539036 -0.128950
C46   C     C_R   0.396998 0.497037 0.759653 -0.144218
C47   C     C_2   0.510145 0.426718 0.022237 -0.213347
C48   C     C_2   0.436059 0.410847 0.966848 -0.219251
C49   C     C_R   0.288770 0.124983 0.453001 -0.130545
C50   C     C_R   0.682379 0.786784 0.539358 -0.174740
C51   C     C_R   0.317188 0.214452 0.456495 -0.174920
C52   C     C_R   0.528161 0.811885 0.501249 -0.164714
H1    H     H_    0.379589 0.522110 0.226200 0.184731
H2    H     H_    0.642858 0.437860 0.284239 0.191415
H3    H     H_    0.369034 0.401296 0.983320 0.155119
H4    H     H_    0.576972 0.437815 0.005328 0.154026
H5    H     H_    0.638968 0.404154 0.144174 0.145816
H6    H     H_    0.321850 0.483646 0.856923 0.141231
H7    H     H_    0.541274 0.211682 0.511299 0.203834
H8    H     H_    0.459041 0.787506 0.477372 0.202369
H9    H     H_    0.267214 0.258457 0.446210 0.177244
H10   H     H_    0.732484 0.743227 0.552947 0.176141
H11   H     H_    0.782051 0.898767 0.550549 0.181198
H12   H     H_    0.600512 0.425956 0.762080 0.190907
H13   H     H_    0.216938 0.103075 0.442064 0.181732
H14   H     H_    0.569715 0.370474 0.889348 0.145426
H15   H     H_    0.377041 0.490245 0.086809 0.137397
H16   H     H_    0.038049 0.726426 0.450235 0.180835
H17   H     H_    0.961682 0.273842 0.545752 0.179896
H18   H     H_    0.171789 0.723839 0.384351 0.194818
H19   H     H_    0.828252 0.274399 0.610558 0.194237
H20   H     H_    0.921558 0.648024 0.517410 0.171239
H21   H     H_    0.078134 0.353142 0.479448 0.171105
H22   H     H_    0.347716 0.531081 0.723210 0.186410
I1    I     I_    0.637655 0.176728 0.393593 -0.308560
I2    I     I_    0.359378 0.823218 0.592097 -0.302612
I3    I     I_    0.761939 0.589393 0.421480 -0.350648
I4    I     I_    0.236926 0.410042 0.577485 -0.358498
I5    I     I_    0.651310 0.304102 0.654794 -0.362849
I6    I     I_    0.347553 0.686786 0.337494 -0.342409
I7    I     I_    0.811092 0.076713 0.512710 -0.338421
I8    I     I_    0.187102 0.923562 0.472231 -0.340192
N1    N     N_R   0.271750 0.551950 0.454510 -0.131669
N2    N     N_R   0.728250 0.448050 0.545490 -0.131482
O1    O     O_R   0.615140 0.606020 0.522930 -0.598929
O2    O     O_R   0.384860 0.393980 0.477070 -0.601372
O3    O     O_R   0.468580 0.639400 0.493740 -0.592522
O4    O     O_R   0.531420 0.360600 0.506260 -0.594149
O5    O     O_R   0.581950 0.481350 0.400520 -0.590877
O6    O     O_R   0.418050 0.518650 0.599480 -0.585646
O7    O     O_R   0.435380 0.514730 0.371330 -0.605376
O8    O     O_R   0.564620 0.485270 0.628670 -0.606898
Zn1   Zn    Zn3+2 0.597860 0.477710 0.519490 1.009730
Zn2   Zn    Zn3+2 0.402140 0.522290 0.480510 1.012049

loop_
_geom_bond_atom_site_label_1
_geom_bond_atom_site_label_2
_ccdc_geom_bond_type
C25   C31   A    
C40   C47   S    
C38   C40   A    
C26   C32   A    
C48   H3    S    
C41   C43   A    
C14   C18   A    
O1    Zn1   S    
C51   H9    S    
C4    C8    A    
C7    C8    A    
C39   C41   A    
C11   I7    S    
C15   C19   A    
C34   C51   A    
C49   H13   S    
C17   C35   S    
C28   C29   A    
C35   C37   A    
C24   C26   A    
C5    C11   A    
C3    C7    A    
O3    Zn2   S    
C33   C36   A    
C7    C10   A    
C1    O3    A    
C36   H1    S    
C52   H8    S    
C43   H6    S    
C10   I2    S    
C8    C9    A    
C49   C51   A    
C22   C25   A    
O2    Zn2   S    
C29   H20   S    
C2    C34   A    
C40   C42   A    
C16   O5    A    
C6    C49   A    
C27   C30   A    
C14   H18   S    
C17   O8    A    
C42   C44   A    
C42   H5    S    
O6    Zn2   S    
C1    O1    A    
C31   H16   S    
C12   O4    A    
C4    C6    A    
C30   H21   S    
C2    H7    S    
C23   C50   A    
C3    C5    A    
N1    Zn2   S    
C5    C45   A    
C13   I8    S    
C45   H11   S    
C2    C4    A    
C16   C33   S    
C47   C48   D    
C21   N2    A    
C18   N1    A    
C19   I5    S    
C9    C11   A    
C18   I6    S    
C20   C22   A    
C1    C23   S    
C22   C27   A    
C50   H10   S    
C39   H14   S    
C21   C24   A    
C12   C34   S    
C19   N2    A    
C46   H22   S    
C37   H12   S    
O4    Zn1   S    
C33   C44   A    
C17   O6    A    
C24   C28   A    
C15   C26   A    
C10   C13   A    
C3    C52   A    
C32   H17   S    
C12   O2    A    
C15   H19   S    
C20   I4    S    
C36   C38   A    
C29   C31   A    
O7    Zn2   S    
C30   C32   A    
C23   C52   A    
C45   C50   A    
O8    Zn1   S    
C41   C48   S    
N2    Zn1   S    
C14   C25   A    
O5    Zn1   S    
C43   C46   A    
C44   H2    S    
C38   H15   S    
C16   O7    A    
C37   C39   A    
C20   N1    A    
C21   I3    S    
C27   C28   A    
C9    I1    S    
C35   C46   A    
C47   H4    S    
C6    C13   A    
