data_mof_unit_54450.cif
_audit_creation_date              2012-12-10T17:53:25-0500
_audit_creation_method            fapswitch 2.2
_symmetry_space_group_name_H-M    P1
_symmetry_Int_Tables_number       1
_space_group_crystal_system       triclinic
_cell_length_a                    23.425247
_cell_length_b                    10.668205
_cell_length_c                    9.883739
_cell_angle_alpha                 90.290826
_cell_angle_beta                  89.805163
_cell_angle_gamma                 91.564371
_cell_volume                      2469.03356751

loop_
_atom_site_label
_atom_site_type_symbol
_atom_type_description
_atom_site_fract_x
_atom_site_fract_y
_atom_site_fract_z
_atom_type_partial_charge
C1    C     C_R   0.507240 0.261537 0.500137 0.915924
C2    C     C_R   0.121745 0.607989 0.515274 0.554863
C3    C     C_R   0.237866 0.503929 0.623522 -0.078840
C4    C     C_R   0.389348 0.498964 0.500228 0.860553
C5    C     C_R   0.297122 0.505037 0.623490 -0.204948
C6    C     C_R   0.327100 0.496389 0.500662 -0.043847
C7    C     C_R   0.297104 0.485022 0.378228 -0.165150
C8    C     C_R   0.237849 0.483618 0.378727 -0.067841
C9    C     C_R   0.208394 0.493666 0.501207 0.291215
C10   C     C_R   0.762069 0.490555 0.376286 -0.089607
C11   C     C_R   0.702831 0.491670 0.376370 -0.165022
C12   C     C_R   0.967381 0.271365 0.469819 -0.137571
C13   C     C_R   0.672899 0.499341 0.499344 -0.054229
C14   C     C_R   0.702933 0.505850 0.622001 -0.147420
C15   C     C_R   0.762162 0.505052 0.621456 -0.087355
C16   C     C_R   0.495957 0.740309 0.501193 0.902301
C17   C     C_R   0.791560 0.497418 0.498716 0.299930
C18   C     C_R   0.544104 0.116867 0.746757 0.412803
C19   C     C_R   0.530578 0.062082 0.871288 -0.154769
C20   C     C_R   0.496131 0.954009 0.876144 -0.195843
C21   C     C_R   0.480433 0.893016 0.756295 -0.151190
C22   C     C_R   0.497785 0.942292 0.629232 0.051340
C23   C     C_R   0.026676 0.271278 0.470573 -0.113813
C24   C     C_R   0.520837 0.064397 0.625543 0.008206
C25   C     C_R   0.516954 0.129132 0.501381 -0.091601
C26   C     C_R   0.508677 0.064283 0.379675 -0.175411
C27   C     C_R   0.499387 0.937274 0.381326 -0.135456
C28   C     C_R   0.610661 0.500223 0.499765 0.929134
C29   C     C_R   0.494021 0.875050 0.504966 -0.114188
C30   C     C_R   0.426445 0.333029 0.140156 -0.226212
C31   C     C_R   0.390709 0.249472 0.069757 0.394977
C32   C     C_R   0.390560 0.249855 0.929631 -0.237836
C33   C     C_R   0.426148 0.333454 0.859456 -0.214253
C34   C     C_R   0.058319 0.384100 0.485530 -0.009966
C35   C     C_R   0.463676 0.417731 0.927523 0.167731
C36   C     C_R   0.463736 0.417666 0.072272 0.033145
C37   C     C_R   0.534869 0.578746 0.070803 0.411959
C38   C     C_R   0.534680 0.578514 0.927752 -0.150360
C39   C     C_R   0.881652 0.608984 0.513175 0.541912
C40   C     C_R   0.879103 0.386373 0.483853 0.517035
C41   C     C_R   0.938690 0.384268 0.484089 -0.012491
C42   C     C_R   0.970048 0.498272 0.499316 -0.015578
C43   C     C_R   0.941321 0.611588 0.513836 -0.087446
C44   C     C_R   0.030122 0.498707 0.500046 -0.068144
C45   C     C_R   0.061741 0.613142 0.515192 -0.121931
C46   C     C_R   0.031988 0.726803 0.529276 0.426358
C47   C     C_R   0.972492 0.724532 0.528532 -0.192426
C48   C     C_R   0.117771 0.385053 0.486444 0.521113
Cl1   Cl    Cl    0.598418 0.234701 0.745902 -0.603199
Cl2   Cl    Cl    0.581910 0.683825 0.153820 -0.604461
Cl3   Cl    Cl    0.345538 0.144422 0.158308 -0.585912
Cl4   Cl    Cl    0.065377 0.876248 0.548187 -0.500013
H1    H     H_    0.944164 0.182789 0.458121 0.206800
H2    H     H_    0.562873 0.642429 0.872959 0.183394
H3    H     H_    0.319338 0.513447 0.719184 0.169513
H4    H     H_    0.319292 0.477394 0.282329 0.172947
H5    H     H_    0.214734 0.475670 0.284232 0.149907
H6    H     H_    0.785149 0.484813 0.281449 0.149556
H7    H     H_    0.680603 0.486368 0.280534 0.195025
H8    H     H_    0.680794 0.511848 0.718090 0.189123
H9    H     H_    0.047608 0.182508 0.459391 0.228354
H10   H     H_    0.362519 0.185621 0.874422 0.198801
H11   H     H_    0.950641 0.812258 0.539536 0.221511
H12   H     H_    0.785314 0.510359 0.716040 0.148623
H13   H     H_    0.214755 0.511548 0.718159 0.149469
H14   H     H_    0.507678 0.111806 0.283065 0.176276
H15   H     H_    0.546947 0.103002 0.964346 0.176460
H16   H     H_    0.483750 0.914227 0.972802 0.177751
H17   H     H_    0.453558 0.809472 0.764807 0.177491
H18   H     H_    0.495626 0.888344 0.285279 0.193372
H19   H     H_    0.423512 0.328937 0.247352 0.230091
H20   H     H_    0.422745 0.329359 0.752280 0.222180
N1    N     N_R   0.852203 0.497570 0.498417 -0.362096
N2    N     N_R   0.147739 0.495532 0.501153 -0.373093
N3    N     N_R   0.499460 0.498800 0.142780 -0.141081
N4    N     N_R   0.499440 0.498720 0.857170 -0.127264
O1    O     O_R   0.500000 0.316780 0.614690 -0.611575
O2    O     O_R   0.583850 0.500050 0.614640 -0.586088
O3    O     O_R   0.583840 0.500030 0.385310 -0.578981
O4    O     O_2   0.853115 0.716595 0.526716 -0.525844
O5    O     O_2   0.848143 0.278535 0.469842 -0.523138
O6    O     O_2   0.145698 0.276590 0.473254 -0.497214
O7    O     O_2   0.154402 0.713267 0.528614 -0.453287
O8    O     O_R   0.500000 0.316750 0.385360 -0.650732
O9    O     O_R   0.416160 0.499970 0.614690 -0.649166
O10   O     O_R   0.416150 0.499950 0.385360 -0.639878
O11   O     O_R   0.500000 0.683250 0.614640 -0.637263
O12   O     O_R   0.500000 0.683220 0.385310 -0.570605
Zn1   Zn    Zn3+2 0.500000 0.500020 0.653130 0.975053
Zn2   Zn    Zn3+2 0.500000 0.499980 0.346870 0.999434

loop_
_geom_bond_atom_site_label_1
_geom_bond_atom_site_label_2
_ccdc_geom_bond_type
C1    C25   S    
C22   C29   A    
C27   C29   A    
C1    O1    A    
C41   C42   A    
C35   C36   A    
C30   H19   S    
C7    C8    A    
C38   N4    A    
C45   C46   A    
C1    O8    A    
C12   C23   A    
O1    Zn1   S    
C26   C27   A    
C37   C38   A    
O8    Zn2   S    
C18   C24   A    
C10   H6    S    
C47   H11   S    
C5    C6    A    
C4    O10   A    
C10   C17   A    
C46   Cl4   S    
C40   N1    A    
C18   C19   A    
C28   O3    A    
O3    Zn2   S    
C33   H20   S    
C19   C20   A    
C8    C9    A    
C16   O11   A    
C15   H12   S    
C13   C28   S    
C19   H15   S    
C28   O2    A    
C12   H1    S    
N3    Zn2   S    
N4    Zn1   S    
C37   N3    A    
O2    Zn1   S    
C21   C22   A    
C17   N1    S    
C2    O7    S    
C3    H13   S    
C42   C44   A    
C7    H4    S    
C11   H7    S    
C5    H3    S    
C2    C45   A    
C35   N4    A    
C26   H14   S    
C48   N2    A    
C34   C44   A    
C24   C25   A    
C4    C6    S    
O10   Zn2   S    
O9    Zn1   S    
C39   C43   A    
C4    O9    A    
C25   C26   A    
C21   H17   S    
C12   C41   A    
C3    C9    A    
C36   N3    A    
C8    H5    S    
C31   C32   A    
C38   H2    S    
C23   C34   A    
C27   H18   S    
C40   C41   A    
O12   Zn2   S    
O11   Zn1   S    
C22   C24   A    
C34   C48   A    
C9    N2    S    
C44   C45   A    
C15   C17   A    
C46   C47   A    
C40   O5    S    
C20   H16   S    
C31   Cl3   S    
C3    C5    A    
C2    N2    A    
C6    C7    A    
C14   H8    S    
C30   C36   A    
C32   C33   A    
C16   C29   S    
C32   H10   S    
C39   O4    S    
C37   Cl2   S    
C11   C13   A    
C30   C31   A    
C33   C35   A    
C48   O6    S    
C39   N1    A    
C10   C11   A    
C23   H9    S    
C20   C21   A    
C42   C43   A    
C16   O12   A    
C14   C15   A    
C13   C14   A    
C43   C47   A    
C18   Cl1   S    
