data_mof_unit_56701.cif
_audit_creation_date              2012-12-10T16:48:51-0500
_audit_creation_method            fapswitch 2.2
_symmetry_space_group_name_H-M    P1
_symmetry_Int_Tables_number       1
_space_group_crystal_system       triclinic
_cell_length_a                    17.198433
_cell_length_b                    8.678013
_cell_length_c                    7.517522
_cell_angle_alpha                 103.371417
_cell_angle_beta                  90.73907
_cell_angle_gamma                 94.150909
_cell_volume                      1088.19026676

loop_
_atom_site_label
_atom_site_type_symbol
_atom_type_description
_atom_site_fract_x
_atom_site_fract_y
_atom_site_fract_z
_atom_type_partial_charge
Br1   Br    Br    0.399166 0.307478 0.919016 -0.416734
Br2   Br    Br    0.600709 0.692793 0.081045 -0.419418
C1    C     C_R   0.497479 0.199778 0.453332 0.869275
C2    C     C_R   0.779385 0.579621 0.622430 -0.257355
C3    C     C_R   0.139308 0.384884 0.407080 0.435239
C4    C     C_R   0.860186 0.593029 0.616217 0.457907
C5    C     C_R   0.105066 0.469471 0.565733 -0.070715
C6    C     C_R   0.896419 0.531394 0.450258 -0.085444
C7    C     C_R   0.151837 0.554115 0.716290 0.455948
C8    C     C_R   0.851030 0.471764 0.288468 0.475388
C9    C     C_R   0.232873 0.563545 0.701923 -0.254488
C10   C     C_R   0.769648 0.466398 0.295480 -0.254506
C11   C     C_2   0.020539 0.474744 0.573247 -0.093578
C12   C     C_R   0.502506 0.800221 0.546672 0.868634
C13   C     C_2   0.981143 0.523556 0.444527 -0.115839
C14   C     C_3   0.125045 0.571438 0.014676 -0.238391
C15   C     C_3   0.884401 0.256367 0.077059 -0.293800
C16   C     C_3   0.916812 0.824641 0.787023 -0.261651
C17   C     C_3   0.085438 0.138151 0.276711 -0.305186
C18   C     C_2   0.495917 0.031306 0.427793 -0.332698
C19   C     C_2   0.504045 0.968692 0.572217 -0.332217
C20   C     C_R   0.351222 0.498850 0.524830 0.838164
C21   C     C_R   0.648962 0.502021 0.475522 0.842085
C22   C     C_R   0.266859 0.487437 0.540257 -0.147933
C23   C     C_R   0.733777 0.514838 0.463386 -0.173902
C24   C     C_R   0.220050 0.397892 0.393584 -0.283278
Cu1   Cu    Cu3+1 0.508700 0.517250 0.683000 1.063783
Cu2   Cu    Cu3+1 0.491300 0.482750 0.317000 1.063163
H1    H     H_    0.245988 0.336516 0.268966 0.197039
H2    H     H_    0.100262 0.647560 0.136497 0.178635
H3    H     H_    0.186999 0.559496 0.050189 0.163036
H4    H     H_    0.912695 0.210404 0.186379 0.169284
H5    H     H_    0.917532 0.218682 0.950716 0.181259
H6    H     H_    0.823592 0.202188 0.048312 0.154939
H7    H     H_    0.861123 0.883469 0.794793 0.141007
H8    H     H_    0.951150 0.847912 0.670147 0.154628
H9    H     H_    0.951500 0.878935 0.914364 0.187857
H10   H     H_    0.055485 0.128200 0.404483 0.153723
H11   H     H_    0.142799 0.085668 0.271047 0.178780
H12   H     H_    0.752560 0.622518 0.752413 0.209137
H13   H     H_    0.048683 0.067416 0.159675 0.184673
H14   H     H_    0.734875 0.420829 0.170693 0.194910
H15   H     H_    0.268952 0.635000 0.814548 0.182259
H16   H     H_    0.011082 0.549997 0.327729 0.188242
H17   H     H_    0.991443 0.445036 0.689617 0.201571
H18   H     H_    0.487940 0.958581 0.289215 0.204228
H19   H     H_    0.512018 0.041417 0.710796 0.203982
H20   H     H_    0.091376 0.453460 0.985002 0.201447
N1    N     N_2   0.478180 0.456750 0.041980 0.058943
N2    N     N_2   0.521820 0.543250 0.958020 0.058744
O1    O     O_R   0.505650 0.286040 0.618880 -0.556321
O2    O     O_3   0.886464 0.423635 0.122713 -0.547774
O3    O     O_3   0.903223 0.660420 0.775321 -0.542971
O4    O     O_3   0.093817 0.297032 0.260525 -0.595638
O5    O     O_R   0.494350 0.713960 0.381120 -0.556563
O6    O     O_R   0.490960 0.256910 0.309800 -0.569498
O7    O     O_R   0.509040 0.743090 0.690200 -0.569858
O8    O     O_R   0.394600 0.516230 0.672450 -0.558860
O9    O     O_R   0.605400 0.483770 0.327550 -0.559783
O10   O     O_R   0.379910 0.487100 0.363380 -0.573923
O11   O     O_R   0.620090 0.512900 0.636620 -0.574490
O12   O     O_3   0.118110 0.644792 0.867132 -0.575097

loop_
_geom_bond_atom_site_label_1
_geom_bond_atom_site_label_2
_ccdc_geom_bond_type
C20   O8    A    
C11   H17   S    
C9    H15   S    
C17   H10   S    
Br2   N2    S    
Cu2   N1    S    
C3    O4    S    
Cu2   O5    S    
Cu1   N2    S    
C21   O11   A    
C10   C23   A    
C2    H12   S    
C8    O2    S    
C14   H20   S    
Cu1   O7    S    
Cu2   O10   S    
C2    C23   A    
Cu2   O6    S    
C1    C18   S    
C14   H3    S    
C21   O9    A    
C7    C9    A    
C15   H5    S    
C4    C6    A    
C12   C19   S    
C8    C10   A    
C15   O2    S    
C6    C8    A    
C16   H9    S    
C22   C24   A    
C13   H16   S    
C12   O5    A    
C6    C13   S    
C3    C5    A    
C11   C13   D    
C20   O10   A    
C1    O6    A    
C15   H4    S    
C20   C22   S    
C15   H6    S    
C4    O3    S    
C14   H2    S    
C7    O12   S    
C17   H13   S    
C9    C22   A    
C5    C11   S    
C21   C23   S    
C18   C19   D    
C17   O4    S    
C24   H1    S    
C2    C4    A    
N1    N2    D    
C16   H7    S    
Cu2   O9    S    
Cu1   Cu2   S    
C5    C7    A    
C12   O7    A    
C1    O1    A    
C17   H11   S    
C10   H14   S    
Cu1   O11   S    
C16   O3    S    
C16   H8    S    
C14   O12   S    
C18   H18   S    
C3    C24   A    
Cu1   O1    S    
C19   H19   S    
Cu1   O8    S    
Br1   N1    S    
