data_mof_unit_28818.cif
_audit_creation_date              2012-12-10T20:42:43-0500
_audit_creation_method            fapswitch 2.2
_symmetry_space_group_name_H-M    P1
_symmetry_Int_Tables_number       1
_space_group_crystal_system       triclinic
_cell_length_a                    8.90196
_cell_length_b                    10.6748
_cell_length_c                    9.912501
_cell_angle_alpha                 90.089454
_cell_angle_beta                  91.13432
_cell_angle_gamma                 89.94417
_cell_volume                      941.765531792

loop_
_atom_site_label
_atom_site_type_symbol
_atom_type_description
_atom_site_fract_x
_atom_site_fract_y
_atom_site_fract_z
_atom_type_partial_charge
C1    C     C_R   0.507850 0.260075 0.499936 0.873475
C2    C     C_R   0.424895 0.409467 0.926452 0.139498
C3    C     C_3   0.264339 0.376996 0.906946 -0.477544
C4    C     C_R   0.218857 0.499744 0.499136 0.929837
C5    C     C_3   0.246813 0.395652 0.059516 0.270226
C6    C     C_R   0.503596 0.739701 0.500251 0.888513
C7    C     C_R   0.781156 0.501333 0.500859 0.919680
C8    C     C_1   0.065429 0.500243 0.498724 -0.226377
C9    C     C_1   0.934618 0.500891 0.501158 -0.208081
C10   C     C_R   0.496647 0.063665 0.618714 0.114936
C11   C     C_R   0.534538 0.128145 0.502223 -0.142230
C12   C     C_R   0.595240 0.931618 0.395785 -0.273778
C13   C     C_R   0.603895 0.062181 0.395107 0.149534
C14   C     C_3   0.687867 0.125159 0.282205 -0.380146
C15   C     C_3   0.826691 0.193610 0.337420 -0.828124
C16   C     C_3   0.154042 0.517133 0.085770 -0.360231
C17   C     C_3   0.986223 0.503120 0.053445 -0.870223
C18   C     C_3   0.200929 0.278220 0.142443 -0.306835
C19   C     C_3   0.089730 0.189710 0.070600 -0.924698
C20   C     C_R   0.526071 0.870808 0.502998 -0.136458
C21   C     C_R   0.492781 0.936537 0.619114 0.133771
C22   C     C_3   0.357505 0.931605 0.705557 -0.479085
C23   C     C_3   0.362725 0.073585 0.706755 -0.494824
C24   C     C_R   0.415997 0.415326 0.067534 0.069380
C25   C     C_R   0.589146 0.579556 0.073720 -0.118755
C26   C     C_R   0.587942 0.580544 0.929960 -0.124244
H1    H     H_    0.252202 0.280332 0.868961 0.182580
H2    H     H_    0.869562 0.257776 0.259509 0.253732
H3    H     H_    0.915585 0.124944 0.365846 0.241685
H4    H     H_    0.800916 0.250046 0.427788 0.249132
H5    H     H_    0.726623 0.055076 0.207377 0.185807
H6    H     H_    0.613659 0.189537 0.223961 0.222283
H7    H     H_    0.966536 0.466416 0.949810 0.264567
H8    H     H_    0.933092 0.440129 0.127406 0.270019
H9    H     H_    0.931297 0.596224 0.060632 0.238153
H10   H     H_    0.164889 0.549076 0.190432 0.238582
H11   H     H_    0.198073 0.595228 0.023666 0.188980
H12   H     H_    0.638472 0.877969 0.312059 0.158149
H13   H     H_    0.993336 0.241466 0.025292 0.278569
H14   H     H_    0.146171 0.134565 0.991344 0.253691
H15   H     H_    0.046806 0.120878 0.144071 0.253540
H16   H     H_    0.301759 0.221634 0.170720 0.187113
H17   H     H_    0.151409 0.309477 0.238838 0.212265
H18   H     H_    0.257066 0.893007 0.651502 0.198527
H19   H     H_    0.382789 0.889245 0.805871 0.205839
H20   H     H_    0.264340 0.118315 0.655313 0.197341
H21   H     H_    0.393650 0.111910 0.807732 0.203016
H22   H     H_    0.659149 0.645395 0.129113 0.140708
H23   H     H_    0.656571 0.647553 0.877481 0.144528
H24   H     H_    0.203142 0.446189 0.843057 0.218833
N1    N     N_R   0.499010 0.499140 0.142800 -0.112373
N2    N     N_R   0.499010 0.499180 0.857150 -0.097715
O1    O     O_R   0.500020 0.316790 0.614690 -0.609455
O2    O     O_R   0.500000 0.316760 0.385350 -0.626069
O3    O     O_R   0.285350 0.500020 0.614650 -0.619415
O4    O     O_R   0.285340 0.499980 0.385310 -0.643140
O5    O     O_R   0.500000 0.683240 0.614650 -0.618394
O6    O     O_R   0.499980 0.683210 0.385310 -0.624715
O7    O     O_R   0.714660 0.500020 0.614690 -0.615646
O8    O     O_R   0.714650 0.499980 0.385350 -0.613268
Zn1   Zn    Zn3+2 0.500010 0.500020 0.653130 0.937513
Zn2   Zn    Zn3+2 0.499990 0.499980 0.346870 0.917823

loop_
_geom_bond_atom_site_label_1
_geom_bond_atom_site_label_2
_ccdc_geom_bond_type
O6    Zn2   S    
C17   H8    S    
C1    O2    A    
C25   N1    A    
O5    Zn1   S    
C26   N2    A    
C10   C23   S    
C6    C20   S    
C6    O6    A    
C25   H22   S    
C14   H5    S    
C4    C8    S    
C12   C20   A    
C24   N1    A    
C3    H1    S    
C2    C3    S    
C25   C26   A    
C4    O3    A    
C23   H20   S    
C18   H17   S    
C16   H10   S    
C12   H12   S    
C11   C13   A    
C6    O5    A    
C15   H2    S    
C16   C17   S    
C5    C24   S    
C2    N2    A    
N1    Zn2   S    
C19   H13   S    
C7    O7    A    
C3    H24   S    
C15   H3    S    
N2    Zn1   S    
C18   H16   S    
C10   C21   A    
C2    C24   A    
C14   C15   S    
O4    Zn2   S    
O7    Zn1   S    
C23   H21   S    
C19   H14   S    
O3    Zn1   S    
C7    O8    A    
C22   H19   S    
C12   C13   A    
C15   H4    S    
O8    Zn2   S    
C18   C19   S    
C10   C11   A    
C26   H23   S    
C7    C9    S    
C1    O1    A    
C22   C23   S    
O2    Zn2   S    
C5    C16   S    
C22   H18   S    
C5    C18   S    
C17   H9    S    
C13   C14   S    
C17   H7    S    
C20   C21   A    
C21   C22   S    
O1    Zn1   S    
C4    O4    A    
C19   H15   S    
C16   H11   S    
C14   H6    S    
C8    C9    T    
C3    C5    S    
C1    C11   S    
