data_mof_unit_43545.cif
_audit_creation_date              2012-10-26T20:03:18-0400
_audit_creation_method            fapswitch 2.2
_symmetry_space_group_name_H-M    P1
_symmetry_Int_Tables_number       1
_space_group_crystal_system       triclinic
_cell_length_a                    10.606805
_cell_length_b                    12.30994
_cell_length_c                    13.362894
_cell_angle_alpha                 116.676336
_cell_angle_beta                  77.398237
_cell_angle_gamma                 101.557307
_cell_volume                      1510.97749391

loop_
_atom_site_label
_atom_site_type_symbol
_atom_type_description
_atom_site_fract_x
_atom_site_fract_y
_atom_site_fract_z
_atom_type_partial_charge
C1    C     C_R   0.508548 0.854449 0.287670 0.531692
C2    C     C_R   0.487773 0.563349 0.015880 0.043263
C3    C     C_R   0.458370 0.644573 0.130687 0.011264
C4    C     C_R   0.740528 0.999807 0.499670 0.551708
C5    C     C_R   0.447122 0.436396 0.981816 0.026663
C6    C     C_R   0.404788 0.389455 0.064359 0.054312
C7    C     C_R   0.361343 0.470616 0.176410 0.008155
C8    C     C_R   0.380222 0.596254 0.205113 -0.147199
C9    C     C_R   0.446707 0.354673 0.867573 0.006938
C10   C     C_R   0.437507 0.185722 0.916697 -0.164284
C11   C     C_R   0.509616 0.770586 0.167130 0.002233
C12   C     C_3   0.012859 0.908353 0.524296 -0.112306
C13   C     C_R   0.713059 0.351082 0.335574 -0.143977
C14   C     C_R   0.321915 0.757446 0.642116 0.040948
C15   C     C_R   0.280145 0.658003 0.669218 -0.150917
C16   C     C_R   0.477516 0.145680 0.712895 0.546077
C17   C     C_R   0.345274 0.554097 0.613438 -0.130214
C18   C     C_R   0.454374 0.548713 0.530032 -0.018586
C19   C     C_R   0.492977 0.652652 0.504496 0.169219
C20   C     C_R   0.527099 0.445101 0.471787 -0.009585
C21   C     C_R   0.637185 0.448520 0.390722 0.036599
C22   C     C_R   0.671150 0.549106 0.365078 -0.176358
C23   C     C_3   0.954652 0.891994 0.421285 -0.129208
C24   C     C_R   0.600293 0.648371 0.420123 -0.102021
C25   C     C_R   0.496748 0.337881 0.490822 0.039163
C26   C     C_R   0.680809 0.250729 0.361550 0.045452
C27   C     C_R   0.259484 0.000071 0.500175 0.554261
C28   C     C_3   0.987196 0.091191 0.475232 -0.107026
C29   C     C_3   0.066479 0.982999 0.397024 -0.118625
C30   C     C_3   0.122398 0.999497 0.500025 0.041621
C31   C     C_3   0.045366 0.107547 0.578257 -0.123754
C32   C     C_3   0.933574 0.016534 0.602508 -0.121115
C33   C     C_2   0.405764 0.396329 0.792563 0.224784
C34   C     C_3   0.877639 0.000082 0.499531 0.040648
C35   C     C_2   0.288819 0.430685 0.265053 0.209017
C36   C     C_R   0.406120 0.263543 0.030682 -0.102216
C37   C     C_R   0.454537 0.229609 0.833669 -0.015410
C38   C     C_R   0.577491 0.814070 0.087139 -0.131586
C39   C     C_R   0.605670 0.733800 0.974495 -0.135057
C40   C     C_R   0.566103 0.609459 0.939891 -0.094269
Cu1   Cu    Cu3+1 0.529830 0.098270 0.475420 0.936595
Cu2   Cu    Cu3+1 0.470170 0.901730 0.524580 0.910543
H1    H     H_    0.124127 0.969310 0.313091 0.126702
H2    H     H_    0.974145 0.166109 0.455067 0.138738
H3    H     H_    0.308225 0.479582 0.637175 0.147994
H4    H     H_    0.196688 0.661249 0.733344 0.123248
H5    H     H_    0.634012 0.720067 0.393632 0.184585
H6    H     H_    0.085839 0.195615 0.642320 0.141738
H7    H     H_    0.875961 0.030198 0.686446 0.118639
H8    H     H_    0.025967 0.833402 0.544390 0.122983
H9    H     H_    0.914171 0.803883 0.357283 0.105601
H10   H     H_    0.442333 0.090087 0.893338 0.136952
H11   H     H_    0.473184 0.404397 0.722157 0.106261
H12   H     H_    0.616161 0.909530 0.112659 0.132065
H13   H     H_    0.331610 0.654720 0.286327 0.144451
H14   H     H_    0.286023 0.494492 0.353641 0.113483
H15   H     H_    0.388175 0.224860 0.091491 0.175314
H16   H     H_    0.602517 0.549923 0.854164 0.095547
H17   H     H_    0.664015 0.767372 0.914617 0.118770
H18   H     H_    0.739793 0.175798 0.320259 0.127105
H19   H     H_    0.754116 0.551543 0.301880 0.111819
H20   H     H_    0.797531 0.353121 0.273615 0.111062
H21   H     H_    0.411476 0.324908 0.546730 0.123015
H22   H     H_    0.270219 0.837368 0.685151 0.130946
N1    N     N_R   0.575030 0.246270 0.438190 -0.237874
N2    N     N_R   0.425760 0.754330 0.561190 -0.240438
O1    O     O_R   0.537510 0.972500 0.318130 -0.502485
O2    O     O_2   0.226065 0.329955 0.241196 -0.525436
O3    O     O_R   0.487140 0.806530 0.359650 -0.537895
O4    O     O_R   0.708330 0.082950 0.479220 -0.505676
O5    O     O_R   0.657960 0.916980 0.520740 -0.517711
O6    O     O_R   0.512860 0.193470 0.640350 -0.519354
O7    O     O_R   0.462490 0.027500 0.681870 -0.502874
O8    O     O_R   0.342040 0.083020 0.479260 -0.499521
O9    O     O_R   0.291670 0.917050 0.520780 -0.518599
O10   O     O_2   0.297004 0.426731 0.812875 -0.526595

loop_
_geom_bond_atom_site_label_1
_geom_bond_atom_site_label_2
_ccdc_geom_bond_type
Cu1   Cu2   S    
C1    C11   S    
C10   H10   S    
C4    O4    A    
C7    C8    A    
Cu1   O1    S    
C12   C23   S    
Cu2   O9    S    
C10   C37   A    
C23   C29   S    
C28   C29   S    
C17   H3    S    
C38   C39   A    
C20   C25   A    
C19   N2    A    
C18   C19   A    
C25   H21   S    
Cu1   O8    S    
C13   H20   S    
C16   O6    A    
C27   O8    A    
C16   C37   S    
C28   C34   S    
C21   C22   A    
C29   H1    S    
C27   C30   S    
C9    C33   S    
C26   N1    A    
C27   O9    A    
C8    H13   S    
C33   H11   S    
C4    C34   S    
C40   H16   S    
C16   O7    A    
C25   N1    A    
C3    C8    A    
C39   C40   A    
Cu1   N1    S    
C28   H2    S    
Cu2   O3    S    
C1    O3    A    
C32   C34   S    
C11   C38   A    
C5    C9    A    
C29   C30   S    
C33   O10   D    
C23   H9    S    
C31   C32   S    
C38   H12   S    
C30   C31   S    
C23   C34   S    
C39   H17   S    
C9    C37   A    
C17   C18   A    
C14   N2    A    
C13   C21   A    
Cu1   O6    S    
C14   H22   S    
C36   H15   S    
C31   H6    S    
C22   C24   A    
C13   C26   A    
C2    C5    A    
C15   C17   A    
Cu2   O7    S    
C12   C30   S    
C35   H14   S    
C24   H5    S    
C7    C35   S    
C28   C31   S    
C12   H8    S    
C6    C7    A    
C2    C3    A    
C22   H19   S    
C5    C6    A    
C35   O2    D    
Cu2   O5    S    
C1    O1    A    
C6    C36   A    
C19   C24   A    
C18   C20   A    
C32   H7    S    
C3    C11   A    
C2    C40   A    
C20   C21   A    
Cu2   N2    S    
C14   C15   A    
C10   C36   A    
C15   H4    S    
C26   H18   S    
C4    O5    A    
C12   C32   S    
Cu1   O4    S    
