data_mof_unit_25061.cif
_audit_creation_date              2012-12-10T18:38:10-0500
_audit_creation_method            fapswitch 2.2
_symmetry_space_group_name_H-M    P1
_symmetry_Int_Tables_number       1
_space_group_crystal_system       triclinic
_cell_length_a                    15.050463
_cell_length_b                    13.93397
_cell_length_c                    10.654859
_cell_angle_alpha                 89.151098
_cell_angle_beta                  91.097369
_cell_angle_gamma                 89.736876
_cell_volume                      2233.77765787

loop_
_atom_site_label
_atom_site_type_symbol
_atom_type_description
_atom_site_fract_x
_atom_site_fract_y
_atom_site_fract_z
_atom_type_partial_charge
C1    C     C_R   0.330271 0.500074 0.499868 0.845495
C2    C     C_R   0.670212 0.499896 0.498928 0.846977
C3    C     C_R   0.545694 0.106274 0.592648 -0.336744
C4    C     C_R   0.431066 0.894110 0.443768 -0.356916
C5    C     C_R   0.454837 0.109165 0.405946 -0.365851
C6    C     C_R   0.570315 0.891782 0.554619 -0.365990
C7    C     C_R   0.548474 0.207663 0.588920 0.598627
C8    C     C_R   0.432456 0.792455 0.441301 0.598936
C9    C     C_R   0.451058 0.210702 0.411122 0.600010
C10   C     C_R   0.566112 0.790130 0.562183 0.592315
C11   C     C_R   0.500930 0.054840 0.498551 0.054767
C12   C     C_R   0.501264 0.945881 0.497933 0.070423
C13   C     C_R   0.497505 0.500944 0.259493 0.851476
C14   C     C_R   0.501939 0.498871 0.740337 0.859799
C15   C     C_3   0.520536 0.589026 0.035619 -0.147082
C16   C     C_3   0.477290 0.410232 0.963131 -0.134499
C17   C     C_3   0.581637 0.521625 0.962565 -0.173982
C18   C     C_3   0.416322 0.477018 0.036649 -0.155651
C19   C     C_3   0.440577 0.562504 0.950303 0.410901
C20   C     C_3   0.556857 0.436367 0.048533 0.450966
C21   C     C_3   0.501896 0.495799 0.876742 -0.190686
C22   C     C_3   0.496217 0.503197 0.122755 -0.183096
C23   C     C_R   0.095453 0.555630 0.402413 0.456210
C24   C     C_R   0.905509 0.418027 0.453048 0.466398
C25   C     C_R   0.906735 0.583877 0.524094 0.422925
C26   C     C_R   0.095949 0.439431 0.577203 0.430736
C27   C     C_R   0.188285 0.558356 0.410220 -0.282823
C28   C     C_R   0.813025 0.417745 0.458142 -0.325024
C29   C     C_R   0.814261 0.583380 0.525355 -0.246648
C30   C     C_R   0.188431 0.438586 0.577779 -0.301440
C31   C     C_R   0.234185 0.499865 0.497071 -0.141313
C32   C     C_R   0.767156 0.500022 0.495095 -0.161213
C33   C     C_R   0.049444 0.498821 0.489732 -0.043423
C34   C     C_R   0.952434 0.500418 0.488788 -0.039544
Cu1   Cu    Cu3+1 0.500000 0.596430 0.500000 1.034792
Cu2   Cu    Cu3+1 0.500000 0.403570 0.500000 1.019202
H1    H     H_    0.224930 0.603624 0.346508 0.173152
H2    H     H_    0.777424 0.353826 0.430872 0.166703
H3    H     H_    0.779686 0.648242 0.551137 0.221404
H4    H     H_    0.224420 0.391559 0.643033 0.177605
H5    H     H_    0.577468 0.068422 0.670570 0.171565
H6    H     H_    0.373753 0.931914 0.405403 0.160616
H7    H     H_    0.421797 0.073452 0.329087 0.163534
H8    H     H_    0.627168 0.927522 0.595874 0.159688
N1    N     N_R   0.500000 0.258690 0.500000 -0.258674
N2    N     N_R   0.500000 0.741310 0.500000 -0.246407
O1    O     O_R   0.371460 0.581430 0.500010 -0.524132
O2    O     O_R   0.628540 0.418570 0.499990 -0.595666
O3    O     O_R   0.628540 0.581430 0.499990 -0.542678
O4    O     O_R   0.371460 0.418570 0.500010 -0.591694
O5    O     O_R   0.499980 0.581420 0.316850 -0.601810
O6    O     O_R   0.500020 0.418580 0.683150 -0.565282
O7    O     O_R   0.500020 0.581420 0.683150 -0.544291
O8    O     O_R   0.499980 0.418580 0.316850 -0.500499
O9    O     O_3   0.382590 0.622084 0.877603 -0.566300
C35   C     C_3   0.330063 0.679817 0.953826 0.053203
H9    H     H_    0.371479 0.736508 0.997437 0.145646
H10   H     H_    0.296062 0.636855 0.026938 0.133194
C36   C     C_3   0.258445 0.728021 0.871767 -0.758031
H11   H     H_    0.216679 0.672762 0.825478 0.244588
H12   H     H_    0.215185 0.773568 0.929675 0.189690
H13   H     H_    0.289532 0.773647 0.798527 0.257868
O10   O     O_3   0.612973 0.370463 0.114118 -0.564254
C37   C     C_3   0.673739 0.327877 0.032569 0.062484
H14   H     H_    0.732099 0.375489 0.021385 0.158442
H15   H     H_    0.643925 0.312697 0.938483 0.169780
C38   C     C_3   0.706318 0.233669 0.091313 -0.785278
H16   H     H_    0.651006 0.181221 0.093913 0.258612
H17   H     H_    0.761267 0.203821 0.035594 0.198214
H18   H     H_    0.731179 0.245569 0.188619 0.245371
C39   C     C_1   0.544413 0.685888 0.076349 0.242841
N3    N     N_1   0.563452 0.762197 0.108330 -0.311702
C40   C     C_1   0.454649 0.312856 0.922926 0.346208
N4    N     N_1   0.436836 0.236106 0.891340 -0.279800
C41   C     C_1   0.671736 0.541897 0.919007 0.209033
N5    N     N_1   0.742841 0.557208 0.884727 -0.330787
C42   C     C_1   0.327060 0.454036 0.081117 0.235468
N6    N     N_1   0.256563 0.436567 0.116052 -0.354117
O11   O     O_3   0.048249 0.610194 0.313562 -0.548713
C43   C     C_3   0.073177 0.584252 0.191168 0.051224
H19   H     H_    0.081071 0.505006 0.182059 0.151185
H20   H     H_    0.136375 0.619982 0.165795 0.149759
C44   C     C_3   0.001441 0.617166 0.097440 -0.773431
H21   H     H_    0.992914 0.696271 0.101362 0.259139
H22   H     H_    0.020645 0.597542 0.000937 0.186389
H23   H     H_    0.937399 0.582002 0.119515 0.249440
O12   O     O_3   0.950989 0.336935 0.416708 -0.545312
C45   C     C_3   0.945989 0.330562 0.284568 0.059481
H24   H     H_    0.953176 0.401777 0.236514 0.133555
H25   H     H_    0.881416 0.298586 0.255547 0.148710
C46   C     C_3   0.020843 0.266200 0.241006 -0.781852
H26   H     H_    0.015947 0.194059 0.286021 0.259304
H27   H     H_    0.016518 0.258395 0.137543 0.200284
H28   H     H_    0.086036 0.298335 0.266600 0.245743
O13   O     O_3   0.951199 0.668611 0.547763 -0.533975
C47   C     C_3   0.975705 0.671407 0.676238 0.037761
H29   H     H_    0.035384 0.625722 0.694452 0.126304
H30   H     H_    0.920901 0.647674 0.738420 0.135739
C48   C     C_3   0.999685 0.773747 0.710341 -0.741161
H31   H     H_    0.941336 0.821742 0.694093 0.248876
H32   H     H_    0.020193 0.776443 0.810927 0.192972
H33   H     H_    0.055552 0.799235 0.652133 0.259802
O14   O     O_3   0.051733 0.376238 0.655312 -0.537483
C49   C     C_3   0.034344 0.421922 0.769725 0.053508
H34   H     H_    0.979440 0.474762 0.756139 0.125142
H35   H     H_    0.094380 0.458449 0.808907 0.134921
C50   C     C_3   0.004527 0.347500 0.865663 -0.758314
H36   H     H_    0.058049 0.293536 0.883140 0.250460
H37   H     H_    0.989375 0.383234 0.955337 0.191309
H38   H     H_    0.943787 0.310698 0.830708 0.246345
O15   O     O_3   0.594743 0.255692 0.681795 -0.573335
C51   C     C_3   0.687419 0.249429 0.661898 0.094715
H39   H     H_    0.717169 0.318420 0.691913 0.172825
H40   H     H_    0.704973 0.240410 0.561475 0.135913
C52   C     C_3   0.730312 0.169283 0.741760 -0.889644
H41   H     H_    0.727357 0.100213 0.691412 0.232707
H42   H     H_    0.801369 0.186049 0.760516 0.229044
H43   H     H_    0.695966 0.161271 0.832430 0.266841
O16   O     O_3   0.359821 0.744235 0.393150 -0.552805
C53   C     C_3   0.346151 0.765390 0.264130 0.037334
H44   H     H_    0.347323 0.696147 0.214665 0.146457
H45   H     H_    0.398027 0.811600 0.220805 0.140243
C54   C     C_3   0.255138 0.811932 0.242546 -0.833319
H46   H     H_    0.242988 0.824393 0.140675 0.205150
H47   H     H_    0.202088 0.764916 0.279352 0.271021
H48   H     H_    0.251660 0.881974 0.290240 0.244831
O17   O     O_3   0.403537 0.262774 0.320483 -0.543213
C55   C     C_3   0.312183 0.238202 0.319645 0.072051
H49   H     H_    0.273105 0.305148 0.331540 0.189695
H50   H     H_    0.292186 0.188313 0.396980 0.117329
C56   C     C_3   0.285656 0.195603 0.193437 -0.789173
H51   H     H_    0.212643 0.184789 0.188863 0.209415
H52   H     H_    0.304802 0.244634 0.115674 0.275844
H53   H     H_    0.318820 0.125327 0.180646 0.230764
O18   O     O_3   0.630884 0.739164 0.628776 -0.569606
C57   C     C_3   0.634606 0.767208 0.756197 0.081286
H54   H     H_    0.614696 0.705247 0.814973 0.191559
H55   H     H_    0.588939 0.827012 0.781219 0.122682
C58   C     C_3   0.729355 0.794953 0.791860 -0.797231
H56   H     H_    0.749287 0.859747 0.737648 0.231716
H57   H     H_    0.733846 0.810655 0.893648 0.226074
H58   H     H_    0.775710 0.735328 0.771302 0.263183

loop_
_geom_bond_atom_site_label_1
_geom_bond_atom_site_label_2
_ccdc_geom_bond_type
O12   C45   S    
C9    N1    A    
C16   C21   S    
Cu1   O7    S    
C40   N4    T    
O13   C47   S    
C4    C8    A    
C56   H53   S    
Cu1   O1    S    
C55   H49   S    
C51   H40   S    
C54   H46   S    
C42   N6    T    
C15   C19   S    
C9    O17   S    
C7    N1    A    
C14   C21   S    
C19   C21   S    
C5    C11   A    
C29   C32   A    
C3    C7    A    
C57   C58   S    
C6    C12   A    
C30   C31   A    
C58   H58   S    
C54   H47   S    
C52   H41   S    
C47   C48   S    
C1    C31   S    
C17   C20   S    
C35   H9    S    
C2    C32   S    
C18   C19   S    
C51   H39   S    
C13   O5    A    
C15   C22   S    
C14   O6    A    
Cu1   Cu2   S    
C35   H10   S    
C23   C33   A    
C47   H30   S    
Cu1   O3    S    
C50   H36   S    
C23   C27   A    
C4    C12   A    
C1    O4    A    
Cu2   O6    S    
C53   C54   S    
C25   C34   A    
C5    H7    S    
C36   H11   S    
C6    H8    S    
C50   H37   S    
C43   C44   S    
C49   H35   S    
C49   H34   S    
C53   H45   S    
C25   C29   A    
C36   H12   S    
C27   C31   A    
C16   C40   S    
C37   C38   S    
O18   C57   S    
Cu2   O8    S    
C10   O18   S    
C57   H55   S    
C46   H26   S    
C1    O1    A    
C54   H48   S    
C52   H42   S    
C24   C34   A    
C38   H16   S    
C38   H17   S    
C37   H15   S    
C41   N5    T    
C5    C9    A    
C2    O3    A    
C26   O14   S    
C46   H27   S    
C26   C33   A    
C44   H21   S    
C45   C46   S    
C28   C32   A    
C16   C20   S    
C52   H43   S    
C47   H29   S    
C29   H3    S    
O9    C35   S    
C33   C34   S    
C30   H4    S    
Cu2   N1    S    
O16   C53   S    
C14   O7    A    
C43   H20   S    
C48   H32   S    
C45   H25   S    
C25   O13   S    
Cu1   O5    S    
C50   H38   S    
O11   C43   S    
C56   H51   S    
C55   C56   S    
C10   N2    A    
Cu2   O4    S    
C53   H44   S    
C13   O8    A    
C19   O9    S    
C15   C17   S    
C3    H5    S    
C36   H13   S    
O15   C51   S    
C44   H22   S    
C11   C12   S    
C18   C22   S    
C24   C28   A    
C20   C22   S    
C43   H19   S    
C56   H52   S    
C55   H50   S    
C6    C10   A    
C58   H56   S    
C35   C36   S    
C26   C30   A    
C15   C39   S    
C48   H31   S    
C38   H18   S    
C2    O2    A    
C37   H14   S    
C44   H23   S    
C20   O10   S    
C39   N3    T    
C46   H28   S    
C58   H57   S    
C4    H6    S    
C27   H1    S    
C18   C42   S    
C7    O15   S    
C13   C22   S    
Cu2   O2    S    
C49   C50   S    
C24   O12   S    
C8    N2    A    
C3    C11   A    
O10   C37   S    
C48   H33   S    
C45   H24   S    
C16   C18   S    
O14   C49   S    
C17   C41   S    
C57   H54   S    
C23   O11   S    
C28   H2    S    
Cu1   N2    S    
C51   C52   S    
O17   C55   S    
C8    O16   S    
C17   C21   S    
