data_mof_unit_48366.cif
_audit_creation_date              2012-12-10T17:03:26-0500
_audit_creation_method            fapswitch 2.2
_symmetry_space_group_name_H-M    P1
_symmetry_Int_Tables_number       1
_space_group_crystal_system       triclinic
_cell_length_a                    15.049487
_cell_length_b                    11.023195
_cell_length_c                    9.830507
_cell_angle_alpha                 111.020101
_cell_angle_beta                  98.128281
_cell_angle_gamma                 90.79697
_cell_volume                      1503.31048093

loop_
_atom_site_label
_atom_site_type_symbol
_atom_type_description
_atom_site_fract_x
_atom_site_fract_y
_atom_site_fract_z
_atom_type_partial_charge
C1    C     C_R   0.492812 0.254200 0.440779 0.890289
C2    C     C_R   0.506498 0.745803 0.559242 0.877776
C3    C     C_R   0.038391 0.261885 0.430403 0.023566
C4    C     C_R   0.953609 0.718485 0.482164 0.034463
C5    C     C_2   0.488571 0.114905 0.407433 -0.296739
C6    C     C_2   0.509750 0.885086 0.592623 -0.314301
C7    C     C_2   0.500071 0.069547 0.516688 -0.110436
C8    C     C_2   0.496864 0.930437 0.483428 -0.102662
C9    C     C_2   0.507511 0.510407 0.081233 -0.048291
C10   C     C_2   0.492433 0.489642 0.918753 -0.050317
C11   C     C_R   0.329358 0.502215 0.501754 0.829661
C12   C     C_R   0.670603 0.498510 0.498169 0.836929
C13   C     C_R   0.816196 0.614730 0.520415 -0.086042
C14   C     C_R   0.185567 0.391484 0.500654 -0.074583
C15   C     C_R   0.766709 0.497104 0.493738 -0.165033
C16   C     C_R   0.232818 0.503178 0.502394 -0.172924
C17   C     C_R   0.807802 0.377975 0.458521 -0.033888
C18   C     C_R   0.187949 0.613555 0.498592 -0.027550
C19   C     C_R   0.901265 0.378019 0.456433 0.051123
C20   C     C_R   0.093830 0.611426 0.492895 0.048484
C21   C     C_R   0.950699 0.494854 0.475967 0.025223
C22   C     C_R   0.045073 0.495871 0.479675 0.026853
C23   C     C_R   0.906155 0.611001 0.493194 0.092268
C24   C     C_R   0.090374 0.381588 0.470528 0.097046
C25   C     C_R   0.946081 0.262916 0.431773 -0.279630
C26   C     C_R   0.046550 0.719278 0.488316 -0.282574
Cu1   Cu    Cu3+1 0.515770 0.521810 0.644910 0.988809
Cu2   Cu    Cu3+1 0.484230 0.478190 0.355090 0.998270
H1    H     H_    0.909309 0.170845 0.408516 0.133531
H2    H     H_    0.080929 0.803540 0.481955 0.134431
H3    H     H_    0.483993 0.864776 0.368579 0.188675
H4    H     H_    0.512381 0.135205 0.631558 0.183475
H5    H     H_    0.522600 0.951038 0.707272 0.151664
H6    H     H_    0.476337 0.048957 0.292762 0.150129
H7    H     H_    0.440194 0.417552 0.845896 0.163149
H8    H     H_    0.559715 0.582545 0.154080 0.163687
H9    H     H_    0.588648 0.622413 0.934280 0.208294
H10   H     H_    0.411376 0.377545 0.065717 0.209402
N1    N     N_2   0.460520 0.445420 0.137370 -0.278669
N2    N     N_2   0.539480 0.554580 0.862630 -0.280927
O1    O     O_R   0.508410 0.332340 0.577400 -0.568448
O2    O     O_R   0.491590 0.667660 0.422600 -0.559669
O3    O     O_R   0.481780 0.295500 0.332650 -0.582372
O4    O     O_R   0.518220 0.704500 0.667350 -0.584610
O5    O     O_R   0.383570 0.518390 0.622380 -0.600327
O6    O     O_R   0.616430 0.481610 0.377620 -0.592639
O7    O     O_R   0.356940 0.481550 0.377630 -0.524888
O8    O     O_R   0.643060 0.518450 0.622370 -0.541474
C27   C     C_2   0.775710 0.739959 0.592923 0.466140
H11   H     H_    0.704514 0.749883 0.565292 0.041002
O9    O     O_2   0.821110 0.831433 0.689076 -0.531545
C28   C     C_2   0.236951 0.294336 0.546941 0.444957
H12   H     H_    0.302474 0.269723 0.515287 0.050726
O10   O     O_2   0.207903 0.245066 0.626448 -0.550151
C29   C     C_2   0.753452 0.254362 0.427630 0.355959
H13   H     H_    0.760563 0.168568 0.332513 0.081123
O11   O     O_2   0.702175 0.246682 0.510356 -0.526515
C30   C     C_2   0.239998 0.734020 0.510703 0.345567
H14   H     H_    0.227664 0.827571 0.590267 0.084172
O12   O     O_2   0.294808 0.730238 0.429167 -0.517243
C31   C     C_2   0.073891 0.131681 0.367579 0.453407
H15   H     H_    0.043874 0.048384 0.383014 0.051487
O13   O     O_2   0.132792 0.114499 0.290265 -0.538239
C32   C     C_2   0.909274 0.824510 0.444843 0.440089
H16   H     H_    0.943946 0.920467 0.481919 0.057138
O14   O     O_2   0.836308 0.803871 0.365331 -0.556278

loop_
_geom_bond_atom_site_label_1
_geom_bond_atom_site_label_2
_ccdc_geom_bond_type
Cu1   O8    S    
C2    O4    A    
C9    H8    S    
C4    C26   A    
C29   H13   S    
C12   C15   S    
Cu2   O7    S    
C10   H7    S    
C11   C16   S    
Cu1   O1    S    
Cu2   O3    S    
C11   O7    A    
C6    H5    S    
C9    N1    D    
Cu1   N2    S    
C12   O8    A    
C5    H6    S    
Cu1   O5    S    
C21   C23   A    
C7    C8    S    
C21   C22   A    
C32   H16   S    
C13   C27   S    
Cu2   O6    S    
C3    C24   A    
C2    C6    S    
C20   C26   A    
C2    O2    A    
C1    C5    S    
C17   C29   S    
C16   C18   A    
C19   C21   A    
C28   O10   D    
C26   H2    S    
H9    N2    S    
C22   C24   A    
C29   O11   D    
C13   C15   A    
C25   H1    S    
C31   H15   S    
C19   C25   A    
C14   C16   A    
C11   O5    A    
C3    C31   S    
C30   O12   D    
C3    C25   A    
H10   N1    S    
C28   H12   S    
C13   C23   A    
C18   C20   A    
C5    C7    D    
C27   H11   S    
C9    C10   S    
C14   C24   A    
Cu1   Cu2   S    
C15   C17   A    
C4    C23   A    
C4    C32   S    
C10   N2    D    
C6    C8    D    
C7    H4    S    
Cu2   O2    S    
Cu2   N1    S    
C17   C19   A    
C30   H14   S    
C8    H3    S    
Cu1   O4    S    
C1    O3    A    
C31   O13   D    
C14   C28   S    
C1    O1    A    
C20   C22   A    
C18   C30   S    
C27   O9    D    
C12   O6    A    
C32   O14   D    
