data_mof_unit_19889.cif
_audit_creation_date              2012-12-10T18:23:53-0500
_audit_creation_method            fapswitch 2.2
_symmetry_space_group_name_H-M    P1
_symmetry_Int_Tables_number       1
_space_group_crystal_system       triclinic
_cell_length_a                    22.443322
_cell_length_b                    22.462411
_cell_length_c                    14.626106
_cell_angle_alpha                 90.000033
_cell_angle_beta                  90.040229
_cell_angle_gamma                 89.999985
_cell_volume                      7373.47342494

loop_
_atom_site_label
_atom_site_type_symbol
_atom_type_description
_atom_site_fract_x
_atom_site_fract_y
_atom_site_fract_z
_atom_type_partial_charge
C1    C     C_R   0.419775 0.919713 0.499968 0.817582
C2    C     C_R   0.580240 0.080273 0.500029 0.817364
C3    C     C_R   0.580225 0.919713 0.500032 0.817584
C4    C     C_R   0.419760 0.080273 0.499971 0.817362
C5    C     C_R   0.919775 0.419713 0.499968 0.817583
C6    C     C_R   0.080240 0.580273 0.500029 0.817361
C7    C     C_R   0.080225 0.419713 0.500032 0.817581
C8    C     C_R   0.919760 0.580273 0.499971 0.817365
C9    C     C_1   0.337426 0.162794 0.499997 0.043964
C10   C     C_1   0.662453 0.837089 0.500053 0.037248
C11   C     C_1   0.662574 0.162795 0.500002 0.043969
C12   C     C_1   0.337547 0.837089 0.499947 0.037246
C13   C     C_1   0.837425 0.662794 0.499998 0.043961
C14   C     C_1   0.162453 0.337089 0.500053 0.037253
C15   C     C_1   0.162574 0.662795 0.500002 0.043959
C16   C     C_1   0.837546 0.337090 0.499947 0.037265
C17   C     C_1   0.499900 0.000009 0.194231 0.140139
C18   C     C_1   0.500100 0.000009 0.805768 0.140139
C19   C     C_1   0.999900 0.500009 0.194231 0.140140
C20   C     C_1   0.000100 0.500009 0.805768 0.140138
C21   C     C_3   0.528263 0.048643 0.969702 0.122004
C22   C     C_3   0.471737 0.951394 0.030298 0.123940
C23   C     C_3   0.471730 0.048639 0.030298 0.122007
C24   C     C_3   0.528269 0.951398 0.969702 0.123939
C25   C     C_3   0.028265 0.548642 0.969702 0.122006
C26   C     C_3   0.971736 0.451395 0.030298 0.123932
C27   C     C_3   0.971732 0.548640 0.030298 0.122006
C28   C     C_3   0.028268 0.451397 0.969702 0.123940
C29   C     C_3   0.698876 0.726382 0.530616 -0.016591
C30   C     C_3   0.300973 0.273482 0.469398 0.002475
C31   C     C_3   0.301124 0.726382 0.469386 -0.016593
C32   C     C_3   0.699019 0.273490 0.530559 0.002463
C33   C     C_3   0.198880 0.226386 0.530636 -0.016582
C34   C     C_3   0.800976 0.773485 0.469419 0.002477
C35   C     C_3   0.801127 0.226380 0.469405 -0.016561
C36   C     C_3   0.199023 0.773486 0.530579 0.002478
C37   C     C_3   0.233090 0.204473 0.444864 -0.285952
C38   C     C_3   0.766737 0.795375 0.555202 -0.324256
C39   C     C_3   0.766897 0.204487 0.555171 -0.285973
C40   C     C_3   0.233263 0.795375 0.444797 -0.324256
C41   C     C_3   0.733096 0.704479 0.444847 -0.285943
C42   C     C_3   0.266744 0.295382 0.555184 -0.324254
C43   C     C_3   0.266903 0.704480 0.555155 -0.285942
C44   C     C_3   0.733268 0.295369 0.444780 -0.324246
C45   C     C_1   0.375070 0.125057 0.499954 -0.138996
C46   C     C_1   0.624858 0.874874 0.500068 -0.140586
C47   C     C_1   0.624929 0.125057 0.500046 -0.138994
C48   C     C_1   0.375142 0.874874 0.499932 -0.140588
C49   C     C_1   0.875070 0.625057 0.499954 -0.138996
C50   C     C_1   0.124858 0.374874 0.500068 -0.140588
C51   C     C_1   0.124929 0.625058 0.500046 -0.138998
C52   C     C_1   0.875141 0.374875 0.499932 -0.140585
C53   C     C_3   0.257604 0.229951 0.584915 0.429221
C54   C     C_3   0.742245 0.769919 0.415092 0.465443
C55   C     C_3   0.742416 0.229931 0.415091 0.429292
C56   C     C_3   0.257754 0.769921 0.584908 0.465442
C57   C     C_3   0.757593 0.729941 0.584912 0.429185
C58   C     C_3   0.242235 0.269910 0.415088 0.465444
C59   C     C_3   0.242407 0.729940 0.415088 0.429178
C60   C     C_3   0.757744 0.269931 0.584904 0.465434
C61   C     C_3   0.291759 0.208626 0.500127 -0.022018
C62   C     C_3   0.708083 0.791224 0.499924 -0.034061
C63   C     C_3   0.708241 0.208626 0.499872 -0.022042
C64   C     C_3   0.291916 0.791225 0.500076 -0.034062
C65   C     C_3   0.791759 0.708626 0.500127 -0.022006
C66   C     C_3   0.208084 0.291224 0.499924 -0.034061
C67   C     C_3   0.208240 0.708627 0.499873 -0.022004
C68   C     C_3   0.791915 0.291225 0.500075 -0.034058
C69   C     C_3   0.556691 0.000022 0.031325 -0.216671
C70   C     C_3   0.443309 0.000014 0.968675 -0.216671
C71   C     C_3   0.056691 0.500020 0.031325 -0.216669
C72   C     C_3   0.943309 0.500016 0.968675 -0.216671
C73   C     C_3   0.499684 0.000019 0.091614 -0.040281
C74   C     C_3   0.500316 0.000019 0.908386 -0.040281
C75   C     C_3   0.999684 0.500019 0.091614 -0.040280
C76   C     C_3   0.000316 0.500019 0.908386 -0.040280
Cu1   Cu    Cu3+1 0.500000 1.000000 0.590220 1.003372
Cu2   Cu    Cu3+1 0.500000 0.000000 0.409780 1.003371
Cu3   Cu    Cu3+1 0.000000 0.500000 0.590220 1.003371
Cu4   Cu    Cu3+1 1.000000 0.500000 0.409780 1.003374
H1    H     H_    0.396803 0.000014 0.942775 0.156634
H2    H     H_    0.603197 0.000029 0.057225 0.156637
H3    H     H_    0.896803 0.500018 0.942775 0.156636
H4    H     H_    0.103197 0.500025 0.057225 0.156632
H5    H     H_    0.220230 0.167120 0.399242 0.179130
H6    H     H_    0.779581 0.832707 0.600876 0.172120
H7    H     H_    0.779746 0.167144 0.600821 0.179133
H8    H     H_    0.220420 0.832707 0.399121 0.172121
H9    H     H_    0.720241 0.667131 0.399212 0.179127
H10   H     H_    0.279593 0.332719 0.600845 0.172116
H11   H     H_    0.279757 0.667132 0.600792 0.179127
H12   H     H_    0.720430 0.332695 0.399091 0.172108
N1    N     N_1   0.499980 0.000000 0.274190 -0.146098
N2    N     N_1   0.500020 0.000000 0.725810 -0.146097
N3    N     N_1   0.999980 0.500000 0.274190 -0.146097
N4    N     N_1   0.000020 0.500000 0.725810 -0.146098
O1    O     O_R   0.439540 0.939530 0.576170 -0.548926
O2    O     O_R   0.560460 0.060470 0.423830 -0.550172
O3    O     O_R   0.560460 0.939530 0.423830 -0.548924
O4    O     O_R   0.439540 0.060470 0.576170 -0.550169
O5    O     O_R   0.939540 0.439530 0.576170 -0.548927
O6    O     O_R   0.060460 0.560470 0.423830 -0.550172
O7    O     O_R   0.060460 0.439530 0.423830 -0.548923
O8    O     O_R   0.939540 0.560470 0.576170 -0.550169
O9    O     O_R   0.439530 0.939530 0.423800 -0.584578
O10   O     O_R   0.560470 0.060470 0.576200 -0.581791
O11   O     O_R   0.560470 0.939530 0.576200 -0.584579
O12   O     O_R   0.439530 0.060470 0.423800 -0.581794
O13   O     O_R   0.939530 0.439530 0.423800 -0.584574
O14   O     O_R   0.060470 0.560470 0.576200 -0.581792
O15   O     O_R   0.060470 0.439530 0.576200 -0.584579
O16   O     O_R   0.939530 0.560470 0.423800 -0.581793
C77   C     C_3   0.638790 0.702273 0.563295 -0.361785
C78   C     C_3   0.639572 0.634414 0.573655 -0.304115
C79   C     C_3   0.579404 0.611302 0.606684 -0.816783
H13   H     H_    0.568442 0.630591 0.674557 0.269575
H14   H     H_    0.543840 0.623181 0.557106 0.244426
H15   H     H_    0.581128 0.562075 0.613142 0.242957
H16   H     H_    0.650044 0.613350 0.506823 0.212206
H17   H     H_    0.674229 0.621054 0.623641 0.278902
H18   H     H_    0.627448 0.723538 0.629606 0.218959
H19   H     H_    0.604206 0.714914 0.512445 0.202335
C80   C     C_3   0.361193 0.297519 0.437211 -0.379225
C81   C     C_3   0.360473 0.365356 0.426525 -0.333429
C82   C     C_3   0.420601 0.388320 0.393097 -0.830598
H20   H     H_    0.456265 0.376426 0.442498 0.250405
H21   H     H_    0.431353 0.368937 0.325207 0.259140
H22   H     H_    0.418952 0.437543 0.386520 0.246805
H23   H     H_    0.325735 0.378695 0.376680 0.263902
H24   H     H_    0.350157 0.386549 0.493319 0.223615
H25   H     H_    0.395545 0.285018 0.488513 0.209727
H26   H     H_    0.372890 0.276029 0.371239 0.207419
C83   C     C_3   0.361210 0.702272 0.436709 -0.361783
C84   C     C_3   0.360427 0.634413 0.426350 -0.304117
C85   C     C_3   0.420595 0.611300 0.393324 -0.816790
H27   H     H_    0.431559 0.630588 0.325451 0.269573
H28   H     H_    0.456159 0.623179 0.442904 0.244428
H29   H     H_    0.418871 0.562073 0.386867 0.242957
H30   H     H_    0.349954 0.613350 0.493183 0.212207
H31   H     H_    0.325771 0.621053 0.376363 0.278898
H32   H     H_    0.372552 0.723535 0.370398 0.218955
H33   H     H_    0.395794 0.714913 0.487559 0.202335
C86   C     C_3   0.638791 0.297534 0.562698 -0.379219
C87   C     C_3   0.639508 0.365374 0.573349 -0.333432
C88   C     C_3   0.579372 0.388346 0.606727 -0.830600
H34   H     H_    0.543721 0.376440 0.557309 0.250407
H35   H     H_    0.568601 0.368977 0.674620 0.259146
H36   H     H_    0.581019 0.437570 0.613280 0.246796
H37   H     H_    0.674233 0.378723 0.623209 0.263900
H38   H     H_    0.649842 0.386552 0.506550 0.223615
H39   H     H_    0.604452 0.285021 0.511384 0.209728
H40   H     H_    0.627078 0.276059 0.628675 0.207421
C89   C     C_3   0.138798 0.202280 0.563339 -0.361772
C90   C     C_3   0.139581 0.134422 0.573715 -0.304120
C91   C     C_3   0.079418 0.111314 0.606770 -0.816782
H41   H     H_    0.068466 0.130609 0.674643 0.269573
H42   H     H_    0.043846 0.123189 0.557201 0.244425
H43   H     H_    0.081142 0.062087 0.613238 0.242961
H44   H     H_    0.150043 0.113352 0.506883 0.212205
H45   H     H_    0.174245 0.121067 0.623691 0.278902
H46   H     H_    0.127465 0.223551 0.629649 0.218975
H47   H     H_    0.104207 0.214917 0.512498 0.202328
C92   C     C_3   0.861200 0.797526 0.437256 -0.379229
C93   C     C_3   0.860481 0.865364 0.426586 -0.333428
C94   C     C_3   0.920613 0.888332 0.393184 -0.830592
H48   H     H_    0.956270 0.876433 0.442595 0.250405
H49   H     H_    0.931376 0.868955 0.325293 0.259145
H50   H     H_    0.918965 0.937555 0.386618 0.246803
H51   H     H_    0.825750 0.878707 0.376732 0.263902
H52   H     H_    0.850155 0.886550 0.493382 0.223616
H53   H     H_    0.895545 0.785019 0.488564 0.209730
H54   H     H_    0.872905 0.776043 0.371281 0.207420
C95   C     C_3   0.861217 0.202267 0.436750 -0.361747
C96   C     C_3   0.860437 0.134408 0.426404 -0.304121
C97   C     C_3   0.920611 0.111292 0.393408 -0.816786
H55   H     H_    0.931589 0.130577 0.325538 0.269578
H56   H     H_    0.956165 0.123173 0.443003 0.244426
H57   H     H_    0.918887 0.062065 0.386957 0.242955
H58   H     H_    0.849951 0.113350 0.493237 0.212205
H59   H     H_    0.825790 0.121043 0.376405 0.278910
H60   H     H_    0.872567 0.223525 0.370437 0.219014
H61   H     H_    0.895795 0.214913 0.487607 0.202321
C98   C     C_3   0.138799 0.797528 0.562741 -0.379225
C99   C     C_3   0.139518 0.865367 0.573408 -0.333432
C100  C     C_3   0.079386 0.888335 0.606810 -0.830600
H62   H     H_    0.043728 0.876436 0.557400 0.250408
H63   H     H_    0.068624 0.868960 0.674702 0.259142
H64   H     H_    0.081034 0.937559 0.613375 0.246799
H65   H     H_    0.174249 0.878710 0.623261 0.263899
H66   H     H_    0.149844 0.886551 0.506611 0.223617
H67   H     H_    0.104454 0.785021 0.511432 0.209729
H68   H     H_    0.127093 0.776046 0.628715 0.207420
S1    S     S_3+6 0.728398 0.794912 0.301145 -0.001530
O17   O     O_2   0.670280 0.769389 0.268513 -0.259736
O18   O     O_2   0.724416 0.861697 0.299000 -0.314345
O19   O     O_3   0.783313 0.771637 0.231585 -0.530861
H69   H     H_    0.813405 0.803878 0.232554 0.348701
S2    S     S_3+6 0.270723 0.204860 0.699023 0.001926
O20   O     O_2   0.276523 0.138239 0.699981 -0.268156
O21   O     O_2   0.327478 0.231902 0.734380 -0.290755
O22   O     O_3   0.213748 0.225162 0.766732 -0.516470
H70   H     H_    0.210082 0.268765 0.758275 0.328690
S3    S     S_3+6 0.271599 0.794915 0.698854 -0.001529
O23   O     O_2   0.329717 0.769392 0.731489 -0.259734
O24   O     O_2   0.275582 0.861700 0.700998 -0.314353
O25   O     O_3   0.216683 0.771641 0.768414 -0.530857
H71   H     H_    0.186592 0.803883 0.767443 0.348700
S4    S     S_3+6 0.729325 0.204813 0.300991 0.001911
O26   O     O_2   0.723524 0.138191 0.300068 -0.268140
O27   O     O_2   0.672580 0.231847 0.265583 -0.290806
O28   O     O_3   0.786319 0.225097 0.233307 -0.516505
H72   H     H_    0.789936 0.268713 0.241656 0.328746
S5    S     S_3+6 0.228376 0.294890 0.301139 -0.001534
O29   O     O_2   0.170253 0.269363 0.268529 -0.259732
O30   O     O_2   0.224393 0.361674 0.298976 -0.314356
O31   O     O_3   0.283282 0.271606 0.231570 -0.530864
H73   H     H_    0.313374 0.303848 0.232520 0.348699
S6    S     S_3+6 0.770700 0.704838 0.699017 0.001943
O32   O     O_2   0.776500 0.638216 0.699958 -0.268149
O33   O     O_2   0.827449 0.731877 0.734397 -0.290734
O34   O     O_3   0.713716 0.725130 0.766716 -0.516443
H74   H     H_    0.710030 0.768730 0.758234 0.328668
S7    S     S_3+6 0.771577 0.294938 0.698847 -0.001526
O35   O     O_2   0.829692 0.269420 0.731503 -0.259738
O36   O     O_2   0.775558 0.361723 0.700974 -0.314344
O37   O     O_3   0.716654 0.271671 0.768399 -0.530854
H75   H     H_    0.686561 0.303911 0.767411 0.348700
S8    S     S_3+6 0.229301 0.704836 0.300984 0.001945
O38   O     O_2   0.223500 0.638214 0.300044 -0.268158
O39   O     O_2   0.172553 0.731876 0.265601 -0.290728
O40   O     O_3   0.286286 0.725127 0.233285 -0.516437
H76   H     H_    0.289976 0.768725 0.241772 0.328665
C101  C     C_3   0.436651 0.101252 0.069353 -0.430107
C102  C     C_3   0.411096 0.141246 0.994055 -0.351291
C103  C     C_3   0.372733 0.190751 0.034519 -0.710484
H77   H     H_    0.334577 0.171555 0.072845 0.269400
H78   H     H_    0.399672 0.218950 0.081298 0.242720
H79   H     H_    0.355027 0.219155 0.978607 0.268852
H80   H     H_    0.447842 0.161906 0.954595 0.226162
H81   H     H_    0.383346 0.114403 0.946466 0.246498
H82   H     H_    0.399525 0.083136 0.111221 0.207847
H83   H     H_    0.465966 0.127511 0.115289 0.198973
C104  C     C_3   0.563334 0.898790 0.930604 -0.435124
C105  C     C_3   0.588994 0.858835 0.005862 -0.346327
C106  C     C_3   0.627469 0.809438 0.965333 -0.721249
H84   H     H_    0.600599 0.781213 0.918498 0.250176
H85   H     H_    0.665589 0.828741 0.927045 0.250709
H86   H     H_    0.645231 0.781037 0.021206 0.275692
H87   H     H_    0.616693 0.885722 0.053461 0.244867
H88   H     H_    0.552296 0.838082 0.045320 0.227770
H89   H     H_    0.533982 0.872496 0.884769 0.199103
H90   H     H_    0.600403 0.916915 0.888627 0.204221
C107  C     C_3   0.563334 0.101261 0.930647 -0.430089
C108  C     C_3   0.588883 0.141259 0.005945 -0.351318
C109  C     C_3   0.627240 0.190769 0.965482 -0.710474
H91   H     H_    0.665400 0.171576 0.927158 0.269395
H92   H     H_    0.600299 0.218963 0.918699 0.242742
H93   H     H_    0.644941 0.219176 0.021394 0.268823
H94   H     H_    0.552133 0.161915 0.045403 0.226153
H95   H     H_    0.616635 0.114420 0.053536 0.246500
H96   H     H_    0.600463 0.083150 0.888780 0.207845
H97   H     H_    0.534015 0.127516 0.884710 0.198979
C110  C     C_3   0.436680 0.898782 0.069395 -0.435119
C111  C     C_3   0.411025 0.858823 0.994138 -0.346335
C112  C     C_3   0.372557 0.809420 0.034666 -0.721247
H98   H     H_    0.399432 0.781199 0.081501 0.250172
H99   H     H_    0.334435 0.828718 0.072956 0.250717
H100  H     H_    0.354799 0.781016 0.978794 0.275685
H101  H     H_    0.383322 0.885706 0.946540 0.244868
H102  H     H_    0.447726 0.838075 0.954679 0.227767
H103  H     H_    0.466036 0.872491 0.115231 0.199105
H104  H     H_    0.399609 0.916901 0.111373 0.204220
C113  C     C_3   0.936655 0.601255 0.069353 -0.430100
C114  C     C_3   0.911101 0.641249 0.994055 -0.351307
C115  C     C_3   0.872740 0.690755 0.034519 -0.710463
H105  H     H_    0.834583 0.671560 0.072846 0.269395
H106  H     H_    0.899679 0.718954 0.081299 0.242731
H107  H     H_    0.855035 0.719160 0.978607 0.268846
H108  H     H_    0.947848 0.661908 0.954595 0.226159
H109  H     H_    0.883350 0.614406 0.946467 0.246499
H110  H     H_    0.899529 0.583140 0.111222 0.207845
H111  H     H_    0.965972 0.627513 0.115289 0.198976
C116  C     C_3   0.063331 0.398788 0.930605 -0.435128
C117  C     C_3   0.088990 0.358832 0.005863 -0.346323
C118  C     C_3   0.127464 0.309434 0.965334 -0.721248
H112  H     H_    0.100592 0.281210 0.918500 0.250173
H113  H     H_    0.165583 0.328736 0.927045 0.250703
H114  H     H_    0.145225 0.281032 0.021208 0.275695
H115  H     H_    0.116690 0.385719 0.053461 0.244865
H116  H     H_    0.052291 0.338081 0.045322 0.227773
H117  H     H_    0.033978 0.372495 0.884770 0.199102
H118  H     H_    0.100400 0.416912 0.888627 0.204220
C119  C     C_3   0.063338 0.601259 0.930646 -0.430099
C120  C     C_3   0.088891 0.641254 0.005944 -0.351305
C121  C     C_3   0.127247 0.690765 0.965479 -0.710472
H119  H     H_    0.165404 0.671574 0.927148 0.269399
H120  H     H_    0.100303 0.718962 0.918703 0.242728
H121  H     H_    0.144951 0.719170 0.021391 0.268844
H122  H     H_    0.052144 0.661909 0.045408 0.226158
H123  H     H_    0.116646 0.614413 0.053529 0.246497
H124  H     H_    0.100465 0.583147 0.888776 0.207844
H125  H     H_    0.034019 0.627516 0.884712 0.198978
C122  C     C_3   0.936677 0.398784 0.069395 -0.435113
C123  C     C_3   0.911022 0.358826 0.994137 -0.346310
C124  C     C_3   0.872551 0.309425 0.034666 -0.721303
H126  H     H_    0.899424 0.281203 0.081502 0.250190
H127  H     H_    0.834429 0.328725 0.072954 0.250684
H128  H     H_    0.854792 0.281021 0.978793 0.275683
H129  H     H_    0.883320 0.385710 0.946538 0.244867
H130  H     H_    0.947722 0.338076 0.954680 0.227763
H131  H     H_    0.966032 0.372493 0.115231 0.199109
H132  H     H_    0.899606 0.416905 0.111373 0.204219

loop_
_geom_bond_atom_site_label_1
_geom_bond_atom_site_label_2
_ccdc_geom_bond_type
C109  H92   S    
C111  H101  S    
C103  H78   S    
S7    O35   D    
C39   H7    S    
C78   C79   S    
S7    O37   S    
C97   H56   S    
C123  H130  S    
C55   S4    S    
S3    O24   D    
C117  C118  S    
C86   C87   S    
C105  C106  S    
Cu1   O4    S    
Cu2   O12   S    
C114  C115  S    
C31   C59   S    
C77   H19   S    
C70   C74   S    
C15   C51   T    
C44   H12   S    
C86   H39   S    
C117  H116  S    
C106  H84   S    
C91   H43   S    
C27   C75   S    
S8    O38   D    
C88   H34   S    
S5    O30   D    
C5    O5    A    
Cu4   O7    S    
C85   H27   S    
O25   H71   S    
O19   H69   S    
S5    O29   D    
C89   H46   S    
C98   C99   S    
C38   C57   S    
C97   H55   S    
C36   C40   S    
C79   H15   S    
Cu4   O16   S    
C81   H24   S    
C59   S8    S    
C8    O8    A    
C90   C91   S    
C95   H61   S    
C34   C54   S    
C2    C47   S    
C28   C71   S    
C88   H36   S    
C122  H131  S    
C107  H96   S    
C85   H28   S    
C29   C77   S    
C25   C119  S    
C87   C88   S    
C1    C48   S    
C116  H118  S    
C3    C46   S    
C25   C76   S    
C40   H8    S    
Cu3   N4    S    
C118  H113  S    
C44   C55   S    
C14   C50   T    
C108  H94   S    
C39   C60   S    
C6    O6    A    
S1    O17   D    
C30   C61   S    
Cu4   O6    S    
Cu2   O3    S    
C82   H21   S    
S2    O21   D    
S8    O40   S    
C1    O9    A    
C38   C62   S    
C41   H9    S    
C80   H26   S    
C93   H52   S    
C80   C81   S    
C121  H120  S    
C90   H45   S    
C83   H33   S    
O34   H74   S    
C31   C43   S    
C38   H6    S    
C9    C61   S    
C113  H111  S    
Cu1   O10   S    
C11   C63   S    
C42   C53   S    
C107  C108  S    
C12   C64   S    
C33   C89   S    
C100  H63   S    
C57   S6    S    
C79   H13   S    
Cu1   N2    S    
C99   C100  S    
C96   C97   S    
C87   H38   S    
C69   H2    S    
C59   C67   S    
C53   C61   S    
C111  C112  S    
C124  H127  S    
C55   C63   S    
C56   C64   S    
Cu1   O1    S    
C25   C71   S    
C101  C102  S    
C78   H16   S    
C27   C113  S    
C110  H103  S    
C20   N4    T    
C94   H49   S    
C7    O7    A    
C17   C73   S    
C23   C70   S    
C33   C66   S    
C4    C45   S    
C32   C44   S    
C104  H89   S    
C105  H87   S    
C114  H108  S    
C35   C95   S    
C115  H107  S    
C84   H30   S    
C2    O10   A    
C21   C69   S    
C42   H10   S    
C119  C120  S    
S6    O33   D    
S1    O19   S    
C15   C67   S    
C26   C75   S    
C36   C98   S    
C102  H81   S    
Cu4   N3    S    
C112  H99   S    
C103  H79   S    
C99   H66   S    
C106  H86   S    
C17   N1    T    
C119  H124  S    
C60   S7    S    
C96   H59   S    
C91   H41   S    
C19   N3    T    
S6    O34   S    
C123  C124  S    
C111  H102  S    
C29   C41   S    
C7    C50   S    
S7    O36   D    
C84   C85   S    
C120  H122  S    
C21   C107  S    
C23   C101  S    
C3    O3    A    
C101  H83   S    
C77   H18   S    
C30   C80   S    
C43   C67   S    
O37   H75   S    
C116  C117  S    
Cu3   O5    S    
C22   C70   S    
C9    C45   T    
C91   H42   S    
C26   C72   S    
C11   C47   T    
C115  H105  S    
C12   C48   T    
C98   H68   S    
S8    O39   D    
C110  C111  S    
C56   S3    S    
Cu1   Cu2   S    
C4    O12   A    
C28   C116  S    
C26   C122  S    
C93   C94   S    
C8    O16   A    
C120  C121  S    
C104  C105  S    
S4    O26   D    
C79   H14   S    
Cu4   O13   S    
C103  H77   S    
C69   C73   S    
C92   H53   S    
C72   C76   S    
C109  H93   S    
C95   H60   S    
C10   C62   S    
C88   H35   S    
C97   H57   S    
C123  H129  S    
S3    O25   S    
C121  H119  S    
C54   C62   S    
C116  H117  S    
C33   C37   S    
C35   C39   S    
C118  H112  S    
C36   C56   S    
O28   H72   S    
C108  H95   S    
C22   C110  S    
C86   H40   S    
C29   C57   S    
C117  H115  S    
C21   C23   S    
C83   C84   S    
C22   C24   S    
C102  C103  S    
C32   C60   S    
C28   C76   S    
C10   C46   T    
C77   C78   S    
S5    O31   S    
Cu3   O14   S    
C80   H25   S    
C16   C52   T    
C57   C65   S    
C83   H32   S    
C89   H47   S    
C113  H110  S    
C100  H62   S    
C5    O13   A    
S4    O28   S    
C19   C75   S    
C7    O15   A    
C81   H23   S    
C72   H3    S    
C58   S5    S    
C90   H44   S    
C60   C68   S    
C124  H126  S    
C30   C42   S    
C8    C49   S    
C78   H17   S    
C27   C72   S    
C122  H132  S    
C107  H97   S    
C85   H29   S    
S3    O23   D    
C94   H48   S    
O22   H70   S    
C92   C93   S    
C31   C83   S    
C36   C67   S    
C13   C65   S    
C95   C96   S    
C108  C109  S    
C105  H88   S    
Cu2   O9    S    
C114  H109  S    
C53   S2    S    
C37   H5    S    
C115  H106  S    
C118  H114  S    
C84   H31   S    
Cu2   N1    S    
C20   C76   S    
C24   C104  S    
C70   H1    S    
C32   C86   S    
C58   C66   S    
C122  C123  S    
S1    O18   D    
Cu2   O2    S    
C82   H22   S    
C5    C52   S    
S2    O20   D    
C16   C68   S    
C6    C51   S    
C112  H98   S    
C37   C58   S    
C18   C74   S    
C40   C59   S    
C6    O14   A    
C93   H51   S    
C23   C73   S    
C34   C65   S    
C24   C69   S    
C121  H121  S    
C33   C53   S    
C35   C55   S    
Cu1   O11   S    
O31   H73   S    
C34   C92   S    
C1    O1    A    
C100  H64   S    
C41   C65   S    
C3    O11   A    
C21   C74   S    
C43   H11   S    
C120  H123  S    
C87   H37   S    
C92   H54   S    
C124  H128  S    
S2    O22   S    
C113  C114  S    
C14   C66   S    
C13   C49   T    
C101  H82   S    
C110  H104  S    
C94   H50   S    
C4    O4    A    
C18   N2    T    
Cu3   O8    S    
C44   C68   S    
C109  H91   S    
C42   C66   S    
C71   H4    S    
C29   C62   S    
C104  H90   S    
C34   C38   S    
C31   C64   S    
C32   C63   S    
C98   H67   S    
C37   C61   S    
C25   C27   S    
C39   C63   S    
C26   C28   S    
C40   C64   S    
Cu3   O15   S    
C106  H85   S    
C89   C90   S    
C71   C75   S    
C24   C74   S    
S6    O32   D    
C82   H20   S    
C35   C68   S    
C30   C58   S    
C102  H80   S    
C112  H100  S    
C41   C54   S    
Cu3   Cu4   S    
C43   C56   S    
C2    O2    A    
S4    O27   D    
O40   H76   S    
C54   S1    S    
C99   H65   S    
C22   C73   S    
C119  H125  S    
C96   H58   S    
C81   C82   S    
