data_mof_unit_50160.cif
_audit_creation_date              2012-12-11T17:17:03-0500
_audit_creation_method            fapswitch 2.2
_symmetry_space_group_name_H-M    P1
_symmetry_Int_Tables_number       1
_space_group_crystal_system       triclinic
_cell_length_a                    6.960616
_cell_length_b                    13.313849
_cell_length_c                    14.732169
_cell_angle_alpha                 98.931104
_cell_angle_beta                  89.819615
_cell_angle_gamma                 90.282894
_cell_volume                      1348.69502634

loop_
_atom_site_label
_atom_site_type_symbol
_atom_type_description
_atom_site_fract_x
_atom_site_fract_y
_atom_site_fract_z
_atom_type_partial_charge
O1    O     O_R   0.354890 0.151580 0.148210 -0.536717
O2    O     O_R   0.645110 0.848420 0.851790 -0.538876
O3    O     O_R   0.682370 0.152980 0.336770 -0.529105
O4    O     O_R   0.317630 0.847020 0.663230 -0.529342
O5    O     O_R   0.854980 0.348430 0.351800 -0.529252
O6    O     O_R   0.145020 0.651570 0.648200 -0.535673
C1    C     C_R   0.513274 0.129393 0.364208 0.754393
C2    C     C_R   0.486553 0.868955 0.634065 0.790859
O7    O     O_R   0.684450 0.139580 0.148000 -0.538604
O8    O     O_R   0.315550 0.860420 0.852000 -0.532684
O9    O     O_R   0.857080 0.334940 0.161680 -0.538390
O10   O     O_R   0.142920 0.665060 0.838320 -0.540877
C3    C     C_R   0.515560 0.112712 0.114082 0.721589
C4    C     C_R   0.484433 0.887204 0.885987 0.743580
O11   O     O_R   0.352790 0.165070 0.338330 -0.546090
O12   O     O_R   0.647210 0.834930 0.661670 -0.545755
O13   O     O_3   0.522170 0.314120 0.254710 -0.372723
O14   O     O_3   0.477830 0.685880 0.745290 -0.378132
V1    V     V_3+5 0.796120 0.238110 0.249130 1.475902
V2    V     V_3+5 0.203880 0.761890 0.750870 1.481236
O15   O     O_R   0.186930 0.347040 0.163240 -0.543562
O16   O     O_R   0.813070 0.652960 0.836760 -0.545384
C5    C     C_R   0.018566 0.369787 0.134744 0.691918
C6    C     C_R   0.981288 0.631447 0.866455 0.683616
O17   O     O_R   0.184850 0.360440 0.352010 -0.540402
O18   O     O_R   0.815150 0.639560 0.647990 -0.537184
C7    C     C_R   0.015909 0.386891 0.386239 0.740430
C8    C     C_R   0.984127 0.612285 0.614391 0.734731
V3    V     V_3+5 0.296410 0.261900 0.250880 1.440681
V4    V     V_3+5 0.703590 0.738100 0.749120 1.443887
O19   O     O_3   0.020490 0.185890 0.245290 -0.369753
O20   O     O_3   0.979510 0.814110 0.754710 -0.366606
C9    C     C_1   0.005137 0.465996 0.467020 -0.184868
C10   C     C_1   0.994676 0.532170 0.534390 -0.188757
C11   C     C_3   0.074080 0.591065 0.034509 0.021068
C12   C     C_3   0.925433 0.411477 0.968308 0.020586
C13   C     C_3   0.900130 0.542402 0.076732 -0.188600
C14   C     C_3   0.099451 0.460062 0.926105 -0.193280
H1    H     H_    0.820098 0.576080 0.139268 0.114039
H2    H     H_    0.182115 0.427040 0.864393 0.119131
C15   C     C_3   0.009975 0.440626 0.064802 -0.049975
C16   C     C_3   0.989664 0.561952 0.937798 -0.051971
C17   C     C_3   0.185297 0.489929 0.024013 -0.154243
C18   C     C_3   0.814135 0.512629 0.978773 -0.156633
H3    H     H_    0.337721 0.481346 0.043336 0.118826
H4    H     H_    0.661699 0.521132 0.959438 0.117800
C19   C     C_3   0.316240 0.014703 0.470269 -0.435753
C20   C     C_3   0.683006 0.979604 0.523592 -0.329714
C21   C     C_3   0.415989 0.909169 0.464437 0.365203
C22   C     C_3   0.584664 0.084376 0.530374 0.352525
H5    H     H_    0.167494 0.030924 0.449883 0.159032
H6    H     H_    0.832337 0.966732 0.545208 0.147941
C23   C     C_3   0.495686 0.937671 0.562502 -0.210833
C24   C     C_3   0.504339 0.057064 0.432268 -0.236590
C25   C     C_3   0.399207 0.043176 0.568241 0.361014
C26   C     C_3   0.599252 0.951757 0.425621 0.408103
C27   C     C_1   0.504981 0.032989 0.033777 -0.146456
C28   C     C_1   0.495036 0.966752 0.966442 -0.144601
C29   C     C_1   0.156713 0.690588 0.071338 0.248856
N1    N     N_1   0.221799 0.769126 0.100302 -0.399025
C30   C     C_1   0.842405 0.311215 0.934321 0.244003
N2    N     N_1   0.776788 0.232043 0.908039 -0.381973
O21   O     O_3   0.348231 0.810517 0.429486 -0.554990
C31   C     C_3   0.154270 0.813964 0.403249 0.136669
H7    H     H_    0.133459 0.867315 0.352910 0.140688
H8    H     H_    0.062243 0.836835 0.464828 0.136763
C32   C     C_3   0.092170 0.708866 0.356871 -0.689552
H9    H     H_    0.121412 0.652129 0.402670 0.218556
H10   H     H_    0.936070 0.708501 0.341663 0.205032
H11   H     H_    0.172745 0.687458 0.291580 0.218190
O22   O     O_3   0.673209 0.179788 0.556694 -0.563712
C33   C     C_3   0.712697 0.196869 0.651574 0.089409
H12   H     H_    0.840822 0.153538 0.666193 0.144028
H13   H     H_    0.596141 0.172414 0.694424 0.168426
C34   C     C_3   0.742941 0.310649 0.680714 -0.724958
H14   H     H_    0.606748 0.351628 0.673177 0.216956
H15   H     H_    0.788770 0.327169 0.753338 0.193845
H16   H     H_    0.853891 0.339234 0.636694 0.223858
O23   O     O_3   0.295003 0.089652 0.645581 -0.557820
C35   C     C_3   0.232656 0.186962 0.631345 0.092904
H17   H     H_    0.099717 0.179718 0.589751 0.146283
H18   H     H_    0.337431 0.228322 0.593623 0.151001
C36   C     C_3   0.199248 0.252574 0.724190 -0.744714
H19   H     H_    0.334253 0.261441 0.764493 0.224290
H20   H     H_    0.151215 0.329238 0.713809 0.170336
H21   H     H_    0.090026 0.217303 0.764399 0.243830
O24   O     O_3   0.710937 0.899831 0.353109 -0.559534
C37   C     C_3   0.612952 0.894156 0.268707 0.126063
H22   H     H_    0.456226 0.879391 0.274831 0.138464
H23   H     H_    0.633947 0.966001 0.240545 0.105120
C38   C     C_3   0.697027 0.808076 0.200486 -0.686576
H24   H     H_    0.669217 0.734281 0.224429 0.216011
H25   H     H_    0.629709 0.806593 0.132054 0.192511
H26   H     H_    0.854379 0.819097 0.193895 0.230056

loop_
_geom_bond_atom_site_label_1
_geom_bond_atom_site_label_2
_ccdc_geom_bond_type
V4    O20   S    
O24   C37   S    
C21   O21   S    
O13   V3    S    
O4    C2    A    
V1    O19   S    
C19   C21   S    
C6    C16   S    
C7    C9    S    
O9    V1    S    
C22   C24   S    
C11   C13   S    
C14   C16   S    
O3    C1    A    
C35   C36   S    
C3    C27   S    
O12   V4    S    
C25   O23   S    
C11   C29   S    
C11   C16   S    
O7    C3    A    
O5    C7    A    
O7    V1    S    
O6    C8    A    
O8    V2    S    
O3    V1    S    
O14   V4    S    
C11   C17   S    
C1    O11   A    
C8    C10   S    
C29   N1    T    
C2    O12   A    
C15   C17   S    
C12   C15   S    
C16   C18   S    
C33   C34   S    
C18   H4    S    
O11   V3    S    
C23   C25   S    
O17   V3    S    
C20   C23   S    
C4    C28   S    
C24   C26   S    
C32   H9    S    
C31   C32   S    
C33   H13   S    
O8    C4    A    
C38   H24   S    
C35   H17   S    
C26   O24   S    
C19   H5    S    
O15   V3    S    
O21   C31   S    
C32   H10   S    
C31   H8    S    
C34   H14   S    
C38   H25   S    
C34   H15   S    
C36   H19   S    
C37   C38   S    
O10   V2    S    
O1    V3    S    
C9    C10   T    
C22   O22   S    
C20   C22   S    
C17   H3    S    
C19   C24   S    
C35   H18   S    
C36   H20   S    
C37   H23   S    
O18   V4    S    
O15   C5    A    
O16   C6    A    
C12   C18   S    
O1    C3    A    
C12   C30   S    
C19   C25   S    
V2    O20   S    
C20   C26   S    
O16   V4    S    
C33   H12   S    
C2    C23   S    
O5    V1    S    
O17   C7    A    
C21   C26   S    
O6    V2    S    
O10   C6    A    
O18   C8    A    
C22   C25   S    
C5    C15   S    
O2    V4    S    
C32   H11   S    
C31   H7    S    
C13   C18   S    
C12   C14   S    
C14   C17   S    
V3    O19   S    
C38   H26   S    
C14   H2    S    
C27   C28   T    
C21   C23   S    
O9    C5    A    
O13   V1    S    
O14   V2    S    
C13   C15   S    
C30   N2    T    
O2    C4    A    
C34   H16   S    
O23   C35   S    
O4    V2    S    
C20   H6    S    
C36   H21   S    
O22   C33   S    
C37   H22   S    
C13   H1    S    
C1    C24   S    
