data_mof_unit_38843.cif
_audit_creation_date              2012-12-10T17:23:42-0500
_audit_creation_method            fapswitch 2.2
_symmetry_space_group_name_H-M    P1
_symmetry_Int_Tables_number       1
_space_group_crystal_system       triclinic
_cell_length_a                    9.609526
_cell_length_b                    10.856852
_cell_length_c                    17.364475
_cell_angle_alpha                 94.227399
_cell_angle_beta                  85.857444
_cell_angle_gamma                 89.236043
_cell_volume                      1801.65579108

loop_
_atom_site_label
_atom_site_type_symbol
_atom_type_description
_atom_site_fract_x
_atom_site_fract_y
_atom_site_fract_z
_atom_type_partial_charge
C1    C     C_R   0.498537 0.738014 0.505766 0.850141
C2    C     C_R   0.392236 0.398292 0.767143 -0.311868
C3    C     C_R   0.418574 0.477800 0.141926 0.435182
C4    C     C_R   0.405506 0.488927 0.223339 0.370286
C5    C     C_R   0.656650 0.515204 0.225123 -0.297216
C6    C     C_R   0.667474 0.515250 0.144998 -0.255261
C7    C     C_R   0.549826 0.495534 0.103327 0.016691
C8    C     C_2   0.511762 0.420882 0.970236 -0.128935
C9    C     C_2   0.563720 0.505859 0.019767 -0.181913
C10   C     C_R   0.526558 0.500997 0.265162 -0.190329
C11   C     C_R   0.292316 0.893616 0.612441 0.433885
C12   C     C_R   0.482368 0.496409 0.649231 0.834698
C13   C     C_R   0.174412 0.963956 0.643003 0.482373
C14   C     C_R   0.175809 0.091608 0.640686 -0.324750
C15   C     C_R   0.286540 0.147029 0.602269 -0.267422
C16   C     C_R   0.391803 0.075567 0.557379 0.054632
C17   C     C_R   0.392952 0.945337 0.560669 -0.099300
C18   C     C_R   0.497696 0.873362 0.514612 -0.088668
C19   C     C_R   0.604758 0.931682 0.473021 -0.213244
C20   C     C_R   0.606052 0.058649 0.472205 -0.208048
C21   C     C_R   0.498916 0.130834 0.511848 -0.044495
C22   C     C_R   0.872234 0.338741 0.392859 -0.243194
C23   C     C_R   0.500013 0.263194 0.503354 0.752910
C24   C     C_R   0.952555 0.259581 0.339253 0.474427
C25   C     C_R   0.096140 0.258833 0.340861 -0.241814
C26   C     C_R   0.160149 0.338516 0.392979 -0.116978
C27   C     C_R   0.082956 0.423009 0.445930 0.103505
C28   C     C_R   0.933490 0.422473 0.446252 0.123547
C29   C     C_R   0.916754 0.568793 0.553434 -0.163803
C30   C     C_R   0.064016 0.562841 0.556893 0.528052
C31   C     C_R   0.517941 0.500556 0.350067 0.812764
C32   C     C_R   0.478740 0.483939 0.732150 -0.106755
C33   C     C_R   0.578654 0.545561 0.774189 -0.206992
C34   C     C_R   0.591361 0.523610 0.850753 -0.227907
C35   C     C_R   0.503285 0.439980 0.887461 0.071611
C36   C     C_R   0.402789 0.376442 0.845195 0.540074
Cu1   Cu    Cu3+1 0.359340 0.500010 0.500010 0.988500
Cu2   Cu    Cu3+1 0.640660 0.499990 0.499990 0.929389
H1    H     H_    0.649053 0.609471 0.747125 0.148782
H2    H     H_    0.768276 0.529869 0.115227 0.170106
H3    H     H_    0.686203 0.878289 0.438599 0.165438
H4    H     H_    0.093576 0.148559 0.671719 0.170623
H5    H     H_    0.286720 0.246231 0.609479 0.192305
H6    H     H_    0.688548 0.100425 0.437652 0.172112
H7    H     H_    0.853614 0.624772 0.597115 0.141289
H8    H     H_    0.762777 0.327976 0.392531 0.206416
H9    H     H_    0.159207 0.194729 0.301686 0.159665
H10   H     H_    0.270426 0.327697 0.390470 0.215196
H11   H     H_    0.750251 0.527989 0.255789 0.191035
H12   H     H_    0.612038 0.588948 0.000708 0.144347
H13   H     H_    0.321084 0.344732 0.733303 0.137418
H14   H     H_    0.465281 0.338925 0.992543 0.199035
H15   H     H_    0.672953 0.570727 0.879903 0.151034
N1    N     N_R   0.852190 0.498790 0.499250 -0.204017
N2    N     N_R   0.148060 0.498710 0.499220 -0.236045
O1    O     O_R   0.381190 0.680360 0.500010 -0.525319
O2    O     O_R   0.618760 0.680340 0.500000 -0.595863
O3    O     O_R   0.367440 0.500030 0.613600 -0.544589
O4    O     O_R   0.605010 0.500010 0.613590 -0.586403
O5    O     O_R   0.381240 0.319660 0.500000 -0.621405
O6    O     O_R   0.618810 0.319640 0.499990 -0.595947
O7    O     O_R   0.394990 0.499990 0.386410 -0.556936
O8    O     O_R   0.632560 0.499970 0.386400 -0.608155
O9    O     O_3   0.314873 0.779947 0.640136 -0.516283
C37   C     C_3   0.382000 0.797808 0.709719 -0.295237
H16   H     H_    0.339520 0.878298 0.748308 0.163668
H17   H     H_    0.496086 0.807707 0.696717 0.134775
H18   H     H_    0.364580 0.715773 0.743077 0.188424
O10   O     O_3   0.067342 0.909236 0.684525 -0.574257
C38   C     C_3   0.947142 0.911148 0.642373 -0.303088
H19   H     H_    0.861065 0.866304 0.675116 0.168085
H20   H     H_    0.965598 0.858427 0.584974 0.169446
H21   H     H_    0.911044 0.007071 0.634992 0.161126
O11   O     O_3   0.892488 0.171962 0.290607 -0.583515
C39   C     C_3   0.811301 0.230876 0.239118 -0.329987
H22   H     H_    0.868272 0.307212 0.211898 0.164121
H23   H     H_    0.710134 0.264786 0.268564 0.161293
H24   H     H_    0.787244 0.162071 0.191727 0.193545
O12   O     O_3   0.274472 0.484707 0.261429 -0.582916
C40   C     C_3   0.212513 0.603815 0.266377 -0.248521
H25   H     H_    0.192799 0.633389 0.208106 0.180262
H26   H     H_    0.277277 0.672956 0.297292 0.153646
H27   H     H_    0.110193 0.601174 0.300129 0.174856
O13   O     O_3   0.121501 0.617522 0.621178 -0.525348
C41   C     C_3   0.078930 0.555622 0.688274 0.081153
H28   H     H_    0.173417 0.521779 0.713244 0.175878
H29   H     H_    0.013194 0.472821 0.677345 0.088507
C42   C     C_3   0.002910 0.645304 0.749675 -0.302641
H30   H     H_    0.068952 0.726633 0.761060 0.286349
H31   H     H_    0.902722 0.676043 0.728855 0.198354
C43   C     C_3   0.973543 0.585648 0.825772 -0.985836
H32   H     H_    0.913381 0.499808 0.816614 0.263999
H33   H     H_    0.912425 0.651152 0.867731 0.262817
H34   H     H_    0.073304 0.563706 0.850570 0.258107
O14   O     O_3   0.325484 0.284555 0.878170 -0.591929
C44   C     C_3   0.184070 0.322360 0.888184 -0.351724
H35   H     H_    0.170733 0.410517 0.925162 0.178601
H36   H     H_    0.124663 0.250978 0.918390 0.194570
H37   H     H_    0.138352 0.330547 0.831716 0.163363
O15   O     O_3   0.301549 0.465124 0.099829 -0.582394
C45   C     C_3   0.242795 0.347872 0.108833 -0.292662
H38   H     H_    0.172128 0.349194 0.162319 0.211228
H39   H     H_    0.323121 0.272679 0.108297 0.135353
H40   H     H_    0.178081 0.325080 0.059641 0.180917

loop_
_geom_bond_atom_site_label_1
_geom_bond_atom_site_label_2
_ccdc_geom_bond_type
C16   C21   A    
O14   C44   S    
Cu1   O7    S    
C41   H28   S    
C26   C27   A    
C45   H38   S    
C1    O1    A    
C18   C19   A    
C3    C7    A    
C5    C6    A    
C27   N2    A    
C29   N1    A    
C15   C16   A    
C44   H37   S    
C2    C32   A    
C34   C35   A    
C12   O4    A    
C3    O15   S    
C19   C20   A    
C8    C9    D    
C37   H17   S    
C44   H36   S    
C38   H19   S    
C29   C30   A    
C8    H14   S    
Cu1   O3    S    
C26   H10   S    
C14   H4    S    
Cu2   O6    S    
C12   O3    A    
C45   H39   S    
C22   C28   A    
C13   C14   A    
C12   C32   S    
Cu1   O1    S    
C31   O7    A    
C5    H11   S    
C40   H27   S    
C10   C31   S    
C20   H6    S    
C33   C34   A    
C41   H29   S    
C23   O5    A    
O11   C39   S    
C31   O8    A    
C24   C25   A    
C4    O12   S    
C40   H26   S    
C11   O9    S    
C43   H32   S    
C28   N1    A    
C16   C17   A    
C25   C26   A    
O12   C40   S    
C29   H7    S    
C35   C36   A    
C39   H22   S    
Cu1   Cu2   S    
C1    O2    A    
C43   H33   S    
Cu2   O2    S    
Cu2   N1    S    
C42   C43   S    
C37   H18   S    
C44   H35   S    
C20   C21   A    
C38   H21   S    
C17   C18   A    
C1    C18   S    
C33   H1    S    
O13   C41   S    
C39   H23   S    
C22   H8    S    
C42   H31   S    
C45   H40   S    
C21   C23   S    
C22   C24   A    
C4    C10   A    
C3    C4    A    
Cu2   O8    S    
C41   C42   S    
C2    C36   A    
C7    C9    S    
C25   H9    S    
C11   C17   A    
C9    H12   S    
C40   H25   S    
C6    C7    A    
C30   N2    A    
C32   C33   A    
C15   H5    S    
C5    C10   A    
O9    C37   S    
C43   H34   S    
C11   C13   A    
C36   O14   S    
C24   O11   S    
C13   O10   S    
O15   C45   S    
C6    H2    S    
C30   O13   S    
O10   C38   S    
C39   H24   S    
Cu1   O5    S    
C2    H13   S    
Cu2   O4    S    
Cu1   N2    S    
C23   O6    A    
C42   H30   S    
C34   H15   S    
C37   H16   S    
C27   C28   A    
C14   C15   A    
C38   H20   S    
C8    C35   S    
C19   H3    S    
