data_mof_unit_14947.cif
_audit_creation_date              2012-10-26T18:43:34-0400
_audit_creation_method            fapswitch 2.2
_symmetry_space_group_name_H-M    P1
_symmetry_Int_Tables_number       1
_space_group_crystal_system       triclinic
_cell_length_a                    10.747716
_cell_length_b                    10.866487
_cell_length_c                    9.538553
_cell_angle_alpha                 89.746092
_cell_angle_beta                  90.070226
_cell_angle_gamma                 90.398742
_cell_volume                      1113.96809478

loop_
_atom_site_label
_atom_site_type_symbol
_atom_type_description
_atom_site_fract_x
_atom_site_fract_y
_atom_site_fract_z
_atom_type_partial_charge
C1    C     C_R   0.501019 0.262636 0.500141 0.576577
C2    C     C_R   0.511965 0.936118 0.622307 0.045176
C3    C     C_3   0.428653 0.932269 0.748049 0.236547
C4    C     C_R   0.260040 0.496493 0.500129 0.586095
C5    C     C_3   0.432904 0.071512 0.749172 -0.200565
C6    C     C_R   0.606991 0.523458 0.073724 0.201906
C7    C     C_R   0.397686 0.464123 0.074357 -0.018811
C8    C     C_R   0.397689 0.464074 0.925675 -0.015142
C9    C     C_R   0.607073 0.523255 0.926366 0.159817
C10   C     C_3   0.685083 0.637117 0.920149 -0.275152
C11   C     C_3   0.684501 0.637561 0.079163 -0.263176
C12   C     C_3   0.878003 0.491564 0.500102 0.011583
C13   C     C_R   0.497681 0.737875 0.499148 0.538671
C14   C     C_R   0.739937 0.494400 0.500031 0.571870
C15   C     C_3   0.072064 0.446805 0.644600 -0.210170
C16   C     C_3   0.928759 0.449807 0.646723 -0.033842
C17   C     C_3   0.070357 0.624467 0.462692 -0.021149
C18   C     C_3   0.072863 0.402297 0.387865 0.227685
C19   C     C_3   0.122298 0.493990 0.500806 0.021656
C20   C     C_3   0.360549 0.859818 0.192930 -0.246573
C21   C     C_3   0.878334 0.305036 0.838503 -0.274603
C22   C     C_3   0.113037 0.739953 0.689487 -0.290932
C23   C     C_3   0.926535 0.623990 0.470214 -0.218910
C24   C     C_3   0.928851 0.403624 0.384411 0.248037
C25   C     C_R   0.514736 0.063203 0.623506 -0.030903
C26   C     C_R   0.508391 0.130031 0.498955 -0.019908
C27   C     C_R   0.509139 0.067344 0.371051 -0.132374
C28   C     C_R   0.501502 0.939240 0.367776 0.093928
C29   C     C_R   0.500445 0.871878 0.496034 -0.012974
Cu1   Cu    Cu3+1 0.499990 0.499980 0.640670 0.961396
Cu2   Cu    Cu3+1 0.500010 0.500020 0.359330 0.980398
F1    F     F_    0.890274 0.441207 0.252258 -0.692861
F2    F     F_    0.487287 0.882495 0.863858 -0.679292
F3    F     F_    0.114559 0.283927 0.414881 -0.677511
H1    H     H_    0.108621 0.500806 0.733914 0.105613
H2    H     H_    0.314293 0.436084 0.870764 0.110188
H3    H     H_    0.778864 0.620422 0.876553 0.102653
H4    H     H_    0.635848 0.715930 0.872143 0.231821
H5    H     H_    0.777839 0.621045 0.125258 0.181915
H6    H     H_    0.634091 0.716609 0.124176 0.181796
H7    H     H_    0.900748 0.520274 0.724238 0.145630
H8    H     H_    0.891327 0.688363 0.550880 0.127079
H9    H     H_    0.108733 0.429167 0.282578 0.167641
H10   H     H_    0.891624 0.308991 0.400501 0.175139
H11   H     H_    0.539517 0.922520 0.156659 0.275485
H12   H     H_    0.093797 0.640851 0.350191 0.121417
H13   H     H_    0.313333 0.948997 0.173581 0.146457
H14   H     H_    0.309047 0.807384 0.274740 0.144405
H15   H     H_    0.358713 0.805067 0.094929 0.189286
H16   H     H_    0.904578 0.257007 0.629937 0.265360
H17   H     H_    0.827569 0.217493 0.859356 0.157669
H18   H     H_    0.831318 0.379449 0.897142 0.176468
H19   H     H_    0.975583 0.295911 0.876536 0.141503
H20   H     H_    0.213209 0.754173 0.502942 0.243318
H21   H     H_    0.191502 0.694360 0.744303 0.154876
H22   H     H_    0.023475 0.702340 0.728062 0.133385
H23   H     H_    0.888408 0.658039 0.368689 0.149914
H24   H     H_    0.115748 0.839172 0.716366 0.141109
H25   H     H_    0.507153 0.117508 0.272616 0.148774
H26   H     H_    0.335297 0.892315 0.726817 0.107773
H27   H     H_    0.341485 0.114296 0.725487 0.101139
H28   H     H_    0.482836 0.110673 0.841077 0.172922
H29   H     H_    0.314276 0.436242 0.129345 0.124775
H30   H     H_    0.106168 0.351650 0.663561 0.179569
N1    N     N_R   0.500800 0.500930 0.147930 -0.234676
N2    N     N_R   0.500800 0.500890 0.852020 -0.226676
N3    N     N_2   0.488281 0.880850 0.235273 -0.490510
N4    N     N_2   0.876936 0.330879 0.689472 -0.518761
N5    N     N_2   0.126790 0.727235 0.539119 -0.514894
O1    O     O_R   0.500000 0.319640 0.618810 -0.496899
O2    O     O_R   0.500010 0.319680 0.381230 -0.498275
O3    O     O_R   0.317690 0.499960 0.618790 -0.521836
O4    O     O_R   0.317700 0.500000 0.381210 -0.527022
O5    O     O_R   0.499990 0.680320 0.618770 -0.487305
O6    O     O_R   0.500000 0.680360 0.381190 -0.479121
O7    O     O_R   0.682300 0.500000 0.618790 -0.498827
O8    O     O_R   0.682310 0.500040 0.381210 -0.456768

loop_
_geom_bond_atom_site_label_1
_geom_bond_atom_site_label_2
_ccdc_geom_bond_type
C17   N5    S    
C20   N3    S    
C21   H17   S    
C6    C9    A    
C7    C8    A    
C15   C19   S    
C12   C23   S    
C26   C27   A    
C17   C23   S    
C23   H8    S    
C10   H3    S    
C18   C24   S    
C13   C29   S    
C28   C29   A    
Cu1   Cu2   S    
Cu1   O5    S    
Cu2   O4    S    
C3    F2    S    
C15   C16   S    
Cu2   N1    S    
C18   C19   S    
C8    H2    S    
C14   O8    A    
C9    N2    A    
C4    C19   S    
C6    N1    A    
C12   C16   S    
H11   N3    S    
C15   H30   S    
C8    N2    A    
C16   N4    S    
C9    C10   S    
C22   N5    S    
C3    H26   S    
Cu2   O2    S    
C15   H1    S    
Cu1   O1    S    
Cu2   O8    S    
C13   O6    A    
C28   N3    S    
C17   H12   S    
C6    C11   S    
C22   H22   S    
C25   C26   A    
C14   O7    A    
C24   F1    S    
C20   H15   S    
C7    N1    A    
Cu1   O7    S    
Cu2   O6    S    
C5    H27   S    
C1    O2    A    
C11   H5    S    
C18   F3    S    
C7    H29   S    
C4    O4    A    
Cu1   N2    S    
C5    C25   S    
C12   C14   S    
C2    C29   A    
C21   N4    S    
C1    C26   S    
C24   H10   S    
C4    O3    A    
C23   H23   S    
C20   H14   S    
C3    C5    S    
C22   H24   S    
Cu1   O3    S    
C22   H21   S    
C12   C24   S    
C1    O1    A    
C10   H4    S    
C2    C3    S    
C27   H25   S    
C18   H9    S    
C21   H19   S    
H20   N5    S    
C17   C19   S    
C5    H28   S    
C2    C25   A    
C11   H6    S    
C20   H13   S    
C10   C11   S    
C13   O5    A    
C27   C28   A    
H16   N4    S    
C16   H7    S    
C21   H18   S    
