data_mof_unit_56818.cif
_audit_creation_date              2012-12-11T14:21:01-0500
_audit_creation_method            fapswitch 2.2
_symmetry_space_group_name_H-M    P1
_symmetry_Int_Tables_number       1
_space_group_crystal_system       triclinic
_cell_length_a                    22.048603
_cell_length_b                    7.20132
_cell_length_c                    14.88658
_cell_angle_alpha                 90.177179
_cell_angle_beta                  106.932313
_cell_angle_gamma                 90.101827
_cell_volume                      2261.19068296

loop_
_atom_site_label
_atom_site_type_symbol
_atom_type_description
_atom_site_fract_x
_atom_site_fract_y
_atom_site_fract_z
_atom_type_partial_charge
O1    O     O_R   0.584770 0.505770 0.002090 -0.527917
O2    O     O_R   0.415230 0.005770 0.997910 -0.527706
O3    O     O_R   0.467060 0.173340 0.861950 -0.532366
O4    O     O_R   0.532940 0.673340 0.138050 -0.532200
C1    C     C_R   0.454673 0.343699 0.825923 0.692583
C2    C     C_R   0.545247 0.844557 0.174018 0.691761
O5    O     O_R   0.587510 0.175890 0.993210 -0.528203
O6    O     O_R   0.412490 0.675890 0.006790 -0.528718
O7    O     O_R   0.536540 0.008150 0.130100 -0.540284
O8    O     O_R   0.463460 0.508150 0.869900 -0.540566
C3    C     C_R   0.613072 0.344435 0.999661 0.744784
C4    C     C_R   0.386904 0.844176 0.000195 0.742849
O9    O     O_3   0.483140 0.340040 0.044760 -0.371984
O10   O     O_3   0.516860 0.840040 0.955240 -0.371815
V1    V     V_3+5 0.503130 0.064190 0.991700 1.539599
V2    V     V_3+5 0.496870 0.564190 0.008300 1.539105
C5    C     C_2   0.215633 0.737763 0.999197 0.205615
C6    C     C_2   0.783910 0.237228 0.999461 0.205529
C7    C     C_2   0.182136 0.888023 0.011356 -0.314770
C8    C     C_2   0.817806 0.387491 0.988290 -0.315143
H1    H     H_    0.207922 0.015514 0.037222 0.163006
H2    H     H_    0.792314 0.515184 0.963241 0.165005
C9    C     C_2   0.285737 0.745385 0.027504 0.098783
C10   C     C_2   0.713824 0.245647 0.971408 0.100172
C11   C     C_2   0.317537 0.852630 0.981813 -0.027808
C12   C     C_2   0.682407 0.353295 0.017626 -0.025367
C13   C     C_R   0.927687 0.885527 0.723642 -0.088573
C14   C     C_R   0.072092 0.389040 0.276627 -0.091389
C15   C     C_R   0.574486 0.853630 0.275384 -0.030931
C16   C     C_R   0.425446 0.348277 0.724414 -0.033220
C17   C     C_R   0.939696 0.876090 0.566137 0.466003
C18   C     C_R   0.061342 0.426925 0.433874 0.461469
C19   C     C_R   0.966388 0.877460 0.664695 -0.254674
C20   C     C_R   0.034642 0.425820 0.335446 -0.250141
C21   C     C_R   0.862036 0.887740 0.686528 -0.217819
C22   C     C_R   0.136946 0.359408 0.314031 -0.215568
C23   C     C_R   0.832739 0.880572 0.588634 0.028759
C24   C     C_R   0.166817 0.371653 0.411743 0.028625
C25   C     C_R   0.872669 0.874661 0.528736 0.027466
C26   C     C_R   0.127817 0.404204 0.471428 0.026128
C27   C     C_R   0.765162 0.878600 0.548648 0.077575
C28   C     C_R   0.234160 0.355694 0.451653 0.078183
C29   C     C_R   0.738320 0.870935 0.448880 0.057599
C30   C     C_R   0.261573 0.370308 0.551165 0.057301
C31   C     C_R   0.779849 0.866498 0.392437 -0.177009
C32   C     C_R   0.220749 0.398163 0.607509 -0.174757
C33   C     C_R   0.845141 0.868271 0.431466 -0.163987
C34   C     C_R   0.155722 0.414725 0.568516 -0.161753
C35   C     C_R   0.723481 0.883132 0.605184 -0.167003
C36   C     C_R   0.275123 0.328005 0.395202 -0.164922
C37   C     C_R   0.658237 0.879311 0.566164 -0.183041
C38   C     C_R   0.340180 0.313749 0.434108 -0.181211
C39   C     C_R   0.631403 0.870863 0.469369 0.126609
C40   C     C_R   0.367534 0.326677 0.530686 0.127047
C41   C     C_R   0.670785 0.867218 0.408981 0.081421
C42   C     C_R   0.328949 0.356266 0.590931 0.081153
C43   C     C_R   0.565082 0.865593 0.432550 -0.155617
C44   C     C_R   0.433541 0.308511 0.567481 -0.155327
C45   C     C_R   0.536811 0.856404 0.336037 -0.162893
C46   C     C_R   0.462214 0.317362 0.663881 -0.163010
C47   C     C_R   0.640600 0.859338 0.311009 -0.188815
C48   C     C_R   0.359688 0.368817 0.688686 -0.186359
H3    H     H_    0.874174 0.864482 0.383962 0.183089
H4    H     H_    0.127227 0.437269 0.615817 0.182424
H5    H     H_    0.666642 0.856868 0.260042 0.127276
H6    H     H_    0.334196 0.390116 0.739533 0.124980
H7    H     H_    0.485596 0.851980 0.308596 0.129154
H8    H     H_    0.513032 0.298972 0.691392 0.132664
H9    H     H_    0.628384 0.882523 0.612592 0.151915
H10   H     H_    0.369467 0.291878 0.387776 0.146758
H11   H     H_    0.017137 0.871440 0.696672 0.121410
H12   H     H_    0.984857 0.454834 0.303721 0.125007
H13   H     H_    0.835582 0.894749 0.736844 0.122519
H14   H     H_    0.162622 0.332620 0.263977 0.121741
H15   H     H_    0.763618 0.861278 0.316970 0.162372
H16   H     H_    0.237384 0.408918 0.682827 0.159020
H17   H     H_    0.739342 0.889065 0.680600 0.151894
H18   H     H_    0.258830 0.316892 0.319932 0.146640
H19   H     H_    0.535020 0.868214 0.478639 0.123685
H20   H     H_    0.462964 0.284812 0.521554 0.123637
O11   O     O_R   0.036450 0.233070 0.130130 -0.540420
O12   O     O_R   0.963550 0.733070 0.869870 -0.538923
O13   O     O_R   0.912470 0.560570 0.006790 -0.532756
O14   O     O_R   0.087530 0.060570 0.993210 -0.533134
C49   C     C_R   0.886906 0.391691 0.001172 0.758281
C50   C     C_R   0.113065 0.891918 0.998676 0.757605
O15   O     O_R   0.032920 0.562940 0.138050 -0.538749
O16   O     O_R   0.967080 0.062940 0.861950 -0.540164
O17   O     O_R   0.084790 0.730500 0.002090 -0.524594
O18   O     O_R   0.915210 0.230500 0.997910 -0.525108
C51   C     C_R   0.044529 0.394818 0.174679 0.719031
C52   C     C_R   0.955542 0.894077 0.825397 0.718569
O19   O     O_3   0.016820 0.396170 0.955260 -0.370175
O20   O     O_3   0.983180 0.896170 0.044740 -0.370221
V3    V     V_3+5 0.996880 0.672090 0.008300 1.514987
V4    V     V_3+5 0.003120 0.172090 0.991700 1.510870
I1    I     I_    0.175058 0.480737 0.939405 -0.323363
I2    I     I_    0.823747 0.979133 0.056871 -0.322483
I3    I     I_    0.332612 0.578566 0.145262 -0.419245
I4    I     I_    0.666253 0.079551 0.852977 -0.430978
I5    I     I_    0.269588 0.022675 0.865595 -0.403944
I6    I     I_    0.730885 0.522960 0.134482 -0.410995
O21   O     O_3   0.976110 0.863801 0.503526 -0.554027
C53   C     C_3   0.037385 0.941192 0.538772 -0.187183
H21   H     H_    0.069789 0.841105 0.585844 0.169033
H22   H     H_    0.036852 0.076746 0.574704 0.134698
H23   H     H_    0.056504 0.967665 0.478799 0.162778
O22   O     O_3   0.025876 0.466029 0.495559 -0.552873
C54   C     C_3   0.963147 0.397533 0.463821 -0.191801
H24   H     H_    0.960513 0.256640 0.431841 0.136191
H25   H     H_    0.932314 0.496848 0.414105 0.168483
H26   H     H_    0.944355 0.385871 0.525096 0.163167

loop_
_geom_bond_atom_site_label_1
_geom_bond_atom_site_label_2
_ccdc_geom_bond_type
C9    I3    S    
O16   V4    S    
O4    V2    S    
O15   C51   A    
C43   H19   S    
O1    C3    A    
C7    C50   S    
O2    C4    A    
C2    O7    A    
C32   H16   S    
C13   C19   A    
O5    C3    A    
C5    C9    S    
C6    C10   S    
C7    H1    S    
O14   C50   A    
C24   C28   A    
C54   H25   S    
C33   H3    S    
C34   H4    S    
C44   C46   A    
O12   C52   A    
O22   C54   S    
O14   V4    S    
C27   C35   A    
C45   H7    S    
C15   C45   A    
C30   C32   A    
C35   C37   A    
O15   V3    S    
C36   C38   A    
C17   C19   A    
C44   H20   S    
C31   C33   A    
C14   C20   A    
O6    V2    S    
C15   C47   A    
C27   C29   A    
C28   C30   A    
C36   H18   S    
C53   H22   S    
C53   H21   S    
C38   C40   A    
C32   C34   A    
C39   C41   A    
C40   C42   A    
C48   H6    S    
O16   C52   A    
C38   H10   S    
O4    C2    A    
C54   H26   S    
O11   V4    S    
C39   C43   A    
C3    C12   S    
C13   C21   A    
C16   C46   A    
C37   C39   A    
C18   C20   A    
O17   V3    S    
C30   C42   A    
O6    C4    A    
O13   V3    S    
C8    C49   S    
C2    C15   S    
C13   C52   S    
O1    V2    S    
O2    V1    S    
C29   C31   A    
C14   C22   A    
C22   H14   S    
C28   C36   A    
C29   C41   A    
O13   C49   A    
C8    H2    S    
O19   V4    S    
C16   C48   A    
C42   C48   A    
C20   H12   S    
O3    V1    S    
C25   C33   A    
C1    C16   S    
C40   C44   A    
C26   C34   A    
C21   H13   S    
O12   V3    S    
C21   C23   A    
C10   I4    S    
C10   C12   D    
O3    C1    A    
C50   O17   A    
C49   O18   A    
O18   V4    S    
C6    I2    S    
C4    C11   S    
C31   H15   S    
C22   C24   A    
O7    V1    S    
C1    O8    A    
C23   C25   A    
O8    V2    S    
C54   H24   S    
C12   I6    S    
C24   C26   A    
C11   I5    S    
C41   C47   A    
O5    V1    S    
C5    C7    D    
C35   H17   S    
C14   C51   S    
C6    C8    D    
C18   C26   A    
C23   C27   A    
O20   V3    S    
C43   C45   A    
C19   H11   S    
O11   C51   A    
C47   H5    S    
C9    C11   D    
C46   H8    S    
C18   O22   S    
O9    V2    S    
O21   C53   S    
C17   C25   A    
O10   V1    S    
C37   H9    S    
C5    I1    S    
C53   H23   S    
C17   O21   S    
