data_mof_unit_38210.cif
_audit_creation_date              2012-12-10T17:01:28-0500
_audit_creation_method            fapswitch 2.2
_symmetry_space_group_name_H-M    P1
_symmetry_Int_Tables_number       1
_space_group_crystal_system       triclinic
_cell_length_a                    12.960771
_cell_length_b                    10.589416
_cell_length_c                    10.087265
_cell_angle_alpha                 93.609689
_cell_angle_beta                  98.140742
_cell_angle_gamma                 90.335351
_cell_volume                      1367.62428718

loop_
_atom_site_label
_atom_site_type_symbol
_atom_type_description
_atom_site_fract_x
_atom_site_fract_y
_atom_site_fract_z
_atom_type_partial_charge
C1    C     C_R   0.501065 0.262134 0.495246 0.808596
C2    C     C_2   0.498408 0.127019 0.477355 0.273663
C3    C     C_2   0.487879 0.598126 0.931585 0.598704
C4    C     C_R   0.297877 0.505240 0.472408 0.870459
C5    C     C_2   0.525029 0.595279 0.079752 0.225733
C6    C     C_R   0.485508 0.736654 0.502143 0.913524
C7    C     C_R   0.702044 0.504052 0.527718 0.977311
C8    C     C_R   0.815244 0.514124 0.546188 -0.213300
C9    C     C_R   0.184306 0.516629 0.453730 -0.166195
C10   C     C_R   0.013326 0.475281 0.322746 0.193892
C11   C     C_R   0.122023 0.482560 0.328080 0.141931
C12   C     C_R   0.031275 0.527499 0.565540 -0.023859
C13   C     C_R   0.137169 0.552904 0.568352 0.133567
C14   C     C_3   0.606792 0.691742 0.139451 -0.781111
C15   C     C_3   0.416603 0.415084 0.088669 -0.594837
C16   C     C_3   0.946186 0.412866 0.199602 -0.832346
C17   C     C_3   0.169728 0.458766 0.199773 -0.841469
C18   C     C_3   0.194038 0.639484 0.681917 -0.675347
C19   C     C_3   0.367837 0.864559 0.270012 -0.913784
C20   C     C_3   0.447090 0.923905 0.656292 -0.810275
C21   C     C_3   0.308599 0.137682 0.381128 -0.981921
C22   C     C_R   0.969304 0.509976 0.439575 -0.130473
C23   C     C_R   0.863640 0.533470 0.433343 0.333233
C24   C     C_R   0.875889 0.501146 0.671973 0.257692
C25   C     C_R   0.984788 0.521266 0.684019 0.343909
C26   C     C_2   0.407817 0.928963 0.405734 0.243035
C27   C     C_2   0.447874 0.866051 0.513604 0.028742
C28   C     C_2   0.408628 0.067590 0.420407 0.158748
H1    H     H_    0.856729 0.627951 0.272790 0.345603
H2    H     H_    0.442353 0.342594 0.017241 0.231688
H3    H     H_    0.878044 0.425698 0.843205 0.345155
H4    H     H_    0.982768 0.324137 0.165925 0.235149
H5    H     H_    0.868217 0.382854 0.220229 0.280908
H6    H     H_    0.936152 0.478306 0.117083 0.236455
H7    H     H_    0.006200 0.559937 0.876698 0.336877
H8    H     H_    0.112776 0.446614 0.107196 0.248552
H9    H     H_    0.217569 0.542154 0.183589 0.251015
H10   H     H_    0.216555 0.371692 0.205797 0.238981
H11   H     H_    0.253475 0.699134 0.645293 0.206609
H12   H     H_    0.646710 0.121117 0.543214 0.326644
H13   H     H_    0.139580 0.707518 0.722354 0.227809
H14   H     H_    0.231838 0.583340 0.764230 0.282338
H15   H     H_    0.326651 0.931953 0.201677 0.245028
H16   H     H_    0.432925 0.826875 0.220927 0.257116
H17   H     H_    0.312323 0.786925 0.281200 0.234520
H18   H     H_    0.398603 0.863459 0.709315 0.265582
H19   H     H_    0.527679 0.929960 0.711245 0.276200
H20   H     H_    0.411625 0.018706 0.662169 0.223893
H21   H     H_    0.241860 0.070948 0.350507 0.261659
H22   H     H_    0.289998 0.199441 0.467452 0.241078
H23   H     H_    0.432000 0.765179 0.953799 0.303687
H24   H     H_    0.317048 0.196061 0.295799 0.246885
H25   H     H_    0.595793 0.371371 0.828888 0.396228
H26   H     H_    0.675587 0.680760 0.085703 0.245635
H27   H     H_    0.577755 0.789102 0.127673 0.194144
H28   H     H_    0.633404 0.679653 0.246506 0.314652
H29   H     H_    0.390644 0.361142 0.168273 0.229802
H30   H     H_    0.348309 0.467109 0.041095 0.162738
N1    N     N_2   0.501130 0.501330 0.852280 0.024976
N2    N     N_2   0.501160 0.501360 0.147950 -0.033867
O1    O     O_R   0.499980 0.319060 0.613040 -0.638103
O2    O     O_3   0.589963 0.060560 0.504750 -0.783081
O3    O     O_3   0.441329 0.703650 0.878416 -0.812991
O4    O     O_3   0.573399 0.420979 0.905562 -0.715359
O5    O     O_3   0.827905 0.470647 0.779906 -0.734435
O6    O     O_3   0.046836 0.524232 0.807432 -0.790179
O7    O     O_R   0.500020 0.319100 0.386900 -0.614569
O8    O     O_R   0.346340 0.499960 0.594380 -0.602277
O9    O     O_R   0.346380 0.500000 0.368250 -0.634265
O10   O     O_R   0.499980 0.680900 0.613100 -0.572518
O11   O     O_R   0.500020 0.680940 0.386960 -0.634648
O12   O     O_R   0.653620 0.500000 0.631750 -0.564959
O13   O     O_R   0.653660 0.500040 0.405620 -0.557216
O14   O     O_3   0.808069 0.581974 0.320955 -0.749675
Zn1   Zn    Zn3+2 0.499980 0.499970 0.650990 1.023482
Zn2   Zn    Zn3+2 0.500020 0.500030 0.349010 0.959228

loop_
_geom_bond_atom_site_label_1
_geom_bond_atom_site_label_2
_ccdc_geom_bond_type
C14   H28   S    
C18   H11   S    
C19   H17   S    
H1    O14   S    
C17   H8    S    
C3    O3    S    
C16   H5    S    
C16   H4    S    
C9    C11   A    
C15   N2    S    
C26   C28   S    
C6    C27   S    
C5    N2    D    
C12   C25   A    
C8    C24   A    
C10   C22   A    
C20   C27   S    
C21   H21   S    
C14   H27   S    
C5    C14   S    
H12   O2    S    
C7    C8    S    
C7    O13   A    
C10   C16   S    
O1    Zn1   S    
O8    Zn1   S    
C12   C13   A    
C15   H29   S    
C26   C27   D    
C20   H20   S    
N1    Zn1   S    
C24   O5    S    
C15   H2    S    
O12   Zn1   S    
C13   C18   S    
C4    O9    A    
C1    O7    A    
C21   C28   S    
C19   H15   S    
C17   H10   S    
C18   H14   S    
C19   H16   S    
C6    O11   A    
O13   Zn2   S    
C20   H18   S    
C20   H19   S    
C10   C11   A    
C17   H9    S    
C23   O14   S    
C9    C13   A    
C14   H26   S    
C15   H30   S    
C12   C22   A    
O11   Zn2   S    
O10   Zn1   S    
C8    C23   A    
H23   O3    S    
C24   C25   A    
O9    Zn2   S    
C4    O8    A    
C1    C2    S    
C18   H13   S    
C7    O12   A    
C6    O10   A    
C19   C26   S    
H3    O5    S    
C22   C23   A    
C21   H22   S    
C2    C28   D    
O7    Zn2   S    
H7    O6    S    
C16   H6    S    
C4    C9    S    
H25   O4    S    
N2    Zn2   S    
C21   H24   S    
C11   C17   S    
C25   O6    S    
C2    O2    S    
C1    O1    A    
C3    C5    S    
N1    O4    S    
C3    N1    D    
