data_mof_unit_51470.cif
_audit_creation_date              2012-12-10T18:35:07-0500
_audit_creation_method            fapswitch 2.2
_symmetry_space_group_name_H-M    P1
_symmetry_Int_Tables_number       1
_space_group_crystal_system       triclinic
_cell_length_a                    18.818494
_cell_length_b                    18.700857
_cell_length_c                    19.096302
_cell_angle_alpha                 109.581337
_cell_angle_beta                  109.688891
_cell_angle_gamma                 108.526811
_cell_volume                      5211.87915617

loop_
_atom_site_label
_atom_site_type_symbol
_atom_type_description
_atom_site_fract_x
_atom_site_fract_y
_atom_site_fract_z
_atom_type_partial_charge
C1    C     C_R   0.381407 0.501587 0.382157 0.827241
C2    C     C_R   0.765608 0.858576 0.825927 0.249349
C3    C     C_R   0.955179 0.792047 0.994732 0.366284
C4    C     C_R   0.950121 0.753633 0.045568 0.232259
C5    C     C_R   0.025060 0.782120 0.120327 -0.075367
C6    C     C_R   0.269022 0.544476 0.992372 0.285610
C7    C     C_R   0.199935 0.474757 0.911194 0.354333
C8    C     C_R   0.166411 0.389627 0.897882 -0.244211
C9    C     C_R   0.219788 0.370888 0.953194 0.288559
C10   C     C_R   0.295272 0.438710 0.029309 0.381412
C11   C     C_R   0.315818 0.526013 0.052639 0.247211
C12   C     C_R   0.078170 0.255056 0.754588 0.425932
C13   C     C_R   0.816566 0.828358 0.574216 0.423267
C14   C     C_R   0.998529 0.188850 0.681471 -0.196392
C15   C     C_R   0.921200 0.192594 0.669058 0.030759
C16   C     C_R   0.923755 0.255183 0.736815 -0.292256
C17   C     C_R   0.001956 0.316783 0.813187 -0.124276
C18   C     C_R   0.080840 0.320090 0.820641 0.057176
C19   C     C_R   0.804178 0.157277 0.528849 0.490372
C20   C     C_R   0.732152 0.094671 0.446622 -0.444550
C21   C     C_R   0.696522 0.005813 0.419488 0.246841
C22   C     C_R   0.726214 0.978461 0.478669 0.535252
C23   C     C_R   0.795163 0.040387 0.562256 0.218036
C24   C     C_R   0.812946 0.810809 0.495014 -0.077543
C25   C     C_R   0.836824 0.129739 0.587059 -0.116352
C26   C     C_R   0.740703 0.735996 0.417480 0.014792
C27   C     C_R   0.682822 0.673826 0.424632 -0.270644
C28   C     C_R   0.686522 0.689017 0.502971 -0.104385
C29   C     C_R   0.750653 0.769912 0.578480 -0.002149
C30   C     C_R   0.631909 0.684232 0.264864 -0.249178
C31   C     C_R   0.610655 0.670723 0.181882 0.515103
C32   C     C_R   0.674829 0.690832 0.160418 -0.314551
C33   C     C_R   0.620258 0.619671 0.501909 0.794796
C34   C     C_R   0.760768 0.738474 0.224507 0.481560
C35   C     C_R   0.782744 0.744509 0.304991 -0.148094
C36   C     C_R   0.718978 0.720829 0.328168 -0.019897
C37   C     C_R   0.366103 0.737777 0.551858 0.282935
C38   C     C_R   0.332756 0.659768 0.477978 -0.163360
C39   C     C_R   0.355131 0.657872 0.414720 0.019219
C40   C     C_R   0.411507 0.735965 0.425737 -0.337833
C41   C     C_R   0.441747 0.815366 0.497013 0.503521
C42   C     C_R   0.423552 0.816705 0.562745 0.318264
C43   C     C_R   0.241515 0.574561 0.260733 0.300264
C44   C     C_R   0.616990 0.497605 0.618835 0.813609
C45   C     C_R   0.182024 0.495379 0.184853 -0.213512
C46   C     C_R   0.177695 0.416464 0.180069 -0.053219
C47   C     C_R   0.244911 0.420094 0.244629 0.460422
C48   C     C_R   0.309943 0.500519 0.318090 -0.271678
C49   C     C_R   0.303767 0.577210 0.329981 -0.092995
C50   C     C_R   0.020634 0.306268 0.113047 0.264485
C51   C     C_R   0.945880 0.230940 0.043006 0.392834
C52   C     C_R   0.949265 0.179218 0.972663 0.238939
C53   C     C_R   0.029945 0.194732 0.978077 0.165726
C54   C     C_R   0.106095 0.268603 0.050681 0.390145
C55   C     C_R   0.377895 0.381667 0.497028 0.835901
C56   C     C_R   0.100119 0.329940 0.112641 -0.214103
C57   C     C_R   0.259832 0.548309 0.601987 -0.177285
C58   C     C_R   0.278499 0.480068 0.590475 0.530724
C59   C     C_R   0.229412 0.402692 0.509892 -0.106840
C60   C     C_R   0.161375 0.396613 0.441504 0.329984
C61   C     C_R   0.142632 0.465377 0.455219 0.417277
C62   C     C_R   0.191462 0.540537 0.535942 -0.352761
C63   C     C_R   0.177176 0.259511 0.503326 0.376694
C64   C     C_R   0.186489 0.187168 0.501798 -0.222369
C65   C     C_R   0.261436 0.182565 0.505607 0.016164
C66   C     C_R   0.694036 0.843572 0.755222 0.310304
C67   C     C_R   0.323676 0.247664 0.504997 0.454742
C68   C     C_R   0.311125 0.316159 0.498912 -0.242104
C69   C     C_R   0.239689 0.324715 0.502389 -0.108718
C70   C     C_R   0.304659 0.111643 0.591221 0.398680
C71   C     C_R   0.300904 0.035510 0.593196 0.443827
C72   C     C_R   0.275131 0.962475 0.517508 -0.504436
C73   C     C_R   0.253537 0.963946 0.440380 0.298036
C74   C     C_R   0.257094 0.039479 0.438218 0.478004
C75   C     C_R   0.276383 0.110697 0.512067 -0.175470
C76   C     C_R   0.588400 0.634679 0.853331 -0.306014
C77   C     C_R   0.691085 0.816799 0.675235 0.433144
C78   C     C_R   0.627782 0.604608 0.809452 -0.133863
C79   C     C_R   0.623420 0.523345 0.790091 -0.045899
C80   C     C_R   0.580675 0.473784 0.820467 0.245101
C81   C     C_R   0.544912 0.506647 0.868995 0.505526
C82   C     C_R   0.548509 0.587333 0.885247 0.292519
C83   C     C_R   0.746946 0.497305 0.819241 -0.178960
C84   C     C_R   0.815998 0.494598 0.809262 -0.174060
C85   C     C_R   0.824784 0.499375 0.740186 -0.057547
C86   C     C_R   0.757883 0.498642 0.677008 0.444574
C87   C     C_R   0.685962 0.498940 0.686345 -0.218474
C88   C     C_R   0.752848 0.794499 0.662868 -0.196947
C89   C     C_R   0.683758 0.503901 0.761826 -0.051012
C90   C     C_R   0.971665 0.603163 0.777367 -0.297146
C91   C     C_R   0.045985 0.623113 0.769351 0.279576
C92   C     C_R   0.056102 0.554946 0.721810 0.482927
C93   C     C_R   0.999288 0.469234 0.694928 0.415044
C94   C     C_R   0.923835 0.450078 0.702065 -0.311641
C95   C     C_R   0.907457 0.517041 0.739009 0.092680
C96   C     C_R   0.000944 0.880899 0.382228 0.865576
C97   C     C_R   0.881064 0.878243 0.496645 0.856694
C98   C     C_R   0.998816 0.118742 0.617666 0.892077
C99   C     C_R   0.826009 0.814328 0.735893 0.228551
C100  C     C_R   0.118949 0.118862 0.500154 0.877374
C101  C     C_R   0.000818 0.381439 0.881631 0.785528
C102  C     C_R   0.117994 0.496344 0.115814 0.868537
C103  C     C_R   0.999940 0.618863 0.118329 0.944653
C104  C     C_R   0.882033 0.496596 0.878103 0.853916
C105  C     C_R   0.065882 0.756305 0.536210 -0.321288
C106  C     C_R   0.064391 0.769307 0.468505 -0.278286
C107  C     C_R   0.989744 0.719694 0.387886 -0.007495
C108  C     C_R   0.917903 0.648391 0.372059 0.376259
C109  C     C_R   0.922981 0.630942 0.440485 0.314337
C110  C     C_R   0.834129 0.853123 0.816577 -0.141267
C111  C     C_R   0.993594 0.689502 0.523874 0.420432
C112  C     C_R   0.993866 0.672493 0.251937 0.477335
C113  C     C_R   0.001640 0.686444 0.186326 -0.246728
C114  C     C_R   0.016913 0.766519 0.189298 0.014347
C115  C     C_R   0.020647 0.831796 0.257025 0.502975
C116  C     C_R   0.004651 0.814386 0.317923 -0.209926
C117  C     C_R   0.993597 0.735428 0.317318 -0.084942
C118  C     C_R   0.106635 0.831904 0.132786 0.351788
C119  C     C_R   0.112108 0.863984 0.075859 0.122925
C120  C     C_R   0.035851 0.850193 0.011546 0.249437
Cu1   Cu    Cu3+1 0.499980 0.561800 0.561790 1.030799
Cu2   Cu    Cu3+1 0.500020 0.438200 0.438210 0.999083
Cu3   Cu    Cu3+1 0.061810 0.999960 0.561770 1.069806
Cu4   Cu    Cu3+1 0.938190 0.999990 0.438190 0.951809
Cu5   Cu    Cu3+1 0.061800 0.561770 0.999960 0.939289
Cu6   Cu    Cu3+1 0.938200 0.438190 0.000000 1.041518
H1    H     H_    0.658147 0.681342 0.096695 0.190349
H2    H     H_    0.849440 0.770970 0.350229 0.110902
H3    H     H_    0.286101 0.600197 0.467791 0.175565
H4    H     H_    0.426697 0.735916 0.376076 0.153096
H5    H     H_    0.177262 0.593771 0.547383 0.201486
H6    H     H_    0.297768 0.607309 0.663498 0.207747
H7    H     H_    0.268998 0.903072 0.517722 0.168537
H8    H     H_    0.593823 0.697861 0.867077 0.163983
H9    H     H_    0.665774 0.647938 0.794800 0.191288
H10   H     H_    0.746055 0.501036 0.876876 0.213787
H11   H     H_    0.963836 0.655295 0.812791 0.131757
H12   H     H_    0.877813 0.383805 0.678307 0.198372
H13   H     H_    0.892915 0.874667 0.872595 0.280547
H14   H     H_    0.124449 0.797263 0.597752 0.181958
H15   H     H_    0.122288 0.818549 0.478927 0.203065
H16   H     H_    0.864601 0.256459 0.729769 0.166480
H17   H     H_    0.704664 0.113946 0.401485 0.164699
H18   H     H_    0.631407 0.613339 0.367255 0.158200
H19   H     H_    0.580595 0.668769 0.280182 0.154695
O1    O     O_R   0.409800 0.552190 0.462000 -0.582774
O2    O     O_R   0.947810 0.909820 0.357620 -0.549091
O3    O     O_R   0.962020 0.909790 0.552160 -0.558837
O4    O     O_R   0.857630 0.909810 0.447800 -0.568736
O5    O     O_R   0.052190 0.090130 0.642340 -0.508850
O6    O     O_R   0.947800 0.090160 0.537980 -0.616888
O7    O     O_R   0.142370 0.090140 0.552150 -0.560978
O8    O     O_R   0.037980 0.090170 0.447800 -0.610265
O9    O     O_R   0.052200 0.461970 0.909800 -0.579646
O10   O     O_R   0.947810 0.357610 0.909840 -0.620950
O11   O     O_R   0.142370 0.552160 0.090140 -0.600938
O12   O     O_R   0.409840 0.447810 0.357640 -0.565579
O13   O     O_R   0.037990 0.447800 0.090170 -0.561958
O14   O     O_R   0.052190 0.642350 0.090120 -0.577249
O15   O     O_R   0.947800 0.537990 0.090150 -0.523007
O16   O     O_R   0.962010 0.552150 0.909780 -0.596319
O17   O     O_R   0.857630 0.447800 0.909820 -0.584195
O18   O     O_R   0.590160 0.642370 0.552180 -0.553941
O19   O     O_R   0.590190 0.537990 0.447820 -0.596649
O20   O     O_R   0.590160 0.552190 0.642360 -0.608427
O21   O     O_R   0.590200 0.447810 0.538000 -0.533004
O22   O     O_R   0.409810 0.462010 0.552180 -0.550486
O23   O     O_R   0.409840 0.357630 0.447820 -0.554817
O24   O     O_R   0.052200 0.909800 0.461980 -0.609063
O25   O     O_3   0.771024 0.878605 0.904504 -0.705270
H20   H     H_    0.711566 0.853392 0.895260 0.333942
O26   O     O_3   0.821807 0.789836 0.212984 -0.596596
C121  C     C_3   0.797061 0.848369 0.193906 -0.314739
H21   H     H_    0.855034 0.908455 0.216577 0.182246
H22   H     H_    0.762736 0.869848 0.226982 0.162280
H23   H     H_    0.756536 0.819007 0.123665 0.140505
O27   O     O_3   0.462614 0.895813 0.635447 -0.756697
H24   H     H_    0.463289 0.886032 0.683369 0.325880
O28   O     O_3   0.337774 0.734301 0.609067 -0.747110
H25   H     H_    0.337331 0.789053 0.637447 0.311614
O29   O     O_3   0.492434 0.892680 0.504765 -0.588835
C122  C     C_3   0.439091 0.911719 0.450379 -0.345679
H26   H     H_    0.389663 0.917734 0.467579 0.189597
H27   H     H_    0.407817 0.862281 0.381839 0.169436
H28   H     H_    0.479626 0.975155 0.458750 0.192390
O30   O     O_3   0.233874 0.647116 0.265122 -0.744724
H29   H     H_    0.257747 0.690988 0.324961 0.317252
O31   O     O_3   0.251191 0.345514 0.232226 -0.561900
C123  C     C_3   0.212700 0.307093 0.270897 -0.291443
H30   H     H_    0.243193 0.352724 0.340335 0.150681
H31   H     H_    0.222768 0.250476 0.264783 0.180793
H32   H     H_    0.141973 0.282649 0.237688 0.188407
O32   O     O_3   0.626695 0.854790 0.762004 -0.565896
C124  C     C_3   0.656817 0.942769 0.819029 -0.268890
H33   H     H_    0.709945 0.989082 0.817617 0.188180
H34   H     H_    0.677352 0.954986 0.885402 0.174834
H35   H     H_    0.602992 0.957360 0.800337 0.182468
O33   O     O_3   0.012577 0.355585 0.179375 -0.621978
H36   H     H_    0.070434 0.399284 0.229533 0.352272
O34   O     O_3   0.867463 0.212065 0.040253 -0.519049
C125  C     C_3   0.847612 0.148651 0.065147 -0.225973
H37   H     H_    0.897763 0.172431 0.131400 0.169623
H38   H     H_    0.839291 0.086764 0.019580 0.182648
H39   H     H_    0.785517 0.134549 0.064660 0.171432
O35   O     O_3   0.873341 0.111889 0.899681 -0.579553
C126  C     C_3   0.846075 0.144433 0.844956 -0.299165
H40   H     H_    0.894500 0.168022 0.825830 0.174073
H41   H     H_    0.832330 0.196778 0.875018 0.206657
H42   H     H_    0.785357 0.091528 0.785752 0.153521
O36   O     O_3   0.036270 0.141081 0.912865 -0.725665
H43   H     H_    0.978976 0.089713 0.869111 0.372326
O37   O     O_3   0.187088 0.284959 0.060786 -0.516205
C127  C     C_3   0.202350 0.215625 0.061089 0.017917
H44   H     H_    0.184304 0.168891 0.995773 0.201675
H45   H     H_    0.168930 0.181255 0.087702 0.109398
H46   H     H_    0.272608 0.242414 0.102006 0.160216
O38   O     O_3   0.347923 0.492396 0.658480 -0.548316
C128  C     C_3   0.318756 0.445208 0.696177 -0.350838
H47   H     H_    0.249374 0.421626 0.677275 0.171997
H48   H     H_    0.356967 0.488016 0.766493 0.179110
H49   H     H_    0.330458 0.388847 0.679729 0.184685
O39   O     O_3   0.108438 0.323333 0.361475 -0.725525
H50   H     H_    0.127044 0.279143 0.358827 0.298183
O40   O     O_3   0.074699 0.456392 0.388589 -0.688440
H51   H     H_    0.068187 0.508899 0.408933 0.301175
O41   O     O_3   0.631344 0.818113 0.610064 -0.545790
C129  C     C_3   0.657414 0.905533 0.630423 -0.177214
H52   H     H_    0.728074 0.950341 0.673864 0.129735
H53   H     H_    0.621886 0.929603 0.659261 0.217548
H54   H     H_    0.641223 0.909134 0.571103 0.230069
O42   O     O_3   0.118912 0.276460 0.525861 -0.609071
C130  C     C_3   0.038443 0.241774 0.453111 -0.191027
H55   H     H_    0.986556 0.204683 0.462258 0.183925
H56   H     H_    0.030366 0.197583 0.391358 0.149139
H57   H     H_    0.027903 0.295527 0.448781 0.199837
O43   O     O_3   0.396753 0.243295 0.508399 -0.589933
C131  C     C_3   0.464393 0.293821 0.594010 -0.316079
H58   H     H_    0.451712 0.262964 0.631962 0.185376
H59   H     H_    0.475604 0.361457 0.624593 0.160563
H60   H     H_    0.524784 0.297522 0.595074 0.185151
O44   O     O_3   0.323880 0.183875 0.662633 -0.582101
C132  C     C_3   0.400581 0.210550 0.735718 -0.218939
H61   H     H_    0.446930 0.192802 0.720596 0.135282
H62   H     H_    0.384891 0.184818 0.776240 0.222426
H63   H     H_    0.434045 0.281936 0.774464 0.220815
O45   O     O_3   0.309278 0.029887 0.665949 -0.564536
C133  C     C_3   0.367620 0.999225 0.690700 -0.316879
H64   H     H_    0.425260 0.027913 0.684307 0.193434
H65   H     H_    0.334326 0.927254 0.654005 0.177117
H66   H     H_    0.391241 0.018533 0.759235 0.187926
O46   O     O_3   0.224438 0.890974 0.365325 -0.658902
H67   H     H_    0.222637 0.842672 0.376822 0.309821
O47   O     O_3   0.230657 0.039889 0.361441 -0.509946
C134  C     C_3   0.296405 0.049162 0.339646 -0.196342
H68   H     H_    0.320699 0.002756 0.343103 0.163303
H69   H     H_    0.351366 0.115958 0.380912 0.189435
H70   H     H_    0.269967 0.037199 0.272977 0.193564
O48   O     O_3   0.516986 0.620575 0.936211 -0.734791
H71   H     H_    0.524071 0.677122 0.940857 0.315365
O49   O     O_3   0.893389 0.801958 0.732176 -0.716999
H72   H     H_    0.874225 0.761786 0.672295 0.318300
O50   O     O_3   0.577659 0.395818 0.809503 -0.734133
H73   H     H_    0.592569 0.373205 0.764933 0.318753
O51   O     O_3   0.520613 0.466121 0.912359 -0.528149
C135  C     C_3   0.430575 0.428743 0.879232 -0.201856
H74   H     H_    0.394454 0.388850 0.808377 0.102554
H75   H     H_    0.411261 0.478606 0.900819 0.199669
H76   H     H_    0.411428 0.384616 0.904255 0.210846
O52   O     O_3   0.761897 0.494744 0.604711 -0.554798
C136  C     C_3   0.792700 0.578662 0.614182 -0.241142
H77   H     H_    0.861029 0.621611 0.665265 0.164595
H78   H     H_    0.753562 0.609267 0.627744 0.109394
H79   H     H_    0.789301 0.573607 0.553454 0.227678
O53   O     O_3   0.109629 0.707992 0.808206 -0.758930
H80   H     H_    0.094084 0.747292 0.841784 0.339641
O54   O     O_3   0.121821 0.569573 0.702259 -0.730284
H81   H     H_    0.153738 0.631889 0.720704 0.357701
O55   O     O_3   0.019820 0.405912 0.662430 -0.682596
H82   H     H_    0.988887 0.356101 0.667756 0.367863
O56   O     O_3   0.992674 0.673853 0.589807 -0.565652
C137  C     C_3   0.023599 0.751735 0.664172 -0.238983
H83   H     H_    0.001114 0.796111 0.649604 0.177801
H84   H     H_    0.095148 0.785243 0.702142 0.191016
H85   H     H_    0.998520 0.735428 0.704608 0.208504
O57   O     O_3   0.850836 0.593144 0.287426 -0.544946
C138  C     C_3   0.768487 0.555741 0.279318 -0.187979
H86   H     H_    0.720620 0.548571 0.220530 0.172983
H87   H     H_    0.763560 0.595727 0.333648 0.155908
H88   H     H_    0.750237 0.489634 0.270850 0.202960
O58   O     O_3   0.859150 0.557297 0.427051 -0.582248
C139  C     C_3   0.883616 0.492166 0.411259 -0.239225
H89   H     H_    0.943660 0.511039 0.467939 0.190627
H90   H     H_    0.891939 0.476450 0.353875 0.185592
H91   H     H_    0.831544 0.432238 0.398312 0.180187
O59   O     O_3   0.986999 0.596395 0.251942 -0.515857
C140  C     C_3   0.069141 0.611124 0.306217 -0.247821
H92   H     H_    0.076237 0.623569 0.369835 0.150698
H93   H     H_    0.124005 0.665858 0.314940 0.131817
H94   H     H_    0.073933 0.551606 0.278259 0.218771
O60   O     O_3   0.057140 0.917875 0.275846 -0.529790
C141  C     C_3   0.005325 0.931547 0.214220 -0.234076
H95   H     H_    0.940035 0.875117 0.166525 0.130443
H96   H     H_    0.038993 0.949654 0.180122 0.167018
H97   H     H_    0.998089 0.987613 0.247952 0.170566
O61   O     O_3   0.178116 0.846643 0.200261 -0.640700
H98   H     H_    0.231466 0.883186 0.203563 0.320171
O62   O     O_3   0.189952 0.909960 0.082623 -0.744097
H99   H     H_    0.222390 0.877781 0.088829 0.317038
O63   O     O_3   0.037474 0.887893 0.960642 -0.705145
H100  H     H_    0.097697 0.930059 0.981791 0.379586
O64   O     O_3   0.879473 0.775245 0.930973 -0.536855
C142  C     C_3   0.861576 0.711927 0.852797 -0.251146
H101  H     H_    0.864189 0.655519 0.857196 0.177351
H102  H     H_    0.906869 0.739840 0.832509 0.211695
H103  H     H_    0.795848 0.689112 0.802719 0.163485
O65   O     O_3   0.885279 0.905015 0.646337 -0.676177
H104  H     H_    0.867469 0.926537 0.688603 0.350266
O66   O     O_3   0.875986 0.677790 0.013329 -0.584097
C143  C     C_3   0.817273 0.696786 0.034690 -0.234601
H105  H     H_    0.814985 0.754361 0.031232 0.183936
H106  H     H_    0.833045 0.704489 0.098734 0.210896
H107  H     H_    0.751678 0.640300 0.988953 0.181030
O67   O     O_3   0.390040 0.591580 0.128549 -0.522319
C144  C     C_3   0.373797 0.651324 0.179757 -0.271259
H108  H     H_    0.307206 0.622622 0.168935 0.193838
H109  H     H_    0.388263 0.708340 0.169991 0.197932
H110  H     H_    0.418584 0.675134 0.247485 0.143589
O68   O     O_3   0.301212 0.629099 0.007408 -0.594589
C145  C     C_3   0.241896 0.659068 0.011521 -0.254989
H111  H     H_    0.233676 0.663570 0.067380 0.178544
H112  H     H_    0.178365 0.618954 0.951752 0.210076
H113  H     H_    0.268540 0.725650 0.020715 0.158861
O69   O     O_3   0.163611 0.488154 0.843782 -0.552215
C146  C     C_3   0.226782 0.526510 0.824221 -0.167447
H114  H     H_    0.286545 0.521539 0.850780 0.105536
H115  H     H_    0.244914 0.595956 0.847282 0.212243
H116  H     H_    0.198270 0.493378 0.753849 0.222856
O70   O     O_3   0.204004 0.287275 0.932760 -0.594157
H117  H     H_    0.141901 0.246422 0.892547 0.375149
O71   O     O_3   0.351363 0.416185 0.074159 -0.512068
C147  C     C_3   0.380573 0.458276 0.162811 -0.073771
H118  H     H_    0.381890 0.411272 0.185731 0.182291
H119  H     H_    0.338873 0.483045 0.179483 0.127321
H120  H     H_    0.447682 0.512333 0.197496 0.164294
O72   O     O_3   0.153509 0.252551 0.763972 -0.544403
C148  C     C_3   0.189580 0.298451 0.728617 -0.261149
H121  H     H_    0.230606 0.368229 0.777028 0.143014
H122  H     H_    0.140325 0.289473 0.669223 0.187586
H123  H     H_    0.231573 0.274486 0.711691 0.211154
O73   O     O_3   0.843543 0.245759 0.556049 -0.592839
C149  C     C_3   0.836041 0.263933 0.488506 -0.286626
H124  H     H_    0.771602 0.257831 0.454953 0.168664
H125  H     H_    0.849817 0.222755 0.443214 0.145181
H126  H     H_    0.884023 0.332293 0.515544 0.218445
O74   O     O_3   0.634738 0.945052 0.335132 -0.759537
H127  H     H_    0.622334 0.974951 0.302170 0.321928
O75   O     O_3   0.696985 0.891307 0.455626 -0.543387
C150  C     C_3   0.606081 0.840904 0.407345 -0.246059
H128  H     H_    0.584543 0.808704 0.338065 0.201424
H129  H     H_    0.572559 0.878736 0.420753 0.185590
H130  H     H_    0.586064 0.788771 0.423379 0.184159
O76   O     O_3   0.822191 0.010155 0.617090 -0.722744
H131  H     H_    0.860454 0.058958 0.676577 0.319761
O77   O     O_3   0.528054 0.644577 0.123124 -0.498025
C151  C     C_3   0.525148 0.718012 0.119388 -0.148434
H132  H     H_    0.535416 0.765335 0.180747 0.150955
H133  H     H_    0.572571 0.750809 0.103066 0.111764
H134  H     H_    0.460725 0.696585 0.067912 0.238775

loop_
_geom_bond_atom_site_label_1
_geom_bond_atom_site_label_2
_ccdc_geom_bond_type
C100  O8    A    
C124  H34   S    
O75   C150  S    
C145  H112  S    
C120  O63   S    
C139  H89   S    
C114  C115  A    
C50   O33   S    
C90   C95   A    
O69   C146  S    
C137  H85   S    
C32   H1    S    
C104  O17   A    
C58   O38   S    
C141  H97   S    
C124  H35   S    
C106  C107  A    
C101  O10   A    
C141  H95   S    
C108  C109  A    
C150  H130  S    
O53   H80   S    
C73   C74   A    
C37   C42   A    
C66   C77   A    
C122  H26   S    
C29   C88   S    
C134  H69   S    
C19   C20   A    
C77   C88   A    
C144  H108  S    
O34   C125  S    
C132  H62   S    
Cu5   O14   S    
C92   O54   S    
C121  H22   S    
C59   C60   A    
C21   C22   A    
C55   O23   A    
C109  O58   S    
C127  H45   S    
Cu4   O2    S    
C132  H63   S    
C51   C52   A    
C38   H3    S    
O71   C147  S    
C6    C11   A    
C126  H40   S    
C72   C73   A    
C97   O3    A    
O29   C122  S    
C99   C110  A    
O65   H104  S    
C122  H28   S    
C32   C34   A    
C37   C38   A    
C129  H52   S    
C139  H91   S    
C130  H56   S    
O63   H100  S    
C6    O68   S    
C22   O75   S    
C59   C69   S    
C140  H92   S    
C28   C33   S    
C87   C89   A    
C136  H78   S    
C4    O66   S    
C39   C40   A    
O60   C141  S    
C98   O5    A    
C133  H66   S    
C96   O2    A    
Cu3   O7    S    
C28   C29   A    
C138  H88   S    
C112  O59   S    
C4    C5    A    
C1    C48   S    
C6    C7    A    
C30   C36   A    
C151  H132  S    
C64   C65   A    
C105  H14   S    
C138  H87   S    
C146  H116  S    
C72   H7    S    
C30   C31   A    
C144  H110  S    
C11   O67   S    
O73   C149  S    
C88   C99   A    
C45   C102  S    
O37   C127  S    
O32   C124  S    
C22   C23   A    
C96   C116  S    
O30   H29   S    
Cu4   O4    S    
C143  H106  S    
C82   O48   S    
C149  H124  S    
C102  O13   A    
C149  H126  S    
Cu3   Cu4   S    
C85   C86   A    
C100  O7    A    
C119  O62   S    
C139  H90   S    
C24   C26   A    
C34   C35   A    
C109  C111  A    
C38   C39   A    
C15   C25   S    
O25   H20   S    
C115  C116  A    
Cu1   O18   S    
Cu2   O19   S    
O77   C151  S    
O44   C132  S    
C123  H31   S    
C130  H55   S    
C148  H122  S    
C140  H94   S    
C63   C69   A    
C53   O36   S    
C107  C108  A    
C9    C10   A    
C54   O37   S    
Cu3   O5    S    
Cu4   O8    S    
C125  H38   S    
C123  H30   S    
C10   O71   S    
C14   C98   S    
C147  H119  S    
C83   C89   A    
C67   O43   S    
C52   O35   S    
C80   O50   S    
O56   C137  S    
C151  H134  S    
C76   C82   A    
C91   C92   A    
C146  H114  S    
C68   C69   A    
C134  H70   S    
O38   C128  S    
C50   C56   A    
O28   H25   S    
C43   C45   A    
C31   O77   S    
C128  H48   S    
C83   C84   A    
C17   C18   A    
C20   C21   A    
C150  H129  S    
C135  H75   S    
C83   H10   S    
C39   C49   S    
Cu4   O6    S    
O61   H98   S    
O62   H99   S    
C84   C104  S    
C3    C4    A    
C102  O11   A    
Cu5   O9    S    
C148  H123  S    
C63   O42   S    
C128  H49   S    
O45   C133  S    
C129  H53   S    
C91   O53   S    
C86   O52   S    
O68   C145  S    
C2    C66   A    
C53   C54   A    
O50   H73   S    
C137  H84   S    
Cu1   O20   S    
C142  H103  S    
C5    C118  A    
C96   O24   A    
O48   H71   S    
O51   C135  S    
C61   O40   S    
C71   C72   A    
C85   C95   S    
C57   C58   A    
C101  O9    A    
C140  H93   S    
C145  H113  S    
C44   O20   A    
C61   C62   A    
C122  H27   S    
C79   C89   S    
C51   O34   S    
C63   C64   A    
C12   O72   S    
C77   O41   S    
O54   H81   S    
C144  H109  S    
O41   C129  S    
C131  H60   S    
C46   C56   S    
C70   C75   A    
C97   O4    A    
O55   H82   S    
C23   O76   S    
C73   O46   S    
C41   C42   A    
C57   H6    S    
C35   C36   A    
C20   H17   S    
C55   O22   A    
O40   H51   S    
C55   C68   S    
O46   H67   S    
C127  H44   S    
C52   C53   A    
C26   C27   A    
C19   O73   S    
C30   H19   S    
C13   C29   A    
C110  H13   S    
C70   O44   S    
C112  C117  A    
C126  H41   S    
C103  O15   A    
C121  H23   S    
C118  O61   S    
O58   C139  S    
C145  H111  S    
C16   C17   A    
C65   C67   A    
C70   C71   A    
C44   C87   S    
C78   H9    S    
Cu5   O11   S    
Cu6   O10   S    
C141  H96   S    
C124  H33   S    
C105  C111  A    
O52   C136  S    
C136  H79   S    
C41   O29   S    
C37   O28   S    
C98   O6    A    
C133  H65   S    
Cu1   O22   S    
Cu2   O23   S    
C24   C97   S    
C7    C8    A    
C84   C85   A    
O43   C131  S    
C104  O16   A    
C76   H8    S    
C86   C87   A    
O49   H72   S    
C58   C59   A    
O35   C126  S    
C8    C18   S    
O67   C144  S    
C60   C61   A    
C67   C68   A    
O57   C138  S    
C50   C51   A    
C13   O65   S    
C93   O55   S    
C2    O25   S    
C26   C36   S    
C48   C49   A    
Cu5   Cu6   S    
C94   H12   S    
O59   C140  S    
C66   O32   S    
C34   O26   S    
C106  H15   S    
C113  C114  A    
C127  H46   S    
C40   H4    S    
C46   C47   A    
C2    C110  A    
C33   O18   A    
C3    O64   S    
C62   H5    S    
Cu5   O16   S    
C76   C78   A    
C60   O39   S    
C119  C120  A    
C149  H125  S    
Cu6   O15   S    
C105  C106  A    
C111  O56   S    
C27   H18   S    
C90   C91   A    
O47   C134  S    
C92   C93   A    
Cu2   O12   S    
C142  H102  S    
C35   H2    S    
C74   O47   S    
C143  H105  S    
C64   C100  S    
O27   H24   S    
O76   H131  S    
C136  H77   S    
C115  O60   S    
C71   O45   S    
C107  C117  S    
O64   C142  S    
C93   C94   A    
Cu2   O21   S    
C5    C114  S    
C125  H37   S    
C81   C82   A    
C148  H121  S    
C57   C62   A    
C121  H21   S    
C142  H101  S    
C134  H68   S    
C103  C113  S    
C151  H133  S    
C138  H86   S    
C146  H115  S    
C42   O27   S    
C15   C16   A    
C116  C117  A    
C17   C101  S    
C118  C119  A    
C108  O57   S    
O74   H127  S    
C8    C9    A    
O33   H36   S    
C135  H74   S    
C143  H107  S    
C1    O1    A    
C150  H128  S    
C112  C113  A    
C132  H61   S    
Cu6   O13   S    
C54   C56   A    
C74   C75   A    
C33   O19   A    
C10   C11   A    
C78   C79   A    
C43   C49   A    
C43   O30   S    
C137  H83   S    
C130  H57   S    
C13   C24   A    
O31   C123  S    
C123  H32   S    
C16   H16   S    
O66   C143  S    
C47   C48   A    
Cu1   Cu2   S    
C94   C95   A    
C44   O21   A    
Cu3   O3    S    
Cu3   O24   S    
C40   C41   A    
C12   C14   A    
O70   H117  S    
C131  H59   S    
C21   O74   S    
C125  H39   S    
O42   C130  S    
C90   H11   S    
O26   C121  S    
C147  H120  S    
C14   C15   A    
C31   C32   A    
C80   C81   A    
C133  H64   S    
C65   C75   S    
C9    O70   S    
C7    O69   S    
C1    O12   A    
O72   C148  S    
Cu6   O17   S    
C126  H42   S    
C103  O14   A    
C128  H47   S    
C99   O49   S    
C23   C25   A    
O39   H50   S    
C19   C25   A    
C135  H76   S    
C3    C120  A    
C79   C80   A    
Cu1   O1    S    
C45   C46   A    
C129  H54   S    
C81   O51   S    
O36   H43   S    
C12   C18   A    
C27   C28   A    
C147  H118  S    
C47   O31   S    
C131  H58   S    
