data_mof_unit_46329.cif
_audit_creation_date              2013-03-05T15:55:53-0500
_audit_creation_method            fapswitch 2.2
_symmetry_space_group_name_H-M    P1
_symmetry_Int_Tables_number       1
_space_group_crystal_system       triclinic
_cell_length_a                    12.334389
_cell_length_b                    13.160161
_cell_length_c                    15.859009
_cell_angle_alpha                 77.64977
_cell_angle_beta                  101.13454
_cell_angle_gamma                 116.283403
_cell_volume                      2240.44399689

loop_
_atom_site_label
_atom_site_type_symbol
_atom_site_description
_atom_site_fract_x
_atom_site_fract_y
_atom_site_fract_z
_atom_type_partial_charge
O1    O     O_R   0.972510 0.318130 0.524770 -0.582173
O2    O     O_R   0.806530 0.359650 0.491510 -0.611615
C1    C     C_R   0.854735 0.286403 0.506703 0.779992
O3    O     O_R   0.082970 0.479240 0.637550 -0.571197
O4    O     O_R   0.916990 0.520750 0.604290 -0.593853
C2    C     C_R   0.999615 0.499950 0.659907 0.819881
Cu1   Cu    Cu3+1 0.098270 0.475420 0.519690 0.938865
Cu2   Cu    Cu3+1 0.901730 0.524580 0.480310 0.946502
O5    O     O_R   0.193470 0.640350 0.508490 -0.591965
O6    O     O_R   0.027490 0.681870 0.475230 -0.571761
O7    O     O_R   0.083010 0.479250 0.395710 -0.581988
O8    O     O_R   0.917030 0.520760 0.362450 -0.580127
C3    C     C_R   0.144786 0.713877 0.489645 0.807551
C4    C     C_R   0.000512 0.500257 0.340076 0.829032
C5    C     C_3   0.953545 0.392032 0.040314 -0.233568
C6    C     C_3   0.885361 0.445715 0.964515 -0.194627
H1    H     H_    0.790654 0.401166 0.934516 0.147627
H2    H     H_    0.915453 0.302704 0.074460 0.154049
C7    C     C_1   0.999267 0.500560 0.749399 -0.170561
C8    C     C_1   0.001321 0.500444 0.250520 -0.159014
C9    C     C_3   0.067371 0.448269 0.990999 0.022346
C10   C     C_3   0.000169 0.501416 0.916567 0.103112
C11   C     C_3   0.115456 0.556334 0.034559 0.150642
C12   C     C_3   0.001839 0.501108 0.083235 0.080536
C13   C     C_3   0.048425 0.610887 0.959168 -0.209602
C14   C     C_3   0.934757 0.553958 0.008634 0.008924
C15   C     C_1   0.999413 0.501061 0.824860 -0.043477
C16   C     C_1   0.001706 0.500690 0.175012 -0.054649
H3    H     H_    0.086200 0.700232 0.925016 0.142012
C17   C     C_R   0.269049 0.038532 0.447634 -0.231318
H4    H     H_    0.442060 0.236878 0.387535 0.150377
H5    H     H_    0.237285 0.105712 0.425862 0.143080
C18   C     C_R   0.226660 0.836879 0.483321 -0.106203
C19   C     C_R   0.816859 0.084007 0.558186 -0.208595
C20   C     C_R   0.738352 0.974414 0.590486 -0.166309
C21   C     C_R   0.612007 0.940245 0.579004 0.150131
C22   C     C_R   0.563050 0.012074 0.518518 0.060458
C23   C     C_R   0.644712 0.124970 0.486241 0.046836
C24   C     C_R   0.436430 0.980506 0.492748 0.072050
C25   C     C_R   0.393453 0.065585 0.456556 0.142517
C26   C     C_R   0.474309 0.173802 0.423579 -0.217413
C27   C     C_R   0.596628 0.198272 0.430326 -0.184172
C28   C     C_R   0.352079 0.866924 0.493712 -0.252514
C29   C     C_R   0.185447 0.924969 0.466133 -0.021383
C30   C     C_R   0.771577 0.163141 0.512904 -0.108254
H6    H     H_    0.384095 0.802349 0.496197 0.159592
H7    H     H_    0.913673 0.109824 0.576264 0.166470
H8    H     H_    0.778014 0.919877 0.632139 0.144475
H9    H     H_    0.652242 0.276295 0.392010 0.179419
C31   C     C_R   0.345381 0.326209 0.637107 -0.296374
H10   H     H_    0.167906 0.307456 0.651905 0.127903
H11   H     H_    0.545953 0.292328 0.665738 0.152563
H12   H     H_    0.343763 0.258525 0.690298 0.141537
N1    N     N_R   0.246280 0.438200 0.549540 -0.181668
C32   C     C_R   0.756450 0.645342 0.382314 0.177478
C33   C     C_R   0.659167 0.676129 0.358183 -0.263122
C34   C     C_R   0.557634 0.621348 0.402887 -0.207573
C35   C     C_R   0.551075 0.533862 0.473063 -0.002257
C36   C     C_R   0.653194 0.504840 0.496672 0.266282
C37   C     C_R   0.446839 0.474349 0.520426 -0.033638
C38   C     C_R   0.446050 0.386376 0.589929 0.167469
C39   C     C_R   0.545853 0.359301 0.612294 -0.274535
C40   C     C_R   0.647310 0.417732 0.567267 -0.168234
C41   C     C_R   0.342383 0.498052 0.501979 0.013931
C42   C     C_R   0.245901 0.353661 0.615726 0.079651
N2    N     N_R   0.754330 0.561180 0.450980 -0.230134
H13   H     H_    0.334859 0.563423 0.450444 0.122244
H14   H     H_    0.485679 0.649285 0.380588 0.138558
H15   H     H_    0.661679 0.742994 0.304017 0.150511
H16   H     H_    0.719197 0.391409 0.590468 0.206122
C43   C     C_3   0.540331 0.838958 0.643922 -0.399468
C44   C     C_3   0.481479 0.873830 0.702521 -0.803324
H17   H     H_    0.551802 0.944940 0.736533 0.249020
H18   H     H_    0.411052 0.901428 0.664974 0.255443
H19   H     H_    0.437196 0.799591 0.752046 0.241779
H20   H     H_    0.473067 0.764036 0.613700 0.200499
H21   H     H_    0.602116 0.804633 0.687993 0.200711
C45   C     C_1   0.858135 0.705076 0.332062 0.330671
N3    N     N_1   0.939187 0.753864 0.290965 -0.296036
C46   C     C_1   0.861379 0.611823 0.019260 0.244357
N4    N     N_1   0.803521 0.657453 0.027720 -0.279162
C47   C     C_3   0.244878 0.618799 0.077121 -0.412056
C48   C     C_3   0.336641 0.674062 0.010573 -0.808209
H22   H     H_    0.337036 0.608234 0.977192 0.261050
H23   H     H_    0.314313 0.738099 0.961534 0.245242
H24   H     H_    0.429181 0.718342 0.044004 0.247077
H25   H     H_    0.247532 0.686352 0.110211 0.209092
H26   H     H_    0.270001 0.556869 0.126700 0.209122
C49   C     C_1   0.138955 0.388575 0.980330 0.226169
N5    N     N_1   0.195424 0.341574 0.971885 -0.285397
C50   C     C_1   0.059864 0.903320 0.465418 0.271890
N6    N     N_1   0.959614 0.886993 0.465394 -0.295317

loop_
_geom_bond_atom_site_label_1
_geom_bond_atom_site_label_2
_geom_bond_distance
_ccdc_geom_bond_type
C5    H2    1.110291 S    
C32   C33   1.391877 A    
Cu2   N2    2.026546 S    
C11   C47   1.529284 S    
C26   C27   1.383303 A    
C20   C21   1.403122 A    
Cu1   Cu2   2.704942 S    
N1    C42   1.355460 A    
C9    C49   1.467708 S    
Cu1   O7    1.930538 S    
C2    C7    1.421837 S    
C39   C40   1.387535 A    
C21   C22   1.439539 A    
C12   C14   1.532200 S    
C23   C27   1.416448 A    
O3    Cu1   1.927866 S    
C36   N2    1.389646 A    
C43   H20   1.101960 S    
O7    C4    1.299361 A    
C35   C37   1.435309 A    
C5    C6    1.556884 S    
C33   C34   1.383993 A    
C19   C20   1.385243 A    
H10   C42   1.081809 S    
O5    C3    1.306817 A    
C23   C30   1.420880 A    
C6    H1    1.110318 S    
C10   C13   1.545265 S    
C11   C12   1.537470 S    
C7    C15   1.197825 T    
C21   C43   1.529427 S    
C9    C10   1.533621 S    
C13   H3    1.110314 S    
C17   C29   1.395491 A    
C44   H19   1.111122 S    
C20   H8    1.083570 S    
C31   C42   1.389462 A    
C6    C14   1.543700 S    
C31   H12   1.083840 S    
C18   C28   1.401536 A    
C41   H13   1.075793 S    
C4    C8    1.421709 S    
O3    C2    1.298978 A    
C50   N6    1.157453 T    
C32   C45   1.439104 S    
C45   N3    1.157880 T    
C46   N4    1.157084 T    
C24   C28   1.391426 A    
C8    C16   1.197711 T    
C13   C14   1.544506 S    
C1    C30   1.479960 S    
C14   C46   1.466860 S    
C37   C38   1.415526 A    
O1    C1    1.311474 A    
C3    C18   1.473806 S    
C22   C23   1.425641 A    
C48   H22   1.109810 S    
C40   H16   1.064464 S    
Cu2   O8    1.927867 S    
C17   C25   1.398283 A    
C19   C30   1.397322 A    
C29   C50   1.443760 S    
C44   H18   1.108242 S    
C25   C26   1.386115 A    
C48   H23   1.110566 S    
O8    C4    1.298895 A    
C33   H15   1.084429 S    
C10   C15   1.453601 S    
C9    C11   1.538362 S    
C34   H14   1.077059 S    
C43   H21   1.112377 S    
C32   N2    1.372107 A    
Cu1   O5    1.944205 S    
C5    C12   1.543626 S    
C6    C10   1.542398 S    
H4    C26   1.084280 S    
O1    Cu1   1.957213 S    
C18   C29   1.417682 A    
O2    Cu2   1.944205 S    
C12   C16   1.454645 S    
C44   H17   1.111491 S    
O6    C3    1.302534 A    
O4    Cu2   1.930538 S    
C36   C40   1.407660 A    
C37   C41   1.419216 A    
O2    C1    1.301402 A    
C35   C36   1.433657 A    
C43   C44   1.529445 S    
C22   C24   1.424875 A    
H11   C39   1.084521 S    
C17   H5    1.085498 S    
C34   C35   1.405293 A    
O4    C2    1.299276 A    
N1    C41   1.363355 A    
C47   H26   1.110823 S    
C11   C13   1.550880 S    
C38   C39   1.390647 A    
C28   H6    1.075448 S    
C27   H9    1.079074 S    
C24   C25   1.413251 A    
C5    C9    1.544935 S    
C48   H24   1.110349 S    
Cu2   O6    1.957213 S    
C47   C48   1.525727 S    
C31   C38   1.401150 A    
C19   H7    1.083386 S    
Cu1   N1    2.038592 S    
C49   N5    1.157017 T    
C47   H25   1.110830 S    
