data_mof_unit_67101.cif
_audit_creation_date              2012-12-11T17:44:22-0500
_audit_creation_method            fapswitch 2.2
_symmetry_space_group_name_H-M    P1
_symmetry_Int_Tables_number       1
_space_group_crystal_system       triclinic
_cell_length_a                    8.19178
_cell_length_b                    12.669444
_cell_length_c                    14.937956
_cell_angle_alpha                 96.272774
_cell_angle_beta                  97.823539
_cell_angle_gamma                 98.860929
_cell_volume                      1504.08826084

loop_
_atom_site_label
_atom_site_type_symbol
_atom_type_description
_atom_site_fract_x
_atom_site_fract_y
_atom_site_fract_z
_atom_type_partial_charge
Ba1   Ba    Ba6+2 0.843760 0.550230 0.455610 1.693140
Ba2   Ba    Ba6+2 0.346080 0.449860 0.544400 1.714852
C1    C     C_3   0.605652 0.856427 0.065725 0.224712
C2    C     C_3   0.551327 0.814045 0.151014 0.387071
C3    C     C_3   0.403095 0.282774 0.265616 0.318363
C4    C     C_3   0.312116 0.238820 0.169988 -0.374424
C5    C     C_3   0.061002 0.208101 0.791053 0.354559
C6    C     C_3   0.035433 0.153914 0.875364 -0.368693
C7    C     C_3   0.590119 0.233084 0.901434 0.307882
C8    C     C_3   0.506815 0.292115 0.972935 -0.376165
C9    C     C_R   0.368003 0.566759 0.170034 -0.033160
C10   C     C_R   0.110004 0.471195 0.207289 0.056843
C11   C     C_R   0.920516 0.473816 0.766615 -0.229207
C12   C     C_3   0.090437 0.774336 0.207932 0.352991
C13   C     C_R   0.820327 0.436382 0.828790 0.033102
C14   C     C_R   0.883783 0.453317 0.921930 -0.100800
C15   C     C_R   0.052523 0.498732 0.954303 0.030562
C16   C     C_R   0.150641 0.542229 0.890367 -0.040893
C17   C     C_R   0.125208 0.504865 0.048590 0.008595
C18   C     C_R   0.295563 0.554371 0.076730 -0.051052
C19   C     C_R   0.388857 0.592553 0.011560 -0.100051
C20   C     C_R   0.315349 0.593407 0.922463 0.014316
C21   C     C_R   0.036770 0.460124 0.115316 -0.127824
C22   C     C_R   0.272659 0.526917 0.233892 -0.279209
C23   C     C_3   0.075598 0.805711 0.112135 -0.318404
C24   C     C_R   0.081840 0.531550 0.795825 0.009674
C25   C     C_R   0.774885 0.180218 0.532007 -0.273555
C26   C     C_R   0.417997 0.809051 0.464693 -0.268622
C27   C     C_R   0.381659 0.988754 0.439094 -0.052230
C28   C     C_R   0.317844 0.879848 0.431292 -0.012614
C29   C     C_R   0.578107 0.847739 0.513566 0.069633
C30   C     C_R   0.645224 0.959580 0.522678 -0.023311
C31   C     C_R   0.546159 0.030029 0.482273 -0.015900
C32   C     C_R   0.614181 0.140027 0.486075 0.061041
C33   C     C_R   0.873933 0.112319 0.570526 -0.020443
C34   C     C_3   0.272399 0.781369 0.653152 0.283612
C35   C     C_R   0.808592 0.003326 0.568746 -0.064368
C36   C     C_3   0.305940 0.904062 0.674319 0.015756
C37   C     C_3   0.931294 0.214474 0.343584 0.260133
C38   C     C_3   0.961016 0.099351 0.326757 -0.302115
C39   C     C_3   0.872185 0.755093 0.727770 0.431952
C40   C     C_3   0.894185 0.775288 0.831405 0.174854
H1    H     H_    0.202181 0.933251 0.704520 0.107775
H2    H     H_    0.316707 0.940383 0.611095 0.025566
H3    H     H_    0.800290 0.213914 0.353326 0.019358
H4    H     H_    0.016963 0.254105 0.406279 0.058546
H5    H     H_    0.885059 0.057669 0.261886 0.169142
H6    H     H_    0.927068 0.056044 0.383786 0.102915
H7    H     H_    0.094383 0.099071 0.321103 0.117709
H8    H     H_    0.970909 0.812000 0.706433 -0.068284
H9    H     H_    0.882654 0.670509 0.705494 -0.022648
H10   H     H_    0.711893 0.924720 0.084750 0.086617
H11   H     H_    0.020289 0.762068 0.860706 0.050571
H12   H     H_    0.881870 0.859725 0.854223 0.097548
H13   H     H_    0.424982 0.765277 0.133358 -0.013016
H14   H     H_    0.314287 0.319120 0.304179 0.009681
H15   H     H_    0.510693 0.345908 0.261058 0.046802
H16   H     H_    0.192853 0.185577 0.173695 0.143846
H17   H     H_    0.284686 0.306020 0.131817 0.044250
H18   H     H_    0.390326 0.190845 0.132839 0.163799
H19   H     H_    0.648120 0.792533 0.023074 0.111000
H20   H     H_    0.112755 0.743062 0.064867 0.105914
H21   H     H_    0.143164 0.287832 0.812218 0.050241
H22   H     H_    0.935866 0.220438 0.758354 -0.075673
H23   H     H_    0.149920 0.123509 0.902228 0.158183
H24   H     H_    0.005877 0.212362 0.929218 0.060547
H25   H     H_    0.930638 0.084587 0.857764 0.134735
H26   H     H_    0.728020 0.254541 0.915092 -0.056308
H27   H     H_    0.563479 0.146551 0.909395 0.143058
H28   H     H_    0.524276 0.380042 0.970960 0.126109
H29   H     H_    0.563883 0.279292 0.041724 0.082186
H30   H     H_    0.002347 0.697886 0.206288 0.088806
H31   H     H_    0.370997 0.260632 0.962751 0.113849
H32   H     H_    0.328104 0.534882 0.304778 0.071405
H33   H     H_    0.520535 0.624045 0.029208 0.103478
H34   H     H_    0.912235 0.414055 0.097882 0.082375
H35   H     H_    0.868853 0.463284 0.694986 0.065447
H36   H     H_    0.798988 0.432372 0.968168 0.055023
H37   H     H_    0.392286 0.632768 0.878896 0.189776
H38   H     H_    0.301361 0.039422 0.409506 0.097417
H39   H     H_    0.888029 0.954569 0.602465 0.074659
H40   H     H_    0.826283 0.264601 0.534077 0.049803
H41   H     H_    0.220453 0.761146 0.228773 -0.052748
H42   H     H_    0.367000 0.724018 0.457644 0.059143
H43   H     H_    0.944727 0.813350 0.087566 0.129723
H44   H     H_    0.157865 0.883953 0.112028 0.180257
H45   H     H_    0.382576 0.753171 0.630727 0.029421
H46   H     H_    0.163961 0.757918 0.597558 0.007440
O1    O     O_2   0.827930 0.435360 0.277760 -0.457131
O2    O     O_3   0.715955 0.775232 0.690843 -0.592981
O3    O     O_3   0.049829 0.856625 0.267612 -0.568561
O4    O     O_2   0.361790 0.564680 0.722290 -0.412564
O5    O     O_3   0.089410 0.561080 0.608830 -0.512983
O6    O     O_3   0.564100 0.365890 0.666740 -0.444112
O7    O     O_3   0.239535 0.737207 0.731847 -0.615050
O8    O     O_3   0.601940 0.368260 0.453780 -0.484004
O9    O     O_3   0.133140 0.308990 0.620990 -0.481467
O10   O     O_2   0.217971 0.119669 0.570468 -0.479884
O11   O     O_3   0.139195 0.143115 0.733665 -0.564868
O12   O     O_3   0.100310 0.439010 0.391180 -0.503867
O13   O     O_3   0.587770 0.631830 0.546230 -0.467266
O14   O     O_2   0.332600 0.233710 0.456170 -0.478559
O15   O     O_3   0.461077 0.197829 0.305942 -0.613695
O16   O     O_2   0.479466 0.443487 0.820722 -0.464402
O17   O     O_3   0.525057 0.244272 0.811178 -0.553220
O18   O     O_3   0.625610 0.634200 0.333270 -0.448712
O19   O     O_2   0.706215 0.557828 0.177728 -0.490149
O20   O     O_3   0.957598 0.263256 0.266103 -0.633946
O21   O     O_3   0.674128 0.759557 0.191473 -0.587570
O22   O     O_2   0.857120 0.766320 0.543890 -0.503395
O23   O     O_3   0.056570 0.691100 0.379020 -0.488153
O24   O     O_2   0.976272 0.879182 0.432802 -0.477453
P1    P     P_3+3 0.998770 0.403620 0.291990 0.977580
P2    P     P_3+3 0.687370 0.751000 0.571300 1.006170
P3    P     P_3+3 0.100412 0.829137 0.379366 0.989519
P4    P     P_3+3 0.190950 0.596470 0.708020 0.999308
P5    P     P_3+3 0.090816 0.169681 0.621632 0.989205
P6    P     P_3+3 0.588906 0.630689 0.214726 0.970488
P7    P     P_3+3 0.506539 0.233285 0.424167 0.953130
P8    P     P_3+3 0.600728 0.373155 0.785452 1.030932
I1    I     I_    0.532210 0.948780 0.243785 -0.490351
I2    I     I_    0.531984 0.961226 0.766702 -0.368656
Cl1   Cl    Cl    0.741381 0.686107 0.872729 -0.740032
Cl2   Cl    Cl    0.436984 0.899515 0.998715 -0.689344

loop_
_geom_bond_atom_site_label_1
_geom_bond_atom_site_label_2
_ccdc_geom_bond_type
C38   H5    S    
C2    O21   S    
C3    O15   S    
C6    H24   S    
C26   H42   S    
C39   C40   S    
C4    H16   S    
O8    P7    S    
C17   C18   A    
C16   C24   A    
C21   H34   S    
C5    C6    S    
C34   H46   S    
C10   C21   A    
C5    O11   S    
C33   C35   A    
C7    H27   S    
C20   H37   S    
C40   H11   S    
C3    C4    S    
C8    H31   S    
Ba2   O14   S    
C7    O17   S    
C13   C14   A    
C27   C31   A    
C9    C22   A    
C13   P8    S    
Ba1   Ba2   S    
C3    H14   S    
O6    P8    S    
Ba2   O9    S    
C14   C15   A    
C40   Cl1   S    
O17   P8    S    
C7    C8    S    
O22   P2    D    
O19   P6    D    
Ba1   O18   S    
C37   H3    S    
C8    H29   S    
C39   O2    S    
Ba2   O12   S    
C6    H23   S    
C25   C32   A    
C19   C20   A    
O18   P6    S    
O13   P2    S    
C35   H39   S    
Ba2   P4    S    
C12   H41   S    
Ba1   O12   S    
O21   P6    S    
C15   C16   A    
O1    P1    D    
C28   P3    S    
C1    H19   S    
C34   H45   S    
C37   O20   S    
C5    H22   S    
C11   H35   S    
C9    C18   A    
C4    H18   S    
Ba2   O6    S    
C37   C38   S    
Ba2   O13   S    
C25   C33   A    
O5    P4    S    
O20   P1    S    
C17   C21   A    
C26   C29   A    
C36   H2    S    
C27   C28   A    
Ba1   O22   S    
O11   P5    S    
C29   C30   A    
O7    P4    S    
C23   H43   S    
C31   C32   A    
C30   C35   A    
Ba2   O4    S    
O4    P4    D    
C5    H21   S    
C36   I2    S    
C37   H4    S    
C8    H28   S    
C11   C13   A    
C2    H13   S    
C11   C24   A    
C33   P5    S    
Ba1   P2    S    
C1    C2    S    
Ba1   O13   S    
C39   H8    S    
C1    Cl2   S    
O10   P5    D    
C10   P1    S    
C32   P7    S    
C38   H6    S    
C10   C22   A    
Ba1   O1    S    
C29   P2    S    
C16   C20   A    
C12   H30   S    
C4    H17   S    
C25   H40   S    
Ba2   O5    S    
O15   P7    S    
O12   P1    S    
C1    H10   S    
C19   H33   S    
C3    H15   S    
C30   C31   A    
C26   C28   A    
C7    H26   S    
C36   H1    S    
Ba1   O23   S    
C34   C36   S    
C34   O7    S    
C22   H32   S    
C27   H38   S    
Ba1   O8    S    
Ba2   O8    S    
C23   H44   S    
C15   C17   A    
O3    P3    S    
C2    I1    S    
C14   H36   S    
C23   H20   S    
O2    P2    S    
C12   C23   S    
O9    P5    S    
C24   P4    S    
C12   O3    S    
Ba1   P1    S    
C18   C19   A    
C6    H25   S    
Ba1   O5    S    
O23   P3    S    
C9    P6    S    
C39   H9    S    
O24   P3    D    
C40   H12   S    
O14   P7    D    
C38   H7    S    
O16   P8    D    
