data_mof_unit_54054.cif
_audit_creation_date              2012-12-10T20:53:00-0500
_audit_creation_method            fapswitch 2.2
_symmetry_space_group_name_H-M    P1
_symmetry_Int_Tables_number       1
_space_group_crystal_system       triclinic
_cell_length_a                    18.323061
_cell_length_b                    18.321473
_cell_length_c                    18.325663
_cell_angle_alpha                 59.854523
_cell_angle_beta                  59.854619
_cell_angle_gamma                 59.849099
_cell_volume                      4335.60201234

loop_
_atom_site_label
_atom_site_type_symbol
_atom_type_description
_atom_site_fract_x
_atom_site_fract_y
_atom_site_fract_z
_atom_type_partial_charge
C1    C     C_R   0.389933 0.110414 0.109910 0.788772
C2    C     C_R   0.338042 0.837209 0.879688 -0.134659
C3    C     C_R   0.040163 0.522273 0.905569 0.067079
C4    C     C_R   0.476356 0.094569 0.959815 0.067039
C5    C     C_R   0.523696 0.905461 0.040147 0.067067
C6    C     C_R   0.945789 0.946085 0.553836 -0.149955
C7    C     C_R   0.054217 0.053906 0.446167 -0.149962
C8    C     C_R   0.946119 0.553821 0.945759 -0.150181
C9    C     C_R   0.053883 0.446175 0.054240 -0.150180
C10   C     C_R   0.553851 0.945815 0.946058 -0.149987
C11   C     C_R   0.446166 0.054217 0.053904 -0.149997
C12   C     C_R   0.875115 0.600974 0.333890 0.110134
C13   C     C_R   0.162958 0.120857 0.661896 -0.134657
C14   C     C_R   0.874531 0.512592 0.382561 -0.118164
C15   C     C_R   0.793705 0.496017 0.439234 -0.175853
C16   C     C_R   0.712876 0.567369 0.446824 -0.116042
C17   C     C_R   0.712741 0.655445 0.397790 -0.121474
C18   C     C_R   0.793496 0.672310 0.341350 -0.172483
C19   C     C_R   0.124911 0.399037 0.666007 0.110194
C20   C     C_R   0.125450 0.487436 0.617399 -0.118209
C21   C     C_R   0.206238 0.504063 0.560646 -0.175881
C22   C     C_R   0.287080 0.432742 0.552904 -0.116018
C23   C     C_R   0.287260 0.344647 0.601872 -0.121542
C24   C     C_R   0.837053 0.879144 0.338110 -0.134652
C25   C     C_R   0.206543 0.327729 0.658402 -0.172481
C26   C     C_R   0.601212 0.332568 0.876592 0.109830
C27   C     C_R   0.512754 0.380198 0.876081 -0.116808
C28   C     C_R   0.495976 0.436469 0.795312 -0.174898
C29   C     C_R   0.567220 0.444686 0.714472 -0.115311
C30   C     C_R   0.655388 0.396676 0.714277 -0.120915
C31   C     C_R   0.672453 0.340638 0.794975 -0.172266
C32   C     C_R   0.398635 0.667364 0.123519 0.109809
C33   C     C_R   0.487064 0.619617 0.124109 -0.116789
C34   C     C_R   0.503757 0.563327 0.204917 -0.174705
C35   C     C_R   0.106002 0.613668 0.253509 -0.113791
C36   C     C_R   0.432460 0.555191 0.285715 -0.115151
C37   C     C_R   0.344322 0.603320 0.285835 -0.120970
C38   C     C_R   0.327340 0.659388 0.205100 -0.172364
C39   C     C_R   0.332323 0.876354 0.602349 0.109915
C40   C     C_R   0.380342 0.875365 0.514081 -0.116514
C41   C     C_R   0.436426 0.794318 0.497793 -0.174730
C42   C     C_R   0.444076 0.713669 0.569329 -0.114900
C43   C     C_R   0.395656 0.713935 0.657307 -0.120945
C44   C     C_R   0.339789 0.794911 0.673884 -0.173011
C45   C     C_R   0.667647 0.123651 0.397650 0.109897
C46   C     C_R   0.894007 0.386323 0.746524 -0.113746
C47   C     C_R   0.619576 0.124651 0.485913 -0.116513
C48   C     C_R   0.563471 0.205702 0.502187 -0.174747
C49   C     C_R   0.555847 0.286345 0.430643 -0.114940
C50   C     C_R   0.604323 0.286069 0.342671 -0.120927
C51   C     C_R   0.660214 0.205089 0.326108 -0.173000
C52   C     C_R   0.613625 0.253785 0.107187 -0.114790
C53   C     C_R   0.386418 0.746232 0.892806 -0.114658
C54   C     C_R   0.253910 0.107606 0.613344 -0.114208
C55   C     C_R   0.746103 0.892385 0.386655 -0.114201
C56   C     C_R   0.027814 0.590997 0.310549 0.096573
C57   C     C_R   0.610070 0.889623 0.890050 0.788795
C58   C     C_R   0.972188 0.408998 0.689450 0.096597
C59   C     C_R   0.591121 0.310333 0.028870 0.097176
C60   C     C_R   0.408877 0.689661 0.971147 0.097160
C61   C     C_R   0.310329 0.029064 0.591185 0.097211
C62   C     C_R   0.689671 0.970926 0.408816 0.097208
C63   C     C_R   0.960580 0.619376 0.275738 0.023286
C64   C     C_R   0.039471 0.380593 0.724208 0.023239
C65   C     C_R   0.619750 0.274954 0.962010 0.024134
C66   C     C_R   0.380174 0.725007 0.038059 0.024091
C67   C     C_R   0.274851 0.962070 0.620397 0.023779
C68   C     C_R   0.110421 0.109908 0.389929 0.788705
C69   C     C_R   0.725135 0.037929 0.379612 0.023787
C70   C     C_R   0.974261 0.668201 0.184162 -0.170977
C71   C     C_R   0.025853 0.331724 0.815770 -0.171024
C72   C     C_R   0.668828 0.183348 0.976072 -0.170886
C73   C     C_R   0.331077 0.816609 0.024013 -0.170937
C74   C     C_R   0.183264 0.976281 0.669638 -0.171088
C75   C     C_R   0.816724 0.023726 0.330378 -0.171095
C76   C     C_R   0.053121 0.688738 0.127933 -0.119853
C77   C     C_R   0.947000 0.311181 0.872033 -0.119873
C78   C     C_R   0.689286 0.127617 0.055017 -0.119918
C79   C     C_R   0.889587 0.890082 0.610072 0.788705
C80   C     C_R   0.310669 0.872363 0.945044 -0.119938
C81   C     C_R   0.127668 0.055446 0.689733 -0.120115
C82   C     C_R   0.872331 0.944562 0.310282 -0.120114
C83   C     C_R   0.961613 0.592461 0.463644 -0.235308
C84   C     C_R   0.038346 0.407536 0.536360 -0.235283
C85   C     C_R   0.592523 0.463529 0.962076 -0.235810
C86   C     C_R   0.407477 0.536470 0.037909 -0.235742
C87   C     C_R   0.463546 0.962134 0.592512 -0.235628
C88   C     C_R   0.536456 0.037839 0.407486 -0.235616
C89   C     C_R   0.945649 0.551820 0.555727 -0.056920
C90   C     C_R   0.109864 0.389938 0.110460 0.788804
C91   C     C_R   0.054322 0.448178 0.444275 -0.056947
C92   C     C_R   0.551840 0.555709 0.945641 -0.056717
C93   C     C_R   0.448160 0.444290 0.054349 -0.056639
C94   C     C_R   0.555720 0.945629 0.551831 -0.057008
C95   C     C_R   0.444281 0.054351 0.448167 -0.057001
C96   C     C_R   0.984407 0.457874 0.592782 -0.001278
C97   C     C_R   0.015559 0.542124 0.407222 -0.001287
C98   C     C_R   0.457836 0.592872 0.983944 -0.001209
C99   C     C_R   0.542164 0.407126 0.016051 -0.001142
C100  C     C_R   0.592873 0.983871 0.457828 -0.001439
C101  C     C_R   0.890138 0.610061 0.889538 0.788812
C102  C     C_R   0.407129 0.016106 0.542170 -0.001426
C103  C     C_R   0.110093 0.390605 0.389619 0.780454
C104  C     C_R   0.889902 0.609395 0.610381 0.780432
C105  C     C_R   0.390596 0.389631 0.110117 0.780439
C106  C     C_R   0.609404 0.610369 0.889882 0.780452
C107  C     C_R   0.389628 0.110113 0.390595 0.780356
C108  C     C_R   0.610372 0.889882 0.609405 0.780344
C109  C     C_R   0.188748 0.918455 0.453401 -0.147764
C110  C     C_R   0.811256 0.081535 0.546625 -0.147752
C111  C     C_R   0.918511 0.455512 0.188562 -0.148336
C112  C     C_R   0.118733 0.661795 0.162578 -0.134227
C113  C     C_R   0.081489 0.544459 0.811438 -0.148337
C114  C     C_R   0.452875 0.188807 0.918510 -0.147880
C115  C     C_R   0.547228 0.811219 0.081451 -0.147817
C116  C     C_R   0.227397 0.825491 0.483362 -0.124993
C117  C     C_R   0.772603 0.174500 0.516671 -0.125027
C118  C     C_R   0.825594 0.486457 0.227094 -0.126385
C119  C     C_R   0.174405 0.513477 0.772909 -0.126449
C120  C     C_R   0.482665 0.227483 0.825571 -0.125229
C121  C     C_R   0.517509 0.772529 0.174396 -0.125228
C122  C     C_R   0.173527 0.771969 0.537314 -0.146908
C123  C     C_R   0.881334 0.338161 0.837440 -0.134243
C124  C     C_R   0.826473 0.228022 0.462710 -0.146888
C125  C     C_R   0.772117 0.540463 0.173189 -0.147344
C126  C     C_R   0.227879 0.459454 0.826816 -0.147358
C127  C     C_R   0.536728 0.173622 0.772039 -0.146670
C128  C     C_R   0.463456 0.826387 0.227928 -0.146628
C129  C     C_R   0.080677 0.811101 0.561099 -0.151089
C130  C     C_R   0.919325 0.188889 0.438912 -0.151073
C131  C     C_R   0.811234 0.563272 0.080423 -0.151105
C132  C     C_R   0.188765 0.436674 0.919579 -0.151115
C133  C     C_R   0.560752 0.080754 0.811130 -0.151141
C134  C     C_R   0.661982 0.162800 0.120329 -0.134673
C135  C     C_R   0.439365 0.919265 0.188832 -0.151104
C136  C     C_R   0.039802 0.905402 0.530994 0.069708
C137  C     C_R   0.960203 0.094589 0.469014 0.069706
C138  C     C_R   0.905477 0.532107 0.039670 0.069759
C139  C     C_R   0.094524 0.467872 0.960329 0.069766
C140  C     C_R   0.530792 0.039848 0.905407 0.069606
C141  C     C_R   0.469264 0.960180 0.094555 0.069619
C142  C     C_R   0.094532 0.959797 0.476604 0.067048
C143  C     C_R   0.905473 0.040195 0.523408 0.067057
C144  C     C_R   0.959838 0.477713 0.094430 0.067058
H1    H     H_    0.796216 0.300190 0.439389 0.122042
H2    H     H_    0.335683 0.565343 0.067364 0.164970
H3    H     H_    0.434681 0.932755 0.664303 0.165196
H4    H     H_    0.565322 0.067219 0.335695 0.165217
H5    H     H_    0.233406 0.957335 0.411682 0.110699
H6    H     H_    0.766598 0.042656 0.588356 0.110708
H7    H     H_    0.957354 0.413769 0.233252 0.111191
H8    H     H_    0.042647 0.586214 0.766747 0.111178
H9    H     H_    0.411069 0.233465 0.957397 0.110538
H10   H     H_    0.589044 0.766565 0.042565 0.110593
H11   H     H_    0.299453 0.794800 0.464405 0.136114
H12   H     H_    0.203779 0.699805 0.560640 0.122073
H13   H     H_    0.700542 0.205191 0.535636 0.136070
H14   H     H_    0.794881 0.468194 0.299093 0.138119
H15   H     H_    0.205115 0.531716 0.700911 0.138140
H16   H     H_    0.463511 0.299547 0.794909 0.135819
H17   H     H_    0.536710 0.700451 0.205058 0.135657
H18   H     H_    0.041512 0.766708 0.602935 0.112982
H19   H     H_    0.958489 0.233284 0.397066 0.112994
H20   H     H_    0.766862 0.605151 0.041238 0.113105
H21   H     H_    0.233135 0.394782 0.958767 0.113105
H22   H     H_    0.602678 0.041594 0.766731 0.112786
H23   H     H_    0.299999 0.435342 0.796651 0.121874
H24   H     H_    0.397442 0.958421 0.233233 0.112827
H25   H     H_    0.063128 0.726115 0.057430 0.133763
H26   H     H_    0.937036 0.273772 0.942526 0.133771
H27   H     H_    0.726860 0.057078 0.065338 0.133767
H28   H     H_    0.273078 0.942897 0.934740 0.133774
H29   H     H_    0.057151 0.065854 0.727457 0.133751
H30   H     H_    0.942849 0.934160 0.272564 0.133743
H31   H     H_    0.179374 0.678562 0.118988 0.123981
H32   H     H_    0.820698 0.321387 0.881059 0.123980
H33   H     H_    0.678680 0.119587 0.181036 0.124120
H34   H     H_    0.699995 0.564539 0.203358 0.121864
H35   H     H_    0.321377 0.880440 0.818964 0.124106
H36   H     H_    0.119861 0.181719 0.678353 0.124138
H37   H     H_    0.880161 0.818284 0.321651 0.124134
H38   H     H_    0.157246 0.593549 0.279651 0.122483
H39   H     H_    0.842724 0.406458 0.720422 0.122441
H40   H     H_    0.593251 0.280359 0.158182 0.122704
H41   H     H_    0.406842 0.719682 0.841775 0.122699
H42   H     H_    0.280564 0.158680 0.592585 0.122631
H43   H     H_    0.719460 0.841305 0.407406 0.122671
H44   H     H_    0.923806 0.690144 0.156223 0.144406
H45   H     H_    0.440305 0.796095 0.300080 0.121254
H46   H     H_    0.076347 0.309755 0.843671 0.144419
H47   H     H_    0.691014 0.154997 0.925867 0.144019
H48   H     H_    0.308831 0.844941 0.074253 0.143999
H49   H     H_    0.154818 0.926003 0.692259 0.143945
H50   H     H_    0.845161 0.074008 0.307761 0.143939
H51   H     H_    0.936378 0.456588 0.376154 0.109381
H52   H     H_    0.793709 0.427802 0.476650 0.119480
H53   H     H_    0.650377 0.554374 0.490378 0.107166
H54   H     H_    0.650104 0.710674 0.403679 0.126440
H55   H     H_    0.792543 0.740889 0.304270 0.118862
H56   H     H_    0.559944 0.203898 0.699898 0.121324
H57   H     H_    0.063596 0.543411 0.623910 0.109396
H58   H     H_    0.206200 0.572291 0.523276 0.119499
H59   H     H_    0.349548 0.445776 0.509288 0.107139
H60   H     H_    0.349905 0.289447 0.595857 0.126471
H61   H     H_    0.207532 0.259135 0.695427 0.118830
H62   H     H_    0.456866 0.373333 0.937952 0.109382
H63   H     H_    0.427701 0.473134 0.795361 0.119242
H64   H     H_    0.554064 0.487947 0.652023 0.106733
H65   H     H_    0.710528 0.403065 0.651639 0.126404
H66   H     H_    0.741088 0.304371 0.793988 0.118626
H67   H     H_    0.931792 0.664202 0.434872 0.165010
H68   H     H_    0.542998 0.626393 0.062274 0.109395
H69   H     H_    0.572007 0.526553 0.204930 0.119178
H70   H     H_    0.445556 0.511897 0.348187 0.106659
H71   H     H_    0.289138 0.596998 0.348441 0.126440
H72   H     H_    0.258725 0.695749 0.206034 0.118644
H73   H     H_    0.373919 0.937078 0.457952 0.109401
H74   H     H_    0.473394 0.794012 0.429664 0.118402
H75   H     H_    0.487211 0.651007 0.556550 0.106855
H76   H     H_    0.401590 0.651432 0.712678 0.126589
H77   H     H_    0.303172 0.794261 0.742380 0.118702
H78   H     H_    0.068171 0.335796 0.565134 0.165014
H79   H     H_    0.625969 0.062945 0.542049 0.109412
H80   H     H_    0.526456 0.206017 0.570311 0.118476
H81   H     H_    0.512689 0.349009 0.443411 0.106851
H82   H     H_    0.598413 0.348565 0.287294 0.126511
H83   H     H_    0.696874 0.205734 0.257615 0.118691
H84   H     H_    0.664317 0.434656 0.932621 0.164964
O1    O     O_3   0.250000 0.250000 0.250000 -0.483781
O2    O     O_R   0.865800 0.694910 0.573470 -0.643923
O3    O     O_R   0.305090 0.426530 0.134200 -0.644115
O4    O     O_R   0.694910 0.573470 0.865800 -0.644126
O5    O     O_R   0.426530 0.134200 0.305090 -0.643925
O6    O     O_R   0.573470 0.865800 0.694910 -0.643950
O7    O     O_R   0.134190 0.426530 0.134200 -0.634499
O8    O     O_R   0.865810 0.573470 0.865800 -0.634497
O9    O     O_R   0.426530 0.134200 0.134190 -0.634545
O10   O     O_R   0.573470 0.865800 0.865810 -0.634526
O11   O     O_R   0.134200 0.134190 0.426530 -0.634544
O12   O     O_3   0.750000 0.750000 0.750000 -0.483779
O13   O     O_R   0.865800 0.865810 0.573470 -0.634539
O14   O     O_R   0.426530 0.305080 0.134210 -0.637557
O15   O     O_R   0.573470 0.694920 0.865790 -0.637544
O16   O     O_R   0.305080 0.134210 0.426530 -0.637604
O17   O     O_R   0.694920 0.865790 0.573470 -0.637595
O18   O     O_R   0.134210 0.426530 0.305080 -0.637528
O19   O     O_R   0.865790 0.573470 0.694920 -0.637554
O20   O     O_R   0.305080 0.134200 0.134200 -0.637655
O21   O     O_R   0.694920 0.865800 0.865800 -0.637673
O22   O     O_R   0.134200 0.134200 0.305080 -0.637556
O23   O     O_R   0.865800 0.865800 0.694920 -0.637568
O24   O     O_R   0.134200 0.305080 0.134200 -0.637647
O25   O     O_R   0.865800 0.694920 0.865800 -0.637640
O26   O     O_R   0.134200 0.305090 0.426530 -0.643921
Zn1   Zn    Zn3+2 0.206620 0.206630 0.380140 0.963452
Zn2   Zn    Zn3+2 0.793380 0.793370 0.619860 0.963443
Zn3   Zn    Zn3+2 0.206630 0.380140 0.206620 0.963346
Zn4   Zn    Zn3+2 0.793370 0.619860 0.793380 0.963328
Zn5   Zn    Zn3+2 0.380140 0.206620 0.206630 0.963463
Zn6   Zn    Zn3+2 0.619860 0.793380 0.793370 0.963464
Zn7   Zn    Zn3+2 0.206620 0.206620 0.206620 0.957389
Zn8   Zn    Zn3+2 0.793380 0.793380 0.793380 0.957391

loop_
_geom_bond_atom_site_label_1
_geom_bond_atom_site_label_2
_ccdc_geom_bond_type
O25   Zn8   S    
C130  H19   S    
C14   H51   S    
C87   C94   A    
C115  C121  A    
C40   H73   S    
C52   C134  A    
O14   Zn5   S    
C101  O25   A    
C43   H76   S    
C1    C11   S    
C106  O15   A    
C127  H56   S    
C30   H65   S    
C123  H32   S    
C120  C127  A    
C92   C98   A    
C76   H25   S    
O5    Zn5   S    
C35   H38   S    
O6    Zn6   S    
O23   Zn8   S    
O3    Zn3   S    
C94   C108  S    
C26   C27   A    
C37   C38   A    
C29   H64   S    
C87   H3    S    
C22   H59   S    
C111  C118  A    
C77   C123  A    
C105  O3    A    
C125  H34   S    
C4    C114  A    
C36   C37   A    
C52   C59   A    
C117  C124  A    
C20   H57   S    
C13   C54   A    
O2    Zn2   S    
C84   C96   A    
C30   C31   A    
C33   H68   S    
C58   C96   S    
C45   C51   A    
C15   C16   A    
C129  C136  A    
C55   C62   A    
C13   C81   A    
C24   C82   A    
C8    C138  A    
C128  H45   S    
C41   C42   A    
C64   C71   A    
C53   H41   S    
C116  H11   S    
C6    C136  A    
C109  C116  A    
C36   H70   S    
C7    C68   S    
C113  C119  A    
C104  O2    A    
C53   C60   A    
C82   H30   S    
C106  O4    A    
C77   H26   S    
O16   Zn1   S    
O9    Zn5   S    
C136  C142  A    
C135  H24   S    
O10   Zn6   S    
C109  C142  A    
C118  C125  A    
C32   C38   A    
O21   Zn8   S    
C8    C101  S    
C93   C99   A    
C72   H47   S    
C34   C36   A    
C57   O10   A    
C95   C102  A    
C70   H44   S    
C93   C105  S    
C131  C138  A    
C83   H67   S    
C114  H9    S    
C79   O13   A    
C107  O5    A    
C74   H49   S    
C60   C66   A    
C26   C31   A    
C134  H33   S    
O4    Zn4   S    
C21   C22   A    
C46   C58   A    
C72   C78   A    
C76   C112  A    
C113  H8    S    
C65   C72   A    
C10   C140  A    
C56   C97   S    
C110  H6    S    
C86   H2    S    
C110  C117  A    
O12   Zn8   S    
O1    Zn1   S    
C85   C92   A    
C69   C75   A    
C41   H74   S    
C85   H84   S    
C45   C47   A    
C58   C64   A    
C83   C89   A    
O17   Zn2   S    
C108  O6    A    
O12   Zn2   S    
C103  O18   A    
C119  C126  A    
C137  C143  A    
C45   C69   S    
C127  C133  A    
C107  O16   A    
C10   C57   S    
C132  H21   S    
C121  C128  A    
C126  H23   S    
C3    C113  A    
C128  C135  A    
C38   H72   S    
C39   C40   A    
C7    C137  A    
C12   C63   S    
C16   C17   A    
C79   O23   A    
C48   H80   S    
C1    O9    A    
C66   C73   A    
C117  H13   S    
C108  O17   A    
C2    C53   A    
O12   Zn6   S    
C62   C69   A    
C24   C55   A    
C81   H29   S    
C46   H39   S    
C109  H5    S    
C43   C44   A    
C1    O20   A    
O22   Zn7   S    
C29   C30   A    
C85   C99   A    
C86   C93   A    
C4    C140  A    
C87   C102  A    
C78   C134  A    
C125  C131  A    
C5    C141  A    
C47   C48   A    
C63   C70   A    
C94   C100  A    
C19   C64   S    
O7    Zn3   S    
C104  O19   A    
C121  H17   S    
C101  O8    A    
C17   C18   A    
C88   H4    S    
C56   C63   A    
C124  C130  A    
C17   H54   S    
C50   C51   A    
O13   Zn2   S    
C91   C97   A    
C4    C11   A    
C11   C141  A    
C88   C100  A    
C95   C107  S    
O24   Zn7   S    
C62   C100  S    
C15   H52   S    
C111  C144  A    
C92   C106  S    
C40   C41   A    
C84   C91   A    
C12   C14   A    
C3    C8    A    
C55   H43   S    
C115  H10   S    
C51   H83   S    
C46   C123  A    
C118  H14   S    
C2    H35   S    
C3    C139  A    
C42   C43   A    
C80   H28   S    
C74   C81   A    
C49   H81   S    
C28   C29   A    
O1    Zn5   S    
C105  O14   A    
C71   C77   A    
O19   Zn4   S    
C32   C66   S    
O20   Zn7   S    
C116  C122  A    
C68   O22   A    
C103  O26   A    
C47   H79   S    
C48   C49   A    
O11   Zn1   S    
C122  C129  A    
C9    C144  A    
C24   H37   S    
C22   C23   A    
C26   C65   S    
C39   C67   S    
C21   H58   S    
C52   H40   S    
C91   C103  S    
C122  H12   S    
C68   O11   A    
C111  H7    S    
C9    C90   S    
C35   C56   A    
C75   C82   A    
C39   C44   A    
C54   C61   A    
O1    Zn7   S    
C13   H36   S    
C124  H1    S    
C19   C20   A    
O8    Zn4   S    
C34   H69   S    
C23   H60   S    
C27   H62   S    
C32   C33   A    
O26   Zn1   S    
C132  C139  A    
C54   H42   S    
C5    C10   A    
C89   C104  S    
O18   Zn3   S    
C84   H78   S    
C133  H22   S    
C59   C65   A    
C70   C76   A    
C9    C139  A    
C6    C79   S    
C31   H66   S    
C90   O24   A    
C131  H20   S    
C89   C96   A    
C59   C99   S    
C42   H75   S    
C78   H27   S    
C73   C80   A    
C33   C34   A    
C129  H18   S    
C61   C102  S    
C67   C74   A    
O15   Zn6   S    
C23   C25   A    
C71   H46   S    
C61   C67   A    
C110  C143  A    
C86   C98   A    
C50   H82   S    
C114  C120  A    
C88   C95   A    
C73   H48   S    
C2    C80   A    
C126  C132  A    
C35   C112  A    
C19   C25   A    
C90   O7    A    
C75   H50   S    
C135  C141  A    
C112  H31   S    
C20   C21   A    
C25   H61   S    
C133  C140  A    
C119  H15   S    
C49   C50   A    
C83   C97   A    
C60   C98   S    
C12   C18   A    
C18   H55   S    
C120  H16   S    
C28   H63   S    
C14   C15   A    
C138  C144  A    
C44   H77   S    
O12   Zn4   S    
C6    C143  A    
C130  C137  A    
C57   O21   A    
C37   H71   S    
C7    C142  A    
C5    C115  A    
C16   H53   S    
C27   C28   A    
O1    Zn3   S    
