data_mof_unit_30429.cif
_audit_creation_date              2012-12-10T17:33:06-0500
_audit_creation_method            fapswitch 2.2
_symmetry_space_group_name_H-M    P1
_symmetry_Int_Tables_number       1
_space_group_crystal_system       triclinic
_cell_length_a                    15.628232
_cell_length_b                    15.50512
_cell_length_c                    17.781036
_cell_angle_alpha                 91.013675
_cell_angle_beta                  109.873536
_cell_angle_gamma                 68.479243
_cell_volume                      3741.26098613

loop_
_atom_site_label
_atom_site_type_symbol
_atom_type_description
_atom_site_fract_x
_atom_site_fract_y
_atom_site_fract_z
_atom_type_partial_charge
C1    C     C_R   0.464753 0.740349 0.532194 0.805713
C2    C     C_R   0.351964 0.678486 0.165564 -0.327445
C3    C     C_R   0.479655 0.533566 0.162875 -0.216782
C4    C     C_R   0.473909 0.565345 0.087080 0.008547
C5    C     C_R   0.397145 0.651703 0.046213 -0.070573
C6    C     C_R   0.538928 0.509850 0.049114 0.014255
C7    C     C_R   0.511802 0.528739 0.964922 -0.013952
C8    C     C_R   0.435528 0.615039 0.925455 -0.320611
C9    C     C_R   0.382915 0.678242 0.966164 0.458052
C10   C     C_R   0.631264 0.438394 0.092831 -0.019817
C11   C     C_R   0.683332 0.372694 0.052495 0.389360
C12   C     C_R   0.535659 0.259192 0.469775 0.836582
C13   C     C_R   0.654107 0.386995 0.967542 -0.033975
C14   C     C_R   0.565424 0.464095 0.923465 0.037575
C15   C     C_R   0.712266 0.329860 0.924597 0.125219
C16   C     C_R   0.679092 0.346714 0.840884 -0.203957
C17   C     C_R   0.532288 0.474337 0.838543 -0.215445
C18   C     C_R   0.459950 0.944706 0.645598 0.115879
C19   C     C_R   0.452803 0.835594 0.547247 -0.010530
C20   C     C_R   0.532312 0.147534 0.370708 -0.261896
C21   C     C_R   0.496555 0.080924 0.336889 -0.137929
C22   C     C_R   0.468349 0.029826 0.380736 0.121062
C23   C     C_R   0.756631 0.449860 0.531060 0.809731
C24   C     C_R   0.491350 0.034660 0.465676 0.009025
C25   C     C_R   0.528207 0.103868 0.500107 0.064723
C26   C     C_R   0.477476 0.975580 0.517443 0.037384
C27   C     C_R   0.482515 0.997255 0.596570 0.144096
C28   C     C_R   0.520227 0.063984 0.628687 -0.264811
C29   C     C_R   0.551424 0.110424 0.583906 0.094414
C30   C     C_R   0.468997 0.890344 0.496612 -0.267247
C31   C     C_R   0.444390 0.864378 0.619996 -0.249681
C32   C     C_R   0.539642 0.165484 0.449479 -0.056466
C33   C     C_R   0.024784 0.374853 0.634042 -0.204918
C34   C     C_R   0.241982 0.552527 0.468437 0.826423
C35   C     C_R   0.856554 0.436819 0.541428 -0.097227
C36   C     C_R   0.072657 0.607802 0.365459 0.471847
C37   C     C_R   0.982386 0.598023 0.334836 -0.280603
C38   C     C_R   0.953098 0.554430 0.383199 -0.180236
C39   C     C_R   0.008938 0.526005 0.465717 0.115268
C40   C     C_R   0.102785 0.531780 0.496858 -0.044006
C41   C     C_R   0.977676 0.483673 0.515936 -0.002619
C42   C     C_R   0.048364 0.431941 0.590946 0.055067
C43   C     C_R   0.139496 0.442019 0.622774 0.091444
C44   C     C_R   0.162170 0.497031 0.577964 -0.149009
C45   C     C_R   0.560659 0.440770 0.712010 0.778044
C46   C     C_R   0.877750 0.494373 0.495022 0.377878
C47   C     C_R   0.930708 0.374951 0.607639 -0.249705
C48   C     C_R   0.136634 0.568739 0.445284 -0.183356
C49   C     C_R   0.441182 0.559771 0.287444 0.833948
C50   C     C_R   0.422384 0.590540 0.203507 -0.101520
C51   C     C_R   0.589181 0.417428 0.798196 -0.031180
C52   C     C_R   0.335891 0.708201 0.086209 0.485794
H1    H     H_    0.432650 0.820951 0.659509 0.130126
H2    H     H_    0.534039 0.074736 0.691415 0.172328
H3    H     H_    0.485284 0.860195 0.445699 0.139730
H4    H     H_    0.543078 0.192458 0.331805 0.169128
H5    H     H_    0.481409 0.075517 0.273210 0.153436
H6    H     H_    0.913574 0.332025 0.643226 0.150990
H7    H     H_    0.462269 0.526436 0.801575 0.125668
H8    H     H_    0.077858 0.331279 0.689384 0.146760
H9    H     H_    0.889960 0.537365 0.353901 0.178423
H10   H     H_    0.937409 0.619180 0.271584 0.157326
H11   H     H_    0.228909 0.509339 0.607176 0.172460
H12   H     H_    0.724819 0.305073 0.808887 0.138965
H13   H     H_    0.308499 0.724341 0.197143 0.176327
H14   H     H_    0.526873 0.462925 0.190404 0.184526
H15   H     H_    0.417968 0.638413 0.863371 0.156012
O1    O     O_3   0.500000 0.500000 0.500000 -0.483744
O2    O     O_R   0.707110 0.418540 0.472990 -0.672233
O3    O     O_R   0.267620 0.606720 0.435250 -0.603439
O4    O     O_R   0.540230 0.674660 0.578090 -0.630051
O5    O     O_R   0.485030 0.300080 0.513670 -0.623648
O6    O     O_R   0.403610 0.721990 0.472930 -0.653141
O7    O     O_R   0.571130 0.303270 0.435320 -0.651492
O8    O     O_R   0.717650 0.497270 0.578120 -0.621182
O9    O     O_R   0.307610 0.477470 0.513630 -0.644141
O10   O     O_R   0.596500 0.492780 0.688380 -0.637947
O11   O     O_R   0.388780 0.611210 0.325000 -0.641785
O12   O     O_R   0.499860 0.410860 0.661600 -0.643799
O13   O     O_R   0.514860 0.485140 0.325020 -0.658536
Zn1   Zn    Zn3+2 0.572030 0.427990 0.434470 0.947524
Zn2   Zn    Zn3+2 0.587090 0.540470 0.584680 0.977831
Zn3   Zn    Zn3+2 0.449010 0.423430 0.546420 0.969418
Zn4   Zn    Zn3+2 0.391880 0.608100 0.434430 0.973307
O14   O     O_3   0.311032 0.762555 0.924285 -0.575466
C53   C     C_3   0.357107 0.824096 0.918638 0.150237
H16   H     H_    0.402949 0.798954 0.880535 0.111236
H17   H     H_    0.404134 0.831884 0.979450 0.143959
C54   C     C_3   0.278591 0.919907 0.879797 -0.816407
H18   H     H_    0.234071 0.948873 0.918137 0.271693
H19   H     H_    0.314087 0.968076 0.872956 0.195741
H20   H     H_    0.229429 0.914563 0.819380 0.248752
N1    N     N_3   0.808613 0.259072 0.963118 -0.458958
H21   H     H_    0.803518 0.203105 0.990395 0.212727
H22   H     H_    0.853100 0.287346 0.005116 0.236600
N2    N     N_3   0.457875 0.969922 0.723127 -0.484353
H23   H     H_    0.510344 0.913973 0.766612 0.182727
H24   H     H_    0.388534 0.979354 0.724177 0.184876
N3    N     N_3   0.402934 0.987680 0.333717 -0.471006
H25   H     H_    0.443424 0.920562 0.324513 0.179451
H26   H     H_    0.351470 0.988591 0.359192 0.203653
N4    N     N_3   0.613363 0.158380 0.625639 -0.463700
H27   H     H_    0.577197 0.206252 0.657804 0.211916
H28   H     H_    0.677598 0.109353 0.667610 0.173448
N5    N     N_3   0.209421 0.399906 0.701719 -0.460199
H29   H     H_    0.175110 0.422250 0.743752 0.186956
H30   H     H_    0.232226 0.327351 0.703632 0.186781
O15   O     O_3   0.804825 0.577093 0.447700 -0.620037
C55   C     C_3   0.728071 0.562975 0.384813 0.110640
H31   H     H_    0.667011 0.569916 0.405800 0.166196
H32   H     H_    0.753672 0.494398 0.361715 0.139071
C56   C     C_3   0.682980 0.640922 0.315109 -0.852898
H33   H     H_    0.736887 0.639524 0.287205 0.244009
H34   H     H_    0.619228 0.632474 0.268097 0.226441
H35   H     H_    0.656663 0.709914 0.336876 0.260321
O16   O     O_3   0.105280 0.640216 0.312943 -0.594012
C57   C     C_3   0.059256 0.738558 0.298834 0.128811
H36   H     H_    0.072429 0.769948 0.356534 0.136685
H37   H     H_    0.978509 0.761220 0.265603 0.125122
C58   C     C_3   0.102311 0.775178 0.247752 -0.807936
H38   H     H_    0.089861 0.745595 0.189488 0.240198
H39   H     H_    0.066299 0.852533 0.235632 0.198451
H40   H     H_    0.182729 0.754991 0.279978 0.273087
O17   O     O_3   0.765472 0.296675 0.098153 -0.624435
C59   C     C_3   0.734298 0.226094 0.113660 0.075946
H41   H     H_    0.697163 0.202711 0.056512 0.132818
H42   H     H_    0.682279 0.250555 0.146645 0.136632
C60   C     C_3   0.823626 0.142559 0.165288 -0.831025
H43   H     H_    0.860811 0.163598 0.223498 0.260980
H44   H     H_    0.800092 0.086519 0.177526 0.204898
H45   H     H_    0.876472 0.114992 0.133526 0.251029
O18   O     O_3   0.264512 0.795163 0.049963 -0.579307
C61   C     C_3   0.170422 0.791706 0.030456 0.149595
H46   H     H_    0.154394 0.785199 0.085947 0.119452
H47   H     H_    0.164441 0.732286 0.995648 0.142290
C62   C     C_3   0.092692 0.881728 0.978701 -0.801698
H48   H     H_    0.104166 0.888567 0.921165 0.271539
H49   H     H_    0.018192 0.880923 0.965038 0.196820
H50   H     H_    0.097217 0.942700 0.011133 0.250562
N6    N     N_3   0.679546 0.440257 0.177269 -0.457666
H51   H     H_    0.745384 0.448647 0.185321 0.211827
H52   H     H_    0.696943 0.376711 0.209458 0.197948

loop_
_geom_bond_atom_site_label_1
_geom_bond_atom_site_label_2
_ccdc_geom_bond_type
N1    H21   S    
C12   O7    A    
C18   N2    S    
C41   C42   A    
C23   O2    A    
N5    H29   S    
C11   O17   S    
C16   C51   A    
C20   H4    S    
C2    H13   S    
C19   C31   A    
C60   H43   S    
C17   C51   A    
C56   H34   S    
C37   H10   S    
C15   N1    S    
C7    C8    A    
C39   C41   A    
O14   C53   S    
O15   C55   S    
C21   H5    S    
N5    H30   S    
C26   C27   A    
C1    O4    A    
O1    Zn1   S    
C28   C29   A    
C24   C26   A    
C57   H37   S    
C38   C39   A    
O13   Zn1   S    
C53   H17   S    
C45   C51   S    
C15   C16   A    
C49   O11   A    
C43   N5    S    
C2    C50   A    
C9    O14   S    
C7    C14   A    
O18   C61   S    
N2    H24   S    
C29   N4    S    
C61   C62   S    
C41   C46   A    
C5    C52   A    
C54   H19   S    
O3    Zn4   S    
C34   O3    A    
O6    Zn4   S    
C58   H40   S    
C38   H9    S    
C25   C32   A    
C12   O5    A    
C35   C47   A    
N1    H22   S    
C21   C22   A    
C12   C32   S    
C14   C17   A    
C10   N6    S    
C62   H50   S    
O9    Zn3   S    
C56   H33   S    
C3    C50   A    
C58   H39   S    
C44   H11   S    
C25   C29   A    
C1    C19   S    
C52   O18   S    
C24   C25   A    
C4    C6    A    
C55   C56   S    
C39   C40   A    
C28   H2    S    
C53   H16   S    
C8    C9    A    
C46   O15   S    
O1    Zn4   S    
C43   C44   A    
C5    C9    A    
C37   C38   A    
C59   C60   S    
N3    H25   S    
C40   C44   A    
N2    H23   S    
C19   C30   A    
C45   O12   A    
C31   H1    S    
C54   H20   S    
N4    H28   S    
C2    C52   A    
C17   H7    S    
C62   H49   S    
N3    H26   S    
C26   C30   A    
C33   H8    S    
C23   C35   S    
C13   C15   A    
C59   H41   S    
C33   C47   A    
C22   C24   A    
C57   C58   S    
C3    H14   S    
C34   C48   S    
C42   C43   A    
C33   C42   A    
O7    Zn1   S    
C3    C4    A    
C36   O16   S    
C60   H45   S    
C58   H38   S    
C59   H42   S    
C20   C32   A    
C40   C48   A    
C36   C37   A    
C22   N3    S    
O1    Zn3   S    
C18   C27   A    
C23   O8    A    
C62   H48   S    
C53   C54   S    
C60   H44   S    
C6    C10   A    
O8    Zn2   S    
C6    C7    A    
N6    H52   S    
C30   H3    S    
C57   H36   S    
C49   O13   A    
O1    Zn2   S    
O4    Zn2   S    
C55   H32   S    
C1    O6    A    
C55   H31   S    
C47   H6    S    
O12   Zn3   S    
C11   C13   A    
C61   H46   S    
O10   Zn2   S    
N6    H51   S    
O16   C57   S    
C36   C48   A    
N4    H27   S    
O5    Zn3   S    
O2    Zn1   S    
C10   C11   A    
O11   Zn4   S    
C4    C5    A    
C20   C21   A    
C8    H15   S    
C49   C50   S    
C27   C28   A    
C61   H47   S    
C45   O10   A    
C18   C31   A    
C16   H12   S    
C54   H18   S    
C13   C14   A    
C35   C46   A    
C56   H35   S    
C34   O9    A    
O17   C59   S    
