data_mof_unit_8923.cif
_audit_creation_date              2012-12-11T15:07:38-0500
_audit_creation_method            fapswitch 2.2
_symmetry_space_group_name_H-M    P1
_symmetry_Int_Tables_number       1
_space_group_crystal_system       triclinic
_cell_length_a                    21.870445
_cell_length_b                    7.19079
_cell_length_c                    18.576167
_cell_angle_alpha                 90.000135
_cell_angle_beta                  96.126136
_cell_angle_gamma                 90.000102
_cell_volume                      2904.71232503

loop_
_atom_site_label
_atom_site_type_symbol
_atom_type_description
_atom_site_fract_x
_atom_site_fract_y
_atom_site_fract_z
_atom_type_partial_charge
O1    O     O_R   0.449650 0.506500 0.414480 -0.547060
O2    O     O_R   0.550350 0.006500 0.585520 -0.547077
O3    O     O_R   0.432010 0.173150 0.560250 -0.506298
O4    O     O_R   0.567990 0.673150 0.439750 -0.506293
C1    C     C_R   0.416933 0.344723 0.582646 0.814802
C2    C     C_R   0.583067 0.844723 0.417354 0.814808
O5    O     O_R   0.442320 0.176650 0.413480 -0.521974
O6    O     O_R   0.557680 0.676650 0.586520 -0.521964
O7    O     O_R   0.560730 0.008380 0.437700 -0.517179
O8    O     O_R   0.439270 0.508380 0.562300 -0.517173
C3    C     C_R   0.427849 0.346423 0.387850 0.770869
C4    C     C_R   0.572150 0.846424 0.612150 0.770866
O9    O     O_3   0.538840 0.339860 0.508120 -0.376851
O10   O     O_3   0.461160 0.839860 0.491880 -0.376848
V1    V     V_3+5 0.492800 0.064220 0.498490 1.577478
V2    V     V_3+5 0.507200 0.564220 0.501510 1.577508
C5    C     C_R   0.874337 0.827146 0.692569 -0.098840
C6    C     C_R   0.125662 0.327154 0.307431 -0.098840
H1    H     H_    0.796317 0.781690 0.577489 0.126989
H2    H     H_    0.203681 0.281699 0.422512 0.126989
H3    H     H_    0.893823 0.779445 0.644528 0.166294
H4    H     H_    0.106176 0.279454 0.355473 0.166294
C7    C     C_R   0.888355 0.928901 0.817839 -0.123433
C8    C     C_R   0.111644 0.428904 0.182161 -0.123433
C9    C     C_R   0.586918 0.902442 0.745508 0.351469
C10   C     C_R   0.413081 0.402440 0.254493 0.351444
C11   C     C_R   0.624132 0.937421 0.809455 -0.074052
C12   C     C_R   0.375867 0.437436 0.190548 -0.074052
C13   C     C_R   0.687720 0.937974 0.812025 -0.238266
C14   C     C_R   0.312280 0.437993 0.187978 -0.238266
C15   C     C_R   0.717509 0.903410 0.749774 0.025521
C16   C     C_R   0.282490 0.403419 0.250227 0.025522
C17   C     C_R   0.680068 0.863430 0.682839 0.004667
C18   C     C_R   0.319931 0.363434 0.317163 0.004672
C19   C     C_R   0.783524 0.903834 0.752737 0.091486
C20   C     C_R   0.216475 0.403841 0.247264 0.091486
C21   C     C_R   0.810611 0.850904 0.690172 0.051570
C22   C     C_R   0.189388 0.350912 0.309829 0.051569
C23   C     C_R   0.774260 0.817471 0.625236 -0.263041
C24   C     C_R   0.225739 0.317479 0.374765 -0.263040
C25   C     C_R   0.709968 0.827748 0.620062 0.336345
C26   C     C_R   0.290030 0.327752 0.379939 0.336344
C27   C     C_R   0.823988 0.951101 0.815724 -0.185268
C28   C     C_R   0.176011 0.451104 0.184276 -0.185268
C29   C     C_R   0.913111 0.856598 0.756463 -0.051282
C30   C     C_R   0.086888 0.356604 0.243538 -0.051281
C31   C     C_R   0.613938 0.863088 0.680927 -0.193047
C32   C     C_R   0.386061 0.363085 0.319074 -0.193046
H5    H     H_    0.806999 0.999734 0.864731 0.102250
H6    H     H_    0.193000 0.499732 0.135269 0.102248
H7    H     H_    0.712388 0.964073 0.864353 0.131090
H8    H     H_    0.287612 0.464104 0.135651 0.131089
H9    H     H_    0.603129 0.965998 0.858540 0.159725
H10   H     H_    0.396871 0.466020 0.141464 0.159725
C33   C     C_R   0.635092 0.017516 0.320589 0.292744
C34   C     C_R   0.364909 0.517513 0.679414 0.292782
C35   C     C_R   0.630913 0.856608 0.364416 -0.162750
C36   C     C_R   0.369088 0.356606 0.635585 -0.162764
C37   C     C_R   0.674366 0.712398 0.360631 0.223770
C38   C     C_R   0.325635 0.212396 0.639370 0.223769
C39   C     C_R   0.720995 0.727400 0.313246 0.008515
C40   C     C_R   0.279006 0.227397 0.686755 0.008518
C41   C     C_R   0.724530 0.887368 0.269439 -0.046250
C42   C     C_R   0.275473 0.387362 0.730564 -0.046253
C43   C     C_R   0.679405 0.028969 0.269533 -0.013474
C44   C     C_R   0.320599 0.528960 0.730473 -0.013478
C45   C     C_R   0.764477 0.584703 0.309050 -0.245191
C46   C     C_R   0.235524 0.084699 0.690951 -0.245177
C47   C     C_R   0.814168 0.605028 0.268292 -0.026935
C48   C     C_R   0.185833 0.105024 0.731710 -0.026932
C49   C     C_R   0.818017 0.763084 0.223637 0.077318
C50   C     C_R   0.181984 0.263081 0.776364 0.077315
C51   C     C_R   0.773055 0.904311 0.224506 0.077037
C52   C     C_R   0.226947 0.404307 0.775497 0.077037
C53   C     C_R   0.776809 0.063171 0.180524 0.097735
C54   C     C_R   0.223195 0.563164 0.819480 0.097738
C55   C     C_R   0.731022 0.198402 0.178622 -0.279446
C56   C     C_R   0.268985 0.698388 0.821387 -0.279448
C57   C     C_R   0.680816 0.178187 0.218775 -0.028176
C58   C     C_R   0.319192 0.678167 0.781236 -0.028191
C59   C     C_R   0.864107 0.780524 0.176142 -0.158697
C60   C     C_R   0.135893 0.280524 0.823858 -0.158698
C61   C     C_R   0.867896 0.938779 0.132250 -0.089716
C62   C     C_R   0.132104 0.438778 0.867751 -0.089716
C63   C     C_R   0.824597 0.081195 0.135978 -0.217125
C64   C     C_R   0.175405 0.581191 0.864025 -0.217131
H11   H     H_    0.761723 0.457250 0.339532 0.130147
H12   H     H_    0.238278 0.957245 0.660470 0.130148
H13   H     H_    0.896948 0.669707 0.172021 0.156218
H14   H     H_    0.103051 0.169709 0.827977 0.156220
H15   H     H_    0.826643 0.203301 0.102069 0.128336
H16   H     H_    0.173361 0.703294 0.897935 0.128335
H17   H     H_    0.732369 0.315352 0.141864 0.121648
H18   H     H_    0.267640 0.815331 0.858149 0.121646
O11   O     O_R   0.060820 0.290050 0.937800 -0.541383
O12   O     O_R   0.939180 0.790050 0.062200 -0.541383
O13   O     O_R   0.057690 0.616620 0.086540 -0.530794
O14   O     O_R   0.942310 0.116620 0.913460 -0.530793
C65   C     C_R   0.071842 0.447355 0.112453 0.662765
C66   C     C_R   0.928158 0.947354 0.887547 0.662765
O15   O     O_R   0.068010 0.619890 0.939770 -0.544632
O16   O     O_R   0.931990 0.119890 0.060230 -0.544633
O17   O     O_R   0.949640 0.787940 0.914460 -0.539754
O18   O     O_R   0.050360 0.287940 0.085540 -0.539754
C67   C     C_R   0.083713 0.451062 0.918370 0.704330
C68   C     C_R   0.916287 0.951062 0.081630 0.704330
O19   O     O_3   0.961210 0.453080 0.991940 -0.375088
O20   O     O_3   0.038790 0.953080 0.008060 -0.375089
V3    V     V_3+5 0.007200 0.728820 0.001500 1.422286
V4    V     V_3+5 0.992800 0.228820 0.998500 1.422286
C69   C     C_2   0.979052 0.805014 0.758816 0.482824
H19   H     H_    0.011904 0.848999 0.803444 0.042294
O21   O     O_2   0.997494 0.709460 0.711223 -0.505757
C70   C     C_2   0.020947 0.305019 0.241184 0.482824
H20   H     H_    0.988095 0.349002 0.196556 0.042292
O22   O     O_2   0.002505 0.209466 0.288777 -0.505758
O23   O     O_3   0.672204 0.562073 0.406500 -0.637532
H21   H     H_    0.714399 0.537798 0.429498 0.286040
O24   O     O_3   0.327796 0.062072 0.593500 -0.637523
H22   H     H_    0.285601 0.037797 0.570503 0.286043
C71   C     C_2   0.863221 0.463800 0.279061 0.377262
H23   H     H_    0.851632 0.317960 0.284138 0.078131
O25   O     O_2   0.916970 0.511417 0.288456 -0.511831
C72   C     C_2   0.136781 0.963793 0.720942 0.377258
H24   H     H_    0.148371 0.817953 0.715867 0.078130
O26   O     O_2   0.083031 0.011407 0.711545 -0.511831
C73   C     C_2   0.628438 0.304440 0.198256 0.463448
H25   H     H_    0.636799 0.449305 0.186020 0.038616
O27   O     O_2   0.575939 0.244704 0.189843 -0.471285
C74   C     C_2   0.371577 0.804392 0.801766 0.463428
H26   H     H_    0.363223 0.949247 0.814028 0.038618
O28   O     O_2   0.424074 0.744638 0.810159 -0.471278
O29   O     O_3   0.524196 0.912371 0.749129 -0.606338
H27   H     H_    0.501402 0.871969 0.703077 0.316136
O30   O     O_3   0.475803 0.412366 0.250874 -0.606343
H28   H     H_    0.498594 0.371853 0.296912 0.316165
O31   O     O_3   0.676260 0.799798 0.553864 -0.652884
H29   H     H_    0.704359 0.794248 0.515478 0.283738
O32   O     O_3   0.323738 0.299797 0.446136 -0.652884
H30   H     H_    0.295640 0.294249 0.484523 0.283739
O33   O     O_3   0.597444 0.166086 0.331394 -0.614536
H31   H     H_    0.623247 0.279543 0.333705 0.314241
O34   O     O_3   0.402555 0.666089 0.668606 -0.614517
H32   H     H_    0.376755 0.779549 0.666312 0.314239

loop_
_geom_bond_atom_site_label_1
_geom_bond_atom_site_label_2
_ccdc_geom_bond_type
O18   V4    S    
C41   C43   A    
C7    C29   A    
C11   C13   A    
C8    C65   S    
C69   H19   S    
C18   C26   A    
O2    C4    A    
C2    O7    A    
C70   H20   S    
C63   H15   S    
O3    V1    S    
O30   H28   S    
C23   C25   A    
O23   H21   S    
O5    C3    A    
C52   C54   A    
C1    C36   S    
C43   C57   A    
C16   C20   A    
C19   C21   A    
C5    C29   A    
H2    C24   S    
C56   C58   A    
C35   C37   A    
C46   H12   S    
C36   C38   A    
O34   H32   S    
C7    C27   A    
O20   V3    S    
C38   O24   S    
C38   C40   A    
C55   H17   S    
C47   C49   A    
C60   C62   A    
C40   C42   A    
C10   O30   S    
O11   C67   A    
C33   C43   A    
C34   O34   S    
C53   C63   A    
O1    C3    A    
C15   C17   A    
O16   C68   A    
C19   C27   A    
C9    C31   A    
C25   O31   S    
C10   C32   A    
C59   H13   S    
O5    V1    S    
C7    C66   S    
O6    V2    S    
C22   C24   A    
C13   C15   A    
C51   C53   A    
C2    C35   S    
C3    C32   S    
O14   V4    S    
C4    C31   S    
C6    C30   A    
O13   C65   A    
C55   C57   A    
O15   C67   A    
C37   C39   A    
C58   C74   S    
C30   C70   S    
C17   C25   A    
C50   C52   A    
C49   C51   A    
C12   H10   S    
C27   H5    S    
C41   C51   A    
C48   C50   A    
C66   O17   A    
C5    H3    S    
C45   C47   A    
C42   C44   A    
O4    V2    S    
C74   O28   D    
C73   O27   D    
O13   V3    S    
C39   C45   A    
C47   C71   S    
O6    C4    A    
C39   C41   A    
C62   C67   S    
C69   O21   D    
O1    V2    S    
C5    C21   A    
O24   H22   S    
O2    V1    S    
C53   C55   A    
C71   H23   S    
O12   V3    S    
H1    C23   S    
O4    C2    A    
C61   C63   A    
O14   C66   A    
C33   C35   A    
O29   H27   S    
C8    C28   A    
O19   V4    S    
C15   C19   A    
C20   C28   A    
C18   C32   A    
C73   H25   S    
C54   C64   A    
C9    O29   S    
C72   O26   D    
C13   H7    S    
C28   H6    S    
O12   C68   A    
C26   O32   S    
C6    H4    S    
C45   H11   S    
C33   O33   S    
C54   C56   A    
O3    C1    A    
O11   V4    S    
C59   C61   A    
C70   O22   D    
O32   H30   S    
C11   H9    S    
C9    C11   A    
C44   C58   A    
O31   H29   S    
C10   C12   A    
C60   H14   S    
C61   C68   S    
C40   C46   A    
O17   V3    S    
C8    C30   A    
C12   C14   A    
C74   H26   S    
C6    C22   A    
C57   C73   S    
C1    O8    A    
C21   C23   A    
C64   H16   S    
C29   C69   S    
C20   C22   A    
C14   C16   A    
C14   H8    S    
C56   H18   S    
C34   C44   A    
C24   C26   A    
C17   C31   A    
C34   C36   A    
C65   O18   A    
O7    V1    S    
C71   O25   D    
O16   V4    S    
C48   C72   S    
C37   O23   S    
O9    V2    S    
C46   C48   A    
C42   C52   A    
O10   V1    S    
C62   C64   A    
O8    V2    S    
O33   H31   S    
O15   V3    S    
C50   C60   A    
C16   C18   A    
C72   H24   S    
C49   C59   A    
