data_mof_unit_15611.cif
_audit_creation_date              2012-12-10T18:23:01-0500
_audit_creation_method            fapswitch 2.2
_symmetry_space_group_name_H-M    P1
_symmetry_Int_Tables_number       1
_space_group_crystal_system       triclinic
_cell_length_a                    14.855039
_cell_length_b                    14.142403
_cell_length_c                    10.508065
_cell_angle_alpha                 89.9999
_cell_angle_beta                  88.632554
_cell_angle_gamma                 90.000229
_cell_volume                      2206.96809725

loop_
_atom_site_label
_atom_site_type_symbol
_atom_type_description
_atom_site_fract_x
_atom_site_fract_y
_atom_site_fract_z
_atom_type_partial_charge
C1    C     C_R   0.327221 0.500010 0.500082 0.875806
C2    C     C_R   0.956384 0.505498 0.267724 -0.310376
C3    C     C_R   0.570056 0.798903 0.442265 0.494184
C4    C     C_R   0.438789 0.201889 0.575521 0.494934
C5    C     C_R   0.429942 0.798904 0.557726 0.494202
C6    C     C_R   0.561208 0.201890 0.424473 0.494943
C7    C     C_R   0.432118 0.899522 0.566278 -0.089949
C8    C     C_R   0.565401 0.101295 0.428330 -0.091203
C9    C     C_R   0.567885 0.899522 0.433722 -0.089942
C10   C     C_R   0.434600 0.101293 0.571670 -0.091196
C11   C     C_R   0.500003 0.949915 0.500003 0.015646
C12   C     C_R   0.672779 0.500011 0.499923 0.875836
C13   C     C_R   0.500002 0.050922 0.500003 0.015304
C14   C     C_R   0.367197 0.950876 0.637570 -0.178736
C15   C     C_R   0.632539 0.049891 0.361629 -0.171172
C16   C     C_R   0.632803 0.950878 0.362424 -0.178711
C17   C     C_R   0.367460 0.049888 0.638366 -0.171174
C18   C     C_R   0.499076 0.500050 0.257681 0.867728
C19   C     C_R   0.500925 0.500049 0.742319 0.867694
C20   C     C_3   0.456541 0.579206 0.042593 -0.209496
C21   C     C_3   0.543531 0.421699 0.957600 -0.229993
C22   C     C_3   0.543555 0.579146 0.957399 -0.209501
C23   C     C_R   0.953152 0.505591 0.500394 -0.013220
C24   C     C_3   0.456373 0.421758 0.042409 -0.229968
C25   C     C_3   0.417112 0.500565 0.960421 0.134698
C26   C     C_3   0.582887 0.500456 0.039579 0.134703
C27   C     C_3   0.501885 0.500329 0.876903 0.000554
C28   C     C_3   0.498115 0.500335 0.123098 0.000550
C29   C     C_R   0.815054 0.500998 0.384674 -0.197593
C30   C     C_R   0.184948 0.500979 0.615336 -0.197571
C31   C     C_R   0.767960 0.500360 0.500334 -0.055580
C32   C     C_R   0.232040 0.500357 0.499674 -0.055460
C33   C     C_R   0.810882 0.503067 0.616279 -0.257482
C34   C     C_R   0.046851 0.505594 0.499615 -0.013180
C35   C     C_R   0.189119 0.503076 0.383729 -0.257658
C36   C     C_R   0.904293 0.505687 0.617890 0.021031
C37   C     C_R   0.095709 0.505726 0.382117 0.020963
C38   C     C_3   0.892689 0.602121 0.890430 -0.377624
C39   C     C_3   0.107652 0.602347 0.109967 -0.378503
C40   C     C_3   0.716268 0.757655 0.470364 -0.285377
C41   C     C_3   0.407795 0.249062 0.779162 -0.254445
C42   C     C_3   0.283739 0.757664 0.529574 -0.285521
C43   C     C_3   0.592183 0.249052 0.220821 -0.254473
C44   C     C_R   0.908097 0.504108 0.383553 0.055085
C45   C     C_R   0.091905 0.504082 0.616458 0.055168
C46   C     C_R   0.949798 0.508296 0.733880 0.537923
C47   C     C_R   0.050197 0.508385 0.266127 0.538077
C48   C     C_R   0.043615 0.505426 0.732289 -0.310495
H1    H     H_    0.419449 0.641731 0.080386 0.145090
H2    H     H_    0.921499 0.504513 0.178269 0.186850
H3    H     H_    0.315651 0.914841 0.693617 0.171010
H4    H     H_    0.686031 0.085712 0.309275 0.173385
H5    H     H_    0.684343 0.914846 0.306361 0.170979
H6    H     H_    0.313964 0.085708 0.690712 0.173383
H7    H     H_    0.281901 0.496669 0.990426 0.204682
H8    H     H_    0.315922 0.566289 0.869333 0.184914
H9    H     H_    0.718093 0.496294 0.009583 0.204697
H10   H     H_    0.684181 0.566087 0.130550 0.184805
H11   H     H_    0.858778 0.602052 0.985633 0.187630
H12   H     H_    0.581053 0.359287 0.920419 0.138548
H13   H     H_    0.849497 0.642775 0.824738 0.156908
H14   H     H_    0.958865 0.638072 0.900119 0.164724
H15   H     H_    0.151428 0.642448 0.175419 0.157250
H16   H     H_    0.041683 0.638817 0.101167 0.164332
H17   H     H_    0.141081 0.602367 0.014455 0.187737
H18   H     H_    0.770036 0.708926 0.435923 0.190770
H19   H     H_    0.698482 0.737742 0.570441 0.161327
H20   H     H_    0.745338 0.829866 0.469070 0.138290
H21   H     H_    0.375501 0.308022 0.832654 0.209125
H22   H     H_    0.482070 0.256744 0.787553 0.148636
H23   H     H_    0.580722 0.641621 0.919599 0.145085
H24   H     H_    0.385976 0.182534 0.826338 0.132504
H25   H     H_    0.229902 0.709056 0.564131 0.190748
H26   H     H_    0.301519 0.737589 0.429547 0.161460
H27   H     H_    0.254766 0.829928 0.530663 0.138282
H28   H     H_    0.624496 0.307986 0.167301 0.209152
H29   H     H_    0.517912 0.256767 0.212436 0.148679
H30   H     H_    0.613971 0.182509 0.173668 0.132494
H31   H     H_    0.418786 0.359393 0.079608 0.138580
H32   H     H_    0.779071 0.499353 0.296290 0.149850
H33   H     H_    0.220931 0.499318 0.703720 0.149882
H34   H     H_    0.771038 0.502993 0.704171 0.164853
H35   H     H_    0.228965 0.502984 0.295840 0.164755
H36   H     H_    0.078499 0.504399 0.821746 0.186878
N1    N     N_R   0.500000 0.750030 0.500000 -0.185370
N2    N     N_R   0.500000 0.249970 0.500000 -0.186462
N3    N     N_3   0.326212 0.500496 0.911882 -0.480626
N4    N     N_3   0.673786 0.500270 0.088120 -0.480611
O1    O     O_R   0.367850 0.580280 0.500030 -0.592769
O2    O     O_3   0.096816 0.507934 0.150671 -0.596682
O3    O     O_3   0.641808 0.749244 0.389321 -0.578899
O4    O     O_3   0.379306 0.252963 0.651805 -0.569665
O5    O     O_3   0.358180 0.749250 0.610646 -0.578907
O6    O     O_3   0.620683 0.252964 0.348175 -0.569643
O7    O     O_R   0.632150 0.419720 0.499970 -0.567021
O8    O     O_R   0.632150 0.580280 0.499970 -0.592747
O9    O     O_R   0.367850 0.419720 0.500030 -0.567033
O10   O     O_R   0.499970 0.580260 0.313950 -0.608771
O11   O     O_R   0.500030 0.419740 0.686050 -0.613522
O12   O     O_R   0.500030 0.580260 0.686050 -0.608760
O13   O     O_R   0.499970 0.419740 0.313950 -0.613498
O14   O     O_3   0.903142 0.507752 0.849305 -0.596781
Zn1   Zn    Zn3+2 0.500000 0.607200 0.500000 1.001346
Zn2   Zn    Zn3+2 0.500000 0.392800 0.500000 1.018720

loop_
_geom_bond_atom_site_label_1
_geom_bond_atom_site_label_2
_ccdc_geom_bond_type
C21   C26   S    
C8    C13   A    
C3    N1    A    
C34   C37   A    
C30   C45   A    
N2    Zn2   S    
C33   C36   A    
C43   H30   S    
C7    C11   A    
C39   H16   S    
C46   O14   S    
C42   H27   S    
C35   C37   A    
C9    C16   A    
C4    N2    A    
C20   C25   S    
C10   C17   A    
O10   Zn1   S    
C42   O5    S    
C25   N3    S    
C43   O6    S    
C3    O3    S    
C16   H5    S    
C2    H2    S    
C7    C14   A    
C2    C44   A    
C6    O6    S    
C40   H19   S    
C1    O1    A    
C31   C33   A    
C12   O7    A    
C36   C46   A    
C37   C47   A    
C19   C27   S    
C33   H34   S    
C39   O2    S    
N1    Zn1   S    
C38   H13   S    
C5    N1    A    
O11   Zn2   S    
C21   C27   S    
C40   H18   S    
O1    Zn1   S    
C39   H17   S    
C14   C17   A    
C46   C48   A    
C42   H26   S    
C32   C35   A    
C18   C28   S    
C24   C25   S    
C21   H12   S    
C1    O9    A    
C5    C7    A    
C19   O11   A    
H8    N3    S    
C6    C8    A    
C20   C28   S    
O12   Zn1   S    
C23   C44   A    
C48   H36   S    
C18   O13   A    
C20   H1    S    
C3    C9    A    
C24   H31   S    
C14   H3    S    
C29   C31   A    
C23   C34   A    
C34   C45   A    
C15   H4    S    
C9    C11   A    
C41   H24   S    
C20   C22   S    
C8    C15   A    
C22   C27   S    
C12   C31   S    
C22   C26   S    
C47   O2    S    
C21   C24   S    
C25   C27   S    
C4    C10   A    
C22   H23   S    
O7    Zn2   S    
C41   H21   S    
C45   C48   A    
C43   H28   S    
C42   H25   S    
C35   H35   S    
C24   C28   S    
C10   C13   A    
H10   N4    S    
C5    O5    S    
C19   O12   A    
C2    C47   A    
C43   H29   S    
C39   H15   S    
C26   C28   S    
C6    N2    A    
H9    N4    S    
C30   H33   S    
C38   O14   S    
C30   C32   A    
C11   C13   A    
C29   H32   S    
C29   C44   A    
C1    C32   S    
C40   O3    S    
H7    N3    S    
O9    Zn2   S    
C38   H11   S    
C41   O4    S    
C26   N4    S    
C23   C36   A    
C40   H20   S    
O8    Zn1   S    
C12   O8    A    
O13   Zn2   S    
C18   O10   A    
C4    O4    S    
C17   H6    S    
C15   C16   A    
C41   H22   S    
C38   H14   S    
