data_mof_unit_68239.cif
_audit_creation_date              2012-12-11T17:19:20-0500
_audit_creation_method            fapswitch 2.2
_symmetry_space_group_name_H-M    P1
_symmetry_Int_Tables_number       1
_space_group_crystal_system       triclinic
_cell_length_a                    14.926322
_cell_length_b                    7.281119
_cell_length_c                    13.225443
_cell_angle_alpha                 89.998453
_cell_angle_beta                  100.048067
_cell_angle_gamma                 90.001213
_cell_volume                      1415.29907012

loop_
_atom_site_label
_atom_site_type_symbol
_atom_type_description
_atom_site_fract_x
_atom_site_fract_y
_atom_site_fract_z
_atom_type_partial_charge
O1    O     O_R   0.648180 0.355050 0.151550 -0.537020
O2    O     O_R   0.351820 0.644950 0.848450 -0.537016
O3    O     O_R   0.851820 0.855050 0.348450 -0.537010
O4    O     O_R   0.148180 0.144950 0.651550 -0.537014
O5    O     O_R   0.835240 0.681980 0.154280 -0.537859
O6    O     O_R   0.164760 0.318020 0.845720 -0.537859
O7    O     O_R   0.664760 0.181980 0.345720 -0.537843
O8    O     O_R   0.335240 0.818020 0.654280 -0.537842
C1    C     C_R   0.859470 0.515383 0.128191 0.689373
C2    C     C_R   0.140531 0.484617 0.871810 0.689381
C3    C     C_R   0.640532 0.015376 0.371811 0.689400
C4    C     C_R   0.359468 0.984624 0.628189 0.689403
O9    O     O_R   0.647870 0.684600 0.139630 -0.534426
O10   O     O_R   0.352130 0.315400 0.860370 -0.534428
O11   O     O_R   0.852130 0.184600 0.360370 -0.534427
O12   O     O_R   0.147870 0.815400 0.639630 -0.534424
O13   O     O_R   0.663110 0.857440 0.333700 -0.536986
O14   O     O_R   0.336890 0.142560 0.666300 -0.536986
O15   O     O_R   0.836890 0.357440 0.166300 -0.536967
O16   O     O_R   0.163110 0.642560 0.833700 -0.536968
C5    C     C_R   0.614352 0.516228 0.114211 0.723839
C6    C     C_R   0.385648 0.483772 0.885789 0.723842
C7    C     C_R   0.885648 0.016228 0.385789 0.723832
C8    C     C_R   0.114352 0.983772 0.614211 0.723827
H1    H     H_    0.491589 0.933805 0.762155 0.146784
H2    H     H_    0.508411 0.066242 0.237848 0.146787
H3    H     H_    0.008419 0.433507 0.737871 0.146811
H4    H     H_    0.991585 0.566414 0.262136 0.146803
O17   O     O_3   0.755220 0.522230 0.313690 -0.376210
O18   O     O_3   0.244780 0.477770 0.686310 -0.376207
O19   O     O_3   0.744780 0.022230 0.186310 -0.376193
O20   O     O_3   0.255220 0.977770 0.813690 -0.376197
V1    V     V_3+5 0.749030 0.796100 0.238190 1.398038
V2    V     V_3+5 0.250970 0.203900 0.761810 1.398033
V3    V     V_3+5 0.750970 0.296100 0.261810 1.398054
V4    V     V_3+5 0.249030 0.703900 0.738190 1.398060
C9    C     C_1   0.966322 0.005533 0.466389 -0.175686
C10   C     C_1   0.033679 0.994467 0.533610 -0.175690
C11   C     C_1   0.533678 0.505534 0.033610 -0.175685
C12   C     C_1   0.466322 0.494465 0.966389 -0.175681
C13   C     C_R   0.543328 0.936367 0.714235 -0.287970
C14   C     C_R   0.456672 0.063659 0.285767 -0.287968
C15   C     C_R   0.956675 0.436205 0.785783 -0.287979
C16   C     C_R   0.043329 0.563747 0.214222 -0.287968
C17   C     C_R   0.631341 0.901637 0.764117 0.147866
C18   C     C_R   0.368658 0.098384 0.235885 0.147858
C19   C     C_R   0.868658 0.401508 0.735903 0.147707
C20   C     C_R   0.131344 0.598453 0.264104 0.147720
C21   C     C_R   0.703078 0.904365 0.709212 0.411107
C22   C     C_R   0.296919 0.095627 0.290787 0.411118
C23   C     C_R   0.796910 0.404439 0.790786 0.411058
C24   C     C_R   0.203093 0.595569 0.209217 0.411076
C25   C     C_R   0.685343 0.941571 0.602685 0.076614
C26   C     C_R   0.314655 0.058414 0.397313 0.076628
C27   C     C_R   0.814645 0.441704 0.897307 0.076714
C28   C     C_R   0.185356 0.558320 0.102693 0.076712
C29   C     C_R   0.593699 0.971835 0.548506 -0.036192
C30   C     C_R   0.406300 0.028161 0.451493 -0.036195
C31   C     C_R   0.906297 0.471873 0.951494 -0.036205
C32   C     C_R   0.093705 0.528132 0.048508 -0.036208
C33   C     C_R   0.521871 0.967549 0.607056 0.015164
C34   C     C_R   0.478129 0.032458 0.392944 0.015167
C35   C     C_R   0.978129 0.467503 0.892950 0.015213
C36   C     C_R   0.021874 0.532482 0.107052 0.015201
C37   C     C_R   0.570691 0.006167 0.439993 -0.101217
C38   C     C_R   0.429308 0.993833 0.560007 -0.101217
C39   C     C_R   0.929310 0.506200 0.060007 -0.101233
C40   C     C_R   0.070692 0.493798 0.939995 -0.101232
N1    N     N_3   0.647053 0.856067 0.871075 -0.647978
H5    H     H_    0.625332 0.966536 0.911196 0.223043
H6    H     H_    0.606351 0.742928 0.880989 0.243441
N2    N     N_3   0.352948 0.143992 0.128932 -0.647988
H7    H     H_    0.374674 0.033544 0.088800 0.223049
H8    H     H_    0.393645 0.257146 0.119033 0.243438
N3    N     N_3   0.852955 0.355743 0.628971 -0.648016
H9    H     H_    0.874731 0.466083 0.588793 0.223069
H10   H     H_    0.893615 0.242500 0.619144 0.243451
N4    N     N_3   0.147044 0.644181 0.371041 -0.648025
H11   H     H_    0.125272 0.533820 0.411208 0.223066
H12   H     H_    0.106380 0.757412 0.380880 0.243449
N5    N     N_2   0.207501 0.148433 0.241345 -0.500462
H13   H     H_    0.163792 0.200477 0.286522 0.269937
C41   C     C_3   0.163309 0.044545 0.153177 -0.442622
H14   H     H_    0.104295 0.968540 0.173107 0.174022
H15   H     H_    0.209970 0.944871 0.126092 0.202169
H16   H     H_    0.138207 0.140422 0.089369 0.201693
N6    N     N_2   0.792494 0.851557 0.758657 -0.500457
H17   H     H_    0.836202 0.799495 0.713484 0.269930
C42   C     C_3   0.836686 0.955471 0.846813 -0.442604
H18   H     H_    0.895726 0.031391 0.826883 0.174020
H19   H     H_    0.861753 0.859627 0.910649 0.201704
H20   H     H_    0.790036 0.055218 0.873859 0.202145
N7    N     N_2   0.292525 0.648277 0.258669 -0.500503
H21   H     H_    0.336273 0.700203 0.213504 0.269950
C43   C     C_3   0.336643 0.544502 0.346919 -0.442593
H22   H     H_    0.395665 0.468394 0.327081 0.174009
H23   H     H_    0.289938 0.444933 0.374021 0.202186
H24   H     H_    0.361726 0.640478 0.410685 0.201711
N8    N     N_2   0.707475 0.351740 0.741335 -0.500495
H25   H     H_    0.663730 0.299773 0.786493 0.269933
C44   C     C_3   0.663360 0.455516 0.653081 -0.442541
H26   H     H_    0.604340 0.531636 0.672915 0.174011
H27   H     H_    0.638279 0.359539 0.589317 0.201702
H28   H     H_    0.710068 0.555080 0.625977 0.202159
N9    N     N_3   0.763213 0.947366 0.553628 -0.700021
H29   H     H_    0.767043 0.075425 0.519495 0.253230
H30   H     H_    0.760726 0.838003 0.502360 0.238261
N10   N     N_3   0.236785 0.052602 0.446371 -0.700021
H31   H     H_    0.232959 0.924540 0.480503 0.253236
H32   H     H_    0.239266 0.161965 0.497639 0.238254
N11   N     N_3   0.736769 0.447686 0.946347 -0.699940
H33   H     H_    0.733003 0.575765 0.980479 0.253306
H34   H     H_    0.739199 0.338341 0.997621 0.238183
N12   N     N_3   0.263230 0.552375 0.053647 -0.699971
H35   H     H_    0.267008 0.424300 0.019515 0.253295
H36   H     H_    0.260788 0.661725 0.002375 0.238201

loop_
_geom_bond_atom_site_label_1
_geom_bond_atom_site_label_2
_ccdc_geom_bond_type
C30   C34   A    
C16   C20   A    
N6    H17   S    
O1    C5    A    
N7    H21   S    
C27   C31   A    
C21   N6    S    
O3    C7    A    
C43   H22   S    
C13   C33   A    
N5    H13   S    
C43   H24   S    
C15   C35   A    
C16   C36   A    
O9    V1    S    
N9    H30   S    
H2    C14   S    
C44   H26   S    
C14   C18   A    
O4    C8    A    
N4    H12   S    
C26   N10   S    
O3    V1    S    
N10   H31   S    
O8    V4    S    
C20   N4    S    
N1    H6    S    
C31   C39   A    
C33   C38   A    
C30   C38   A    
N11   H33   S    
C2    O16   A    
O5    V1    S    
O2    C6    A    
C8    C10   S    
O19   V1    S    
C42   H19   S    
C14   C34   A    
C18   N2    S    
O11   C7    A    
O12   C8    A    
O13   V1    S    
O11   V3    S    
N5    C41   S    
C1    O15   A    
N12   H35   S    
C23   N8    S    
O4    V2    S    
C17   N1    S    
C36   C39   A    
N2    H8    S    
H1    C13   S    
C11   C12   T    
C25   C29   A    
N4    H11   S    
C19   C23   A    
C7    C9    S    
C4    C38   S    
H4    C16   S    
O6    V2    S    
O20   V2    S    
O7    C3    A    
N3    H9    S    
C1    C39   S    
O5    C1    A    
C9    C10   T    
H3    C15   S    
O14   V2    S    
C41   H14   S    
C5    C11   S    
C17   C21   A    
O8    C4    A    
C6    C12   S    
O9    C5    A    
C24   N7    S    
N11   H34   S    
C22   C26   A    
C42   H20   S    
N3    H10   S    
C41   H15   S    
C44   H28   S    
N6    C42   S    
O1    V3    S    
C26   C30   A    
O2    V4    S    
C18   C22   A    
C35   C40   A    
C3    O13   A    
C28   N12   S    
C34   C37   A    
C27   N11   S    
O7    V3    S    
C29   C37   A    
N2    H7    S    
O10   V2    S    
O6    C2    A    
N12   H36   S    
C43   H23   S    
C29   C33   A    
C2    C40   S    
N9    H29   S    
O17   V3    S    
C31   C35   A    
N8    H25   S    
O18   V4    S    
C32   C36   A    
O10   C6    A    
C19   N3    S    
O15   V3    S    
O12   V4    S    
N7    C43   S    
C24   C28   A    
C21   C25   A    
N10   H32   S    
C23   C27   A    
N1    H5    S    
O16   V4    S    
C25   N9    S    
C20   C24   A    
C41   H16   S    
C28   C32   A    
C32   C40   A    
C44   H27   S    
C4    O14   A    
C13   C17   A    
C42   H18   S    
C15   C19   A    
N8    C44   S    
C3    C37   S    
C22   N5    S    
