data_mof_unit_60283.cif
_audit_creation_date              2012-10-26T17:38:03-0400
_audit_creation_method            fapswitch 2.2
_symmetry_space_group_name_H-M    P1
_symmetry_Int_Tables_number       1
_space_group_crystal_system       triclinic
_cell_length_a                    29.409978
_cell_length_b                    29.410018
_cell_length_c                    38.969052
_cell_angle_alpha                 90.000207
_cell_angle_beta                  90.000204
_cell_angle_gamma                 90.000259
_cell_volume                      33706.2029011

loop_
_atom_site_label
_atom_site_type_symbol
_atom_type_description
_atom_site_fract_x
_atom_site_fract_y
_atom_site_fract_z
_atom_type_partial_charge
C1    C     C_R   0.500000 0.914397 0.000002 0.607362
C2    C     C_1   0.229261 0.500000 1.000000 0.033702
C3    C     C_R   0.000000 0.500000 0.895252 -0.147972
C4    C     C_R   0.000000 0.500000 0.604755 -0.148042
C5    C     C_R   0.500000 0.000000 0.604756 -0.148055
C6    C     C_R   1.000000 0.500000 0.395242 -0.148037
C7    C     C_R   0.500000 1.000000 0.395241 -0.148057
C8    C     C_R   0.500000 0.000000 0.284949 0.388243
C9    C     C_R   1.000000 0.500000 0.284740 0.384231
C10   C     C_R   0.500000 0.000000 0.715260 0.383963
C11   C     C_R   0.000001 0.500000 0.715260 0.384014
C12   C     C_R   0.000000 0.500000 0.784959 0.387665
C13   C     C_1   0.500000 0.229261 0.000001 0.033751
C14   C     C_R   0.499999 0.000000 0.784960 0.387591
C15   C     C_R   0.000000 0.500001 0.215042 0.387907
C16   C     C_R   0.500000 1.000000 0.215254 0.384651
C17   C     C_1   0.500000 0.863307 0.000002 0.036074
C18   C     C_1   0.136693 0.500000 1.000000 0.036075
C19   C     C_1   0.500000 0.136693 0.000002 0.036074
C20   C     C_1   0.863307 0.500000 1.000000 0.036074
C21   C     C_1   1.000000 0.363307 0.500000 0.035894
C22   C     C_1   0.636693 0.000000 0.500001 0.035783
C23   C     C_1   0.000000 0.636693 0.500000 0.035894
C24   C     C_1   0.770739 0.500000 0.000000 0.033702
C25   C     C_1   0.363307 1.000000 0.500001 0.035783
C26   C     C_1   0.500000 0.820953 0.000002 0.008684
C27   C     C_1   0.179047 0.500000 1.000000 0.008613
C28   C     C_1   0.500000 0.179047 0.000001 0.008684
C29   C     C_1   0.820953 0.500000 0.000000 0.008613
C30   C     C_1   1.000000 0.320953 0.500000 0.008745
C31   C     C_1   0.679047 0.000000 0.500001 0.008665
C32   C     C_1   0.000000 0.679047 0.500000 0.008745
C33   C     C_1   0.320953 1.000000 0.500001 0.008665
C34   C     C_2   0.445116 0.933134 0.105320 0.653412
C35   C     C_1   1.000000 0.270739 0.500000 0.033825
C36   C     C_2   0.067084 0.445290 0.105379 0.653085
C37   C     C_2   0.554885 0.066865 0.105320 0.653413
C38   C     C_2   0.932916 0.554710 0.105378 0.653084
C39   C     C_2   0.554691 0.932905 0.894628 0.653131
C40   C     C_2   0.932933 0.445273 0.894626 0.653134
C41   C     C_2   0.445308 0.067095 0.894629 0.653129
C42   C     C_2   0.067068 0.554726 0.894627 0.653134
C43   C     C_2   0.944939 0.433284 0.605316 0.653546
C44   C     C_2   0.566653 0.944860 0.605319 0.653583
C45   C     C_2   0.055061 0.566715 0.605317 0.653546
C46   C     C_1   0.729261 0.000000 0.500000 0.033786
C47   C     C_2   0.433347 0.055140 0.605319 0.653582
C48   C     C_2   0.055051 0.433275 0.394679 0.653531
C49   C     C_2   0.433203 0.944940 0.394603 0.653253
C50   C     C_2   0.944948 0.566725 0.394679 0.653531
C51   C     C_2   0.566797 0.055059 0.394604 0.653254
C52   C     C_1   0.000000 0.729261 0.500000 0.033825
C53   C     C_1   0.270739 1.000000 0.500001 0.033786
C54   C     C_1   0.500000 0.728380 0.000001 0.031513
C55   C     C_1   0.271620 0.500000 1.000000 0.031483
C56   C     C_1   0.500000 0.271620 0.000000 0.031513
C57   C     C_R   0.085602 0.500000 1.000000 0.607504
C58   C     C_1   0.728380 0.500000 0.000000 0.031483
C59   C     C_1   1.000000 0.228380 0.500000 0.031559
C60   C     C_1   0.771620 0.000000 0.500000 0.031530
C61   C     C_1   0.000000 0.771620 0.500000 0.031559
C62   C     C_1   0.228380 1.000000 0.500000 0.031530
C63   C     C_1   0.500000 0.678163 0.000000 -0.007411
C64   C     C_1   0.321837 0.500000 1.000000 -0.007430
C65   C     C_1   0.500000 0.321837 0.000000 -0.007411
C66   C     C_1   0.678163 0.500000 0.000000 -0.007430
C67   C     C_1   1.000000 0.178163 0.500000 -0.007371
C68   C     C_R   0.500000 0.085602 0.000002 0.607362
C69   C     C_1   0.821837 0.000000 0.500000 -0.007390
C70   C     C_1   0.000000 0.821837 0.500000 -0.007371
C71   C     C_1   0.178163 1.000000 0.500000 -0.007390
C72   C     C_1   0.500000 0.635804 0.000000 -0.014156
C73   C     C_1   0.364196 0.500000 1.000000 -0.014165
C74   C     C_1   0.500000 0.364196 1.000000 -0.014155
C75   C     C_1   0.635804 0.500000 0.000000 -0.014165
C76   C     C_1   1.000000 0.135804 0.500000 -0.014122
C77   C     C_1   0.864196 0.000000 0.500000 -0.014131
C78   C     C_1   0.000000 0.864196 0.500000 -0.014122
C79   C     C_R   0.914397 0.500000 1.000000 0.607504
C80   C     C_1   0.135804 1.000000 0.500000 -0.014131
C81   C     C_R   0.415297 0.500000 1.000000 0.538703
C82   C     C_R   0.500000 0.415297 1.000000 0.538704
C83   C     C_R   0.584703 0.500000 0.000000 0.538702
C84   C     C_R   0.500000 0.584703 0.000000 0.538703
C85   C     C_R   0.915297 1.000000 0.500000 0.538698
C86   C     C_R   0.000000 0.915297 0.500000 0.538698
C87   C     C_R   0.084703 0.000000 0.500000 0.538697
C88   C     C_R   0.000000 0.084703 0.500000 0.538698
C89   C     C_R   0.500000 0.000000 0.066902 0.615424
C90   C     C_R   1.000000 0.414398 0.500000 0.606956
C91   C     C_R   1.000000 0.500000 0.066901 0.616161
C92   C     C_R   0.500000 1.000000 0.933101 0.616170
C93   C     C_R   1.000000 0.500000 0.933100 0.616116
C94   C     C_R   1.000000 0.500000 0.566901 0.615280
C95   C     C_R   0.500000 0.000000 0.566901 0.615187
C96   C     C_R   1.000000 0.500000 0.433098 0.615283
C97   C     C_R   0.500000 1.000000 0.433097 0.615878
C98   C     C_R   0.472640 0.968489 0.123029 0.014329
C99   C     C_R   0.031522 0.472614 0.123029 0.013816
C100  C     C_R   0.527361 0.031510 0.123029 0.014328
C101  C     C_R   0.585602 1.000000 0.500001 0.606940
C102  C     C_R   0.968478 0.527387 0.123029 0.013817
C103  C     C_R   0.527373 0.968468 0.876976 0.013842
C104  C     C_R   0.968483 0.472609 0.876975 0.013841
C105  C     C_R   0.472626 0.031532 0.876977 0.013842
C106  C     C_R   0.031517 0.527391 0.876975 0.013842
C107  C     C_R   0.972550 0.468571 0.623025 0.014374
C108  C     C_R   0.531396 0.972510 0.623026 0.014373
C109  C     C_R   0.027451 0.531429 0.623025 0.014373
C110  C     C_R   0.468604 0.027490 0.623026 0.014373
C111  C     C_R   0.027443 0.468564 0.376971 0.014363
C112  C     C_R   0.000000 0.585602 0.500000 0.606956
C113  C     C_R   0.468630 0.972441 0.376960 0.013833
C114  C     C_R   0.972556 0.531435 0.376971 0.014363
C115  C     C_R   0.531370 0.027558 0.376960 0.013834
C116  C     C_R   0.472465 0.969271 0.159034 0.340451
C117  C     C_R   0.030719 0.472464 0.159030 0.340820
C118  C     C_R   0.527536 0.030728 0.159034 0.340452
C119  C     C_R   0.969281 0.527537 0.159030 0.340820
C120  C     C_R   0.527518 0.969264 0.840976 0.340831
C121  C     C_R   0.969281 0.472462 0.840974 0.340824
C122  C     C_R   0.472481 0.030736 0.840976 0.340831
C123  C     C_R   0.414398 1.000000 0.500001 0.606940
C124  C     C_R   0.030719 0.527538 0.840974 0.340824
C125  C     C_R   0.972365 0.469360 0.659028 0.340457
C126  C     C_R   0.530604 0.972324 0.659029 0.340451
C127  C     C_R   0.027636 0.530639 0.659028 0.340458
C128  C     C_R   0.469396 0.027677 0.659029 0.340452
C129  C     C_R   0.027624 0.469351 0.340967 0.340456
C130  C     C_R   0.469444 0.972285 0.340958 0.340782
C131  C     C_R   0.972374 0.530648 0.340967 0.340456
C132  C     C_R   0.530556 0.027715 0.340958 0.340782
C133  C     C_R   0.500000 1.000000 0.177240 0.002614
C134  C     C_1   0.500000 0.770739 0.000001 0.033751
C135  C     C_R   0.000000 0.500001 0.177141 0.003771
C136  C     C_R   0.499999 0.000000 0.822862 0.003733
C137  C     C_R   0.000000 0.500000 0.822861 0.003742
C138  C     C_R   0.000001 0.500000 0.677240 0.002551
C139  C     C_R   0.500000 0.000001 0.677241 0.002540
C140  C     C_R   0.999999 0.500000 0.322757 0.002577
C141  C     C_R   0.500000 0.000000 0.322848 0.003806
C142  C     C_R   0.500000 1.000000 0.104758 -0.147979
C143  C     C_R   0.000000 0.500000 0.104751 -0.147957
C144  C     C_R   0.500000 1.000000 0.895253 -0.147974
Cu1   Cu    Cu3+1 0.542440 0.000000 0.000000 1.087443
Cu2   Cu    Cu3+1 0.500000 0.500000 0.965730 1.016772
Cu3   Cu    Cu3+1 0.000000 0.000000 0.534270 1.017030
Cu4   Cu    Cu3+1 0.000000 0.000000 0.465730 1.016883
Cu5   Cu    Cu3+1 0.000000 0.542440 0.000000 1.087516
Cu6   Cu    Cu3+1 0.457560 0.000000 0.000000 1.087443
Cu7   Cu    Cu3+1 1.000000 0.457560 0.000000 1.087517
Cu8   Cu    Cu3+1 0.042440 0.500000 0.500000 1.087404
Cu9   Cu    Cu3+1 0.500000 0.042440 0.500000 1.087510
Cu10  Cu    Cu3+1 0.957560 0.500000 0.500000 1.087404
Cu11  Cu    Cu3+1 0.500000 0.957560 0.500000 1.087510
Cu12  Cu    Cu3+1 0.500000 0.500000 0.034270 1.016925
F1    F     F_    0.445703 0.939382 0.176374 -0.536341
F2    F     F_    0.560380 0.945421 0.676357 -0.536341
F3    F     F_    0.054500 0.560450 0.676356 -0.536344
F4    F     F_    0.439620 0.054580 0.676357 -0.536341
F5    F     F_    0.054474 0.439533 0.323635 -0.536355
F6    F     F_    0.438398 0.947048 0.323458 -0.537770
F7    F     F_    0.945524 0.560466 0.323635 -0.536355
F8    F     F_    0.561601 0.052952 0.323459 -0.537769
F9    F     F_    0.061917 0.447412 0.176527 -0.537742
F10   F     F_    0.554298 0.060618 0.176375 -0.536341
F11   F     F_    0.938084 0.552590 0.176526 -0.537742
F12   F     F_    0.552553 0.938045 0.823486 -0.537743
F13   F     F_    0.938079 0.447409 0.823483 -0.537745
F14   F     F_    0.447446 0.061955 0.823486 -0.537742
F15   F     F_    0.061921 0.552592 0.823484 -0.537745
F16   F     F_    0.945501 0.439549 0.676355 -0.536344
H1    H     H_    0.386523 0.897518 0.103540 0.348167
H2    H     H_    0.602010 0.886113 0.603510 0.348180
H3    H     H_    0.113767 0.602142 0.603509 0.348175
H4    H     H_    0.397990 0.113887 0.603509 0.348180
H5    H     H_    0.113754 0.397842 0.396484 0.348177
H6    H     H_    0.397270 0.886528 0.396101 0.348313
H7    H     H_    0.886245 0.602158 0.396484 0.348176
H8    H     H_    0.602731 0.113470 0.396103 0.348313
H9    H     H_    0.103364 0.387090 0.103906 0.348283
H10   H     H_    0.613478 0.102481 0.103541 0.348166
H11   H     H_    0.896637 0.612910 0.103906 0.348283
H12   H     H_    0.612899 0.896638 0.896114 0.348283
H13   H     H_    0.896693 0.387050 0.896110 0.348286
H14   H     H_    0.387101 0.103362 0.896114 0.348284
H15   H     H_    0.103307 0.612949 0.896112 0.348286
H16   H     H_    0.886234 0.397857 0.603508 0.348175
N1    N     N_R   0.510855 0.038169 0.233056 -0.108986
N2    N     N_R   0.461996 0.011407 0.733065 -0.108624
N3    N     N_R   0.988650 0.461982 0.733065 -0.108639
N4    N     N_R   0.538004 0.988594 0.733066 -0.108623
N5    N     N_R   0.988783 0.538062 0.266935 -0.108739
N6    N     N_R   0.510893 0.038171 0.267198 -0.112668
N7    N     N_R   0.011217 0.461938 0.266935 -0.108738
N8    N     N_R   0.489107 0.961829 0.267198 -0.112667
N9    N     N_R   0.988744 0.538065 0.232794 -0.112517
N10   N     N_R   0.489146 0.961831 0.233056 -0.108985
N11   N     N_R   0.011256 0.461936 0.232794 -0.112517
N12   N     N_R   0.461993 0.011445 0.767206 -0.112338
N13   N     N_R   0.011389 0.538020 0.767206 -0.112383
N14   N     N_R   0.538006 0.988556 0.767206 -0.112337
N15   N     N_R   0.988611 0.461980 0.767206 -0.112383
N16   N     N_R   0.011351 0.538017 0.733065 -0.108640
O1    O     O_R   0.535830 0.937970 0.000040 -0.478605
O2    O     O_R   0.562030 0.035830 0.500040 -0.478525
O3    O     O_R   0.964170 0.562030 0.500040 -0.478683
O4    O     O_R   0.437970 0.964170 0.500040 -0.478525
O5    O     O_R   0.964170 0.437970 0.499960 -0.478677
O6    O     O_R   0.437970 0.035830 0.499960 -0.478727
O7    O     O_R   0.035830 0.562030 0.499960 -0.478678
O8    O     O_R   0.562030 0.964170 0.499960 -0.478727
O9    O     O_R   0.535830 0.999940 0.049970 -0.481255
O10   O     O_R   0.000060 0.535830 0.049970 -0.481142
O11   O     O_R   0.464170 0.000060 0.049970 -0.481255
O12   O     O_R   0.062030 0.535830 0.000040 -0.478627
O13   O     O_R   0.999940 0.464170 0.049970 -0.481141
O14   O     O_R   0.464170 0.999940 0.950030 -0.481129
O15   O     O_R   0.999940 0.535830 0.950030 -0.481159
O16   O     O_R   0.535830 0.000060 0.950030 -0.481129
O17   O     O_R   0.000060 0.464170 0.950030 -0.481157
O18   O     O_R   0.035830 0.499940 0.549970 -0.481224
O19   O     O_R   0.500060 0.035830 0.549970 -0.481242
O20   O     O_R   0.964170 0.500060 0.549970 -0.481224
O21   O     O_R   0.499940 0.964170 0.549970 -0.481242
O22   O     O_R   0.964170 0.499940 0.450030 -0.481219
O23   O     O_R   0.464170 0.062030 0.000040 -0.478604
O24   O     O_R   0.499940 0.035830 0.450030 -0.481074
O25   O     O_R   0.035830 0.500060 0.450030 -0.481219
O26   O     O_R   0.500060 0.964170 0.450030 -0.481073
O27   O     O_R   0.437960 0.499970 0.028950 -0.479541
O28   O     O_R   0.500030 0.437960 0.028950 -0.479534
O29   O     O_R   0.562040 0.500030 0.028950 -0.479542
O30   O     O_R   0.499970 0.562040 0.028950 -0.479534
O31   O     O_R   0.562040 0.499970 0.971050 -0.479567
O32   O     O_R   0.499970 0.437960 0.971050 -0.479569
O33   O     O_R   0.437960 0.500030 0.971050 -0.479567
O34   O     O_R   0.937970 0.464170 0.000040 -0.478627
O35   O     O_R   0.500030 0.562040 0.971050 -0.479570
O36   O     O_R   0.937960 0.999970 0.528950 -0.479531
O37   O     O_R   0.000030 0.937960 0.528950 -0.479533
O38   O     O_R   0.062040 0.000030 0.528950 -0.479531
O39   O     O_R   0.999970 0.062040 0.528950 -0.479534
O40   O     O_R   0.062040 0.999970 0.471050 -0.479565
O41   O     O_R   0.999970 0.937960 0.471050 -0.479558
O42   O     O_R   0.937960 0.000030 0.471050 -0.479565
O43   O     O_R   0.000030 0.062040 0.471050 -0.479558
O44   O     O_2   0.460644 0.912766 0.080601 -0.526950
O45   O     O_R   0.464170 0.937970 0.999960 -0.478726
O46   O     O_R   0.401733 0.922299 0.117520 -0.585776
O47   O     O_2   0.087164 0.460749 0.080501 -0.526947
O48   O     O_R   0.078480 0.402188 0.117851 -0.586069
O49   O     O_2   0.539357 0.087234 0.080601 -0.526951
O50   O     O_R   0.598267 0.077701 0.117520 -0.585775
O51   O     O_2   0.912836 0.539251 0.080501 -0.526946
O52   O     O_R   0.921520 0.597812 0.117851 -0.586070
O53   O     O_2   0.539222 0.912817 0.919498 -0.526933
O54   O     O_R   0.597802 0.921521 0.882167 -0.586122
O55   O     O_2   0.912836 0.460732 0.919495 -0.526927
O56   O     O_R   0.937970 0.535830 0.999960 -0.478628
O57   O     O_R   0.921568 0.402159 0.882163 -0.586116
O58   O     O_2   0.460778 0.087183 0.919499 -0.526934
O59   O     O_R   0.402198 0.078479 0.882168 -0.586123
O60   O     O_2   0.087165 0.539267 0.919496 -0.526927
O61   O     O_R   0.078432 0.597841 0.882165 -0.586118
O62   O     O_2   0.960443 0.412835 0.580626 -0.526769
O63   O     O_R   0.901503 0.422605 0.617484 -0.585823
O64   O     O_2   0.587130 0.960345 0.580635 -0.526705
O65   O     O_R   0.577276 0.901408 0.617483 -0.585831
O66   O     O_2   0.039557 0.587165 0.580627 -0.526768
O67   O     O_R   0.535830 0.062030 0.999960 -0.478726
O68   O     O_R   0.098498 0.577394 0.617485 -0.585824
O69   O     O_2   0.412870 0.039656 0.580634 -0.526705
O70   O     O_R   0.422725 0.098593 0.617482 -0.585832
O71   O     O_2   0.039547 0.412829 0.419371 -0.526770
O72   O     O_R   0.098486 0.422590 0.382508 -0.585829
O73   O     O_2   0.412989 0.960326 0.419445 -0.526602
O74   O     O_R   0.422084 0.901751 0.382163 -0.586157
O75   O     O_2   0.960452 0.587171 0.419372 -0.526770
O76   O     O_R   0.901512 0.577409 0.382508 -0.585829
O77   O     O_2   0.587011 0.039673 0.419446 -0.526604
O78   O     O_R   0.062030 0.464170 0.999960 -0.478628
O79   O     O_R   0.577917 0.098248 0.382165 -0.586158
O80   O     O_R   0.035830 0.437970 0.500040 -0.478683

loop_
_geom_bond_atom_site_label_1
_geom_bond_atom_site_label_2
_ccdc_geom_bond_type
C61   C70   S    
C3    C104  A    
C45   O68   S    
C38   O52   S    
C4    C109  A    
C54   C63   S    
Cu8   O18   S    
C70   C78   T    
H12   O54   S    
C6    C111  A    
Cu9   O24   S    
C121  F13   S    
C103  C120  A    
C111  C129  A    
C42   O61   S    
C103  C144  A    
C88   O39   A    
Cu1   O1    S    
C47   O70   S    
N2    N12   A    
C44   O64   D    
Cu3   O36   S    
C23   C112  S    
C129  C140  A    
C12   N13   A    
C10   N2    A    
C22   C101  S    
C41   C105  S    
C30   C35   S    
Cu10  O22   S    
C17   C26   T    
C49   O74   S    
C99   C143  A    
C41   O58   D    
C11   C138  S    
Cu9   O19   S    
Cu10  O5    S    
C82   O32   A    
C52   C61   T    
Cu5   Cu7   S    
Cu5   O15   S    
Cu9   O6    S    
C15   N9    A    
C9    C140  S    
C45   C109  S    
C15   C135  S    
C5    C110  A    
H15   O61   S    
C121  C137  A    
C56   C65   S    
C54   C134  T    
C123  O6    A    
C50   O76   S    
C36   O47   D    
C11   N3    A    
C35   C59   T    
C57   O78   A    
C12   N15   A    
C7    C115  A    
C92   O16   A    
C130  C141  A    
H6    O74   S    
C24   C29   S    
C6    C114  A    
C131  C140  A    
C39   O53   D    
Cu3   Cu4   S    
C59   C67   S    
Cu5   O10   S    
C69   C77   T    
N1    N6    A    
C109  C127  A    
C32   C52   S    
C83   O29   A    
C117  F9    S    
C122  F14   S    
C31   C46   S    
C123  O4    A    
C64   C73   T    
Cu7   O13   S    
C13   C28   S    
C8    N6    A    
C2    C27   S    
C127  C138  A    
Cu3   O39   S    
Cu9   Cu11  S    
C1    O1    A    
C76   C88   S    
N7    N11   A    
Cu10  O3    S    
C115  C132  A    
C13   C56   T    
C130  F6    S    
C44   C108  S    
C38   O51   D    
C77   C85   S    
C3    C106  A    
C105  C122  A    
C98   C142  A    
C94   O20   A    
C34   C98   S    
C51   O79   S    
N3    N15   A    
C74   C82   S    
C16   C133  S    
C73   C81   S    
C71   C80   T    
C5    C95   S    
C40   O55   D    
C58   C66   S    
H2    O65   S    
C91   C143  S    
C20   C29   T    
C126  F2    S    
C101  O8    A    
C33   C53   S    
C45   O66   D    
C4    C107  A    
Cu2   O32   S    
C126  C139  A    
C68   O23   A    
C91   O10   A    
C113  C130  A    
H16   O63   S    
C90   O80   A    
C112  O7    A    
C124  C137  A    
C41   O59   S    
H11   O52   S    
C107  C125  A    
C68   O67   A    
C34   O46   S    
Cu11  O4    S    
C22   C31   T    
Cu7   O78   S    
Cu12  O30   S    
C128  F4    S    
C87   O38   A    
C1    O45   A    
C104  C121  A    
N4    N14   A    
Cu3   O38   S    
C96   O25   A    
C14   N12   A    
C50   O75   D    
C118  F10   S    
Cu4   O43   S    
C95   O19   A    
C65   C74   T    
Cu7   O17   S    
Cu2   O35   S    
C120  C136  A    
C96   O22   A    
C91   O13   A    
C84   O30   A    
C95   O21   A    
Cu5   O56   S    
C43   O63   S    
C26   C134  S    
C39   O54   S    
C99   C117  A    
C15   N11   A    
C40   O57   S    
Cu12  O28   S    
C18   C57   S    
C98   C116  A    
C97   O26   A    
Cu2   O33   S    
C131  F7    S    
Cu12  O29   S    
C55   C64   S    
C48   C111  S    
C25   C33   T    
Cu4   O42   S    
C49   C113  S    
Cu6   O14   S    
C129  F5    S    
C19   C68   S    
C3    C93   S    
C43   C107  S    
Cu6   O11   S    
C132  F8    S    
H8    O79   S    
C92   O14   A    
C19   C28   T    
C42   C106  S    
C122  C136  A    
C72   C84   S    
C118  C133  A    
C43   O62   D    
Cu1   O9    S    
C48   O72   S    
C42   O60   D    
C36   C99   S    
Cu8   O7    S    
C83   O31   A    
H7    O76   S    
C37   O50   S    
C86   O41   A    
C37   O49   D    
C34   O44   D    
C85   O42   A    
C125  C138  A    
N13   N16   A    
C4    C94   S    
C84   O35   A    
C100  C118  A    
C102  C143  A    
C79   O56   A    
C117  C135  A    
C127  F3    S    
C75   C83   S    
C16   N10   A    
C120  F12   S    
Cu6   O45   S    
C89   O9    A    
Cu8   O25   S    
C132  C141  A    
Cu7   O34   S    
C82   O28   A    
Cu2   O31   S    
Cu11  O21   S    
C105  C144  A    
C94   O18   A    
Cu6   O23   S    
C7    C97   S    
C20   C79   S    
C46   C60   T    
C1    C17   S    
C128  C139  A    
C18   C27   T    
Cu1   Cu6   S    
C112  O3    A    
Cu8   Cu10  S    
H9    O48   S    
H4    O70   S    
C7    C113  A    
C90   O5    A    
C47   O69   D    
H3    O68   S    
C39   C103  S    
C116  C133  A    
H14   O59   S    
C80   C87   S    
C47   C110  S    
C21   C30   T    
Cu11  O26   S    
C6    C96   S    
H10   O50   S    
C89   O11   A    
Cu1   O67   S    
C85   O36   A    
C108  C126  A    
C23   C32   T    
C8    C141  S    
C40   C104  S    
Cu5   O12   S    
C116  F1    S    
C38   C102  S    
C100  C142  A    
C9    N7    A    
C88   O43   A    
Cu12  O27   S    
H13   O57   S    
C87   O40   A    
C125  F16   S    
Cu1   O16   S    
C14   C136  S    
C60   C69   S    
C86   O37   A    
N5    N9    A    
C66   C75   T    
C14   N14   A    
Cu4   O41   S    
C36   O48   S    
C81   O33   A    
C62   C71   S    
C8    N8    A    
C119  F11   S    
C9    N5    A    
C10   C139  S    
C10   N4    A    
Cu10  O20   S    
C92   C144  S    
H1    O46   S    
C119  C135  A    
C11   N16   A    
C21   C90   S    
N8    N10   A    
C2    C55   T    
C101  O2    A    
C51   C115  S    
Cu9   O2    S    
C48   O71   D    
Cu8   O80   S    
C114  C131  A    
C97   O24   A    
Cu2   Cu12  S    
C63   C72   T    
C53   C62   T    
C24   C58   T    
C78   C86   S    
C81   O27   A    
C25   C123  S    
C106  C124  A    
Cu4   O40   S    
Cu3   O37   S    
C12   C137  S    
C51   O77   D    
C57   O12   A    
C93   O17   A    
C67   C76   T    
Cu11  O8    S    
C79   O34   A    
C50   C114  S    
C16   N1    A    
C49   O73   D    
C37   C100  S    
C102  C119  A    
C89   C142  S    
H5    O72   S    
C110  C128  A    
C44   O65   S    
C124  F15   S    
C5    C108  A    
C93   O15   A    
