data_mof_unit_5918.cif
_audit_creation_date              2012-12-10T17:36:41-0500
_audit_creation_method            fapswitch 2.2
_symmetry_space_group_name_H-M    P1
_symmetry_Int_Tables_number       1
_space_group_crystal_system       triclinic
_cell_length_a                    12.07236
_cell_length_b                    12.788648
_cell_length_c                    15.693946
_cell_angle_alpha                 91.979999
_cell_angle_beta                  87.554033
_cell_angle_gamma                 95.844835
_cell_volume                      2407.07054865

loop_
_atom_site_label
_atom_site_type_symbol
_atom_type_description
_atom_site_fract_x
_atom_site_fract_y
_atom_site_fract_z
_atom_type_partial_charge
C1    C     C_R   0.524532 0.700769 0.503012 0.909863
C2    C     C_R   0.475820 0.299006 0.498770 0.984132
C3    C     C_R   0.647676 0.977123 0.474219 0.372235
C4    C     C_R   0.368462 0.030385 0.567727 0.428219
C5    C     C_R   0.640045 0.867890 0.473927 0.351789
C6    C     C_R   0.365094 0.134175 0.542560 0.262682
C7    C     C_R   0.463077 0.869106 0.556459 0.412199
C8    C     C_R   0.545024 0.129961 0.467314 0.384602
C9    C     C_R   0.460198 0.975435 0.540061 -0.152955
C10   C     C_R   0.550964 0.027587 0.492747 -0.271303
C11   C     C_R   0.947305 0.419344 0.405194 0.383885
C12   C     C_R   0.054861 0.599266 0.582922 0.413925
C13   C     C_R   0.832887 0.422599 0.418872 -0.128020
C14   C     C_R   0.168243 0.586298 0.575350 -0.073542
C15   C     C_R   0.861894 0.538964 0.539186 0.537145
C16   C     C_R   0.137695 0.462317 0.460155 0.520118
C17   C     C_R   0.979040 0.538154 0.529246 -0.202940
C18   C     C_R   0.022064 0.473395 0.463616 -0.182871
C19   C     C_R   0.501078 0.499982 0.661712 0.872557
C20   C     C_R   0.498425 0.497509 0.338297 0.876409
C21   C     C_3   0.428486 0.543723 0.032277 0.272565
C22   C     C_3   0.564032 0.405390 0.965672 0.307233
C23   C     C_3   0.533993 0.571416 0.976201 0.280625
C24   C     C_3   0.459672 0.377201 0.023809 0.219259
C25   C     C_1   0.501817 0.493947 0.750158 -0.150031
C26   C     C_1   0.494447 0.486639 0.249769 -0.161524
C27   C     C_3   0.392900 0.448790 0.973033 0.262261
C28   C     C_3   0.599632 0.499158 0.026477 0.338439
C29   C     C_3   0.498179 0.478238 0.915401 -0.167062
C30   C     C_3   0.494389 0.471902 0.083759 -0.174420
C31   C     C_1   0.500422 0.486940 0.825048 0.132528
C32   C     C_1   0.493168 0.477333 0.174655 0.118777
C33   C     C_R   0.459121 0.185634 0.500976 -0.283229
C34   C     C_R   0.544766 0.813817 0.512739 -0.358847
H1    H     H_    0.225914 0.631818 0.616506 0.199998
H2    H     H_    0.775788 0.381172 0.374984 0.204068
N1    N     N_R   0.207800 0.519340 0.515560 -0.189563
N2    N     N_R   0.792200 0.480660 0.484440 -0.186915
O1    O     O_R   0.421700 0.658830 0.504150 -0.597450
O2    O     O_R   0.578300 0.341170 0.495850 -0.576141
O3    O     O_R   0.609310 0.646410 0.494170 -0.601173
O4    O     O_R   0.390690 0.353590 0.505830 -0.608060
O5    O     O_R   0.406210 0.506220 0.628210 -0.614458
O6    O     O_R   0.593790 0.493780 0.371790 -0.638181
O7    O     O_R   0.593830 0.493800 0.618230 -0.615514
O8    O     O_R   0.406170 0.506200 0.381770 -0.621213
Zn1   Zn    Zn3+2 0.374730 0.508290 0.506660 0.968994
Zn2   Zn    Zn3+2 0.625270 0.491710 0.493340 0.959045
O9    O     O_3   0.574839 0.671586 0.949240 -0.734351
H3    H     H_    0.593840 0.712845 0.002178 0.348894
O10   O     O_3   0.422077 0.277025 0.052595 -0.742970
H4    H     H_    0.392285 0.236936 0.002023 0.327626
O11   O     O_3   0.357563 0.612484 0.073389 -0.635408
C35   C     C_3   0.316207 0.676023 0.012868 0.114981
H5    H     H_    0.287052 0.629539 0.955246 0.172971
H6    H     H_    0.382217 0.738578 0.993253 0.177793
C36   C     C_3   0.217676 0.727762 0.053858 -0.357335
H7    H     H_    0.151595 0.665835 0.074303 0.225773
H8    H     H_    0.245196 0.775236 0.111216 0.237724
C37   C     C_3   0.169711 0.798868 0.991854 -0.941376
H9    H     H_    0.234215 0.862459 0.972092 0.268043
H10   H     H_    0.098270 0.835057 0.023455 0.270142
H11   H     H_    0.140045 0.752806 0.934470 0.281914
O12   O     O_3   0.637512 0.335388 0.929370 -0.629662
C38   C     C_3   0.580053 0.258056 0.876144 0.109181
H12   H     H_    0.492532 0.272604 0.864170 0.127657
H13   H     H_    0.576334 0.181004 0.907305 0.160479
C39   C     C_3   0.644062 0.250958 0.790226 -0.304238
H14   H     H_    0.659433 0.330456 0.763054 0.248167
H15   H     H_    0.725966 0.221676 0.800104 0.221608
C40   C     C_3   0.579594 0.177638 0.726610 -1.011586
H16   H     H_    0.566016 0.096635 0.750946 0.262999
H17   H     H_    0.627525 0.175626 0.664750 0.274403
H18   H     H_    0.497775 0.206275 0.715313 0.259609
O13   O     O_3   0.706520 0.531607 0.056637 -0.600788
C41   C     C_3   0.753732 0.445395 0.089500 0.176629
H19   H     H_    0.801506 0.406594 0.037481 0.181785
H20   H     H_    0.690341 0.385092 0.117258 0.113159
C42   C     C_3   0.831909 0.483894 0.160723 -0.394720
H21   H     H_    0.784092 0.522553 0.212770 0.230076
H22   H     H_    0.865990 0.415064 0.187499 0.209687
C43   C     C_3   0.928667 0.560775 0.128868 -0.794837
H23   H     H_    0.977220 0.523586 0.076643 0.238162
H24   H     H_    0.984662 0.584033 0.182086 0.230578
H25   H     H_    0.897528 0.632581 0.104950 0.291196
O14   O     O_3   0.287267 0.420476 0.939209 -0.640626
C44   C     C_3   0.205670 0.399716 0.005509 0.153519
H26   H     H_    0.152601 0.465831 0.010511 0.146918
H27   H     H_    0.240226 0.391719 0.069579 0.177840
C45   C     C_3   0.133448 0.298163 0.982881 -0.356353
H28   H     H_    0.092743 0.307116 0.921699 0.236613
H29   H     H_    0.187065 0.232619 0.974499 0.228638
C46   C     C_3   0.044060 0.270475 0.052401 -0.925639
H30   H     H_    0.082933 0.260150 0.114063 0.282856
H31   H     H_    0.994285 0.195827 0.034220 0.269150
H32   H     H_    0.987315 0.333348 0.060309 0.258577
O15   O     O_3   0.618657 0.176566 0.406479 -0.736276
H33   H     H_    0.636664 0.121940 0.363173 0.359509
O16   O     O_3   0.383688 0.819516 0.611535 -0.704202
H34   H     H_    0.416945 0.761951 0.638819 0.319978
O17   O     O_3   0.271833 0.187520 0.559815 -0.620914
C47   C     C_3   0.180058 0.144095 0.511734 0.129798
H35   H     H_    0.116248 0.200713 0.518635 0.188055
H36   H     H_    0.141509 0.069523 0.539231 0.165052
C48   C     C_3   0.207320 0.127785 0.415355 -0.392132
H37   H     H_    0.257205 0.198520 0.390162 0.252692
H38   H     H_    0.257106 0.059665 0.404930 0.206268
C49   C     C_3   0.101440 0.105963 0.365252 -0.852057
H39   H     H_    0.048602 0.036991 0.390870 0.251086
H40   H     H_    0.123812 0.089108 0.297154 0.264595
H41   H     H_    0.053512 0.175623 0.369061 0.312310
O18   O     O_3   0.728187 0.814534 0.441894 -0.609491
C50   C     C_3   0.744388 0.827217 0.352572 0.130882
H42   H     H_    0.835051 0.828127 0.336720 0.160041
H43   H     H_    0.719042 0.902468 0.329614 0.149343
C51   C     C_3   0.683029 0.734665 0.303932 -0.379279
H44   H     H_    0.717825 0.661053 0.320043 0.248165
H45   H     H_    0.593008 0.728195 0.323110 0.215081
C52   C     C_3   0.695177 0.748391 0.207712 -0.927134
H46   H     H_    0.658130 0.820199 0.189887 0.262012
H47   H     H_    0.650869 0.679488 0.174494 0.297163
H48   H     H_    0.784456 0.754749 0.186554 0.269384
O19   O     O_3   0.749194 0.033669 0.455082 -0.629058
C53   C     C_3   0.803812 0.063387 0.531732 0.134519
H49   H     H_    0.876640 0.017230 0.534999 0.152553
H50   H     H_    0.751031 0.048662 0.591307 0.119481
C54   C     C_3   0.845117 0.180440 0.530492 -0.322974
H51   H     H_    0.904392 0.195254 0.475204 0.240528
H52   H     H_    0.773485 0.226995 0.523285 0.272485
C55   C     C_3   0.902539 0.217421 0.612523 -0.981418
H53   H     H_    0.841535 0.212474 0.667440 0.274807
H54   H     H_    0.938417 0.300487 0.606864 0.281560
H55   H     H_    0.970403 0.168182 0.624839 0.256995
O20   O     O_3   0.280117 0.982027 0.615739 -0.585175
C56   C     C_3   0.286642 0.020918 0.701001 0.118384
H56   H     H_    0.286636 0.108057 0.704932 0.159914
H57   H     H_    0.363820 0.999059 0.729415 0.143445
C57   C     C_3   0.185661 0.972732 0.753154 -0.276153
H58   H     H_    0.108109 0.985593 0.720950 0.226323
H59   H     H_    0.189977 0.886626 0.757207 0.252754
C58   C     C_3   0.181208 0.022200 0.842998 -1.004172
H60   H     H_    0.259224 0.013157 0.875818 0.261665
H61   H     H_    0.109572 0.983051 0.880442 0.284640
H62   H     H_    0.170280 0.107190 0.840101 0.268872
O21   O     O_3   0.177392 0.390098 0.402803 -0.772886
H63   H     H_    0.255524 0.384101 0.413831 0.380564
O22   O     O_3   0.818670 0.595752 0.606328 -0.733305
H64   H     H_    0.746855 0.616654 0.589555 0.378208
O23   O     O_3   0.982050 0.366118 0.332832 -0.755176
H65   H     H_    0.041405 0.413123 0.304035 0.370106
O24   O     O_3   0.022735 0.674164 0.641318 -0.707379
H66   H     H_    0.976595 0.719514 0.610881 0.366368

loop_
_geom_bond_atom_site_label_1
_geom_bond_atom_site_label_2
_ccdc_geom_bond_type
C25   C31   T    
C56   C57   S    
C21   O11   S    
C44   H26   S    
C11   C18   A    
C26   C32   T    
O17   C47   S    
C22   C29   S    
C27   C29   S    
O22   H64   S    
C24   C27   S    
O13   C41   S    
O21   H63   S    
C36   H7    S    
C56   H56   S    
O11   C35   S    
C51   H44   S    
C48   H38   S    
C46   H30   S    
C7    O16   S    
C37   H11   S    
C23   C29   S    
O1    Zn1   S    
C41   H20   S    
C58   H61   S    
C23   O9    S    
C49   H39   S    
C47   C48   S    
C37   H10   S    
C6    O17   S    
O9    H3    S    
C35   H5    S    
C56   H57   S    
C11   O23   S    
C19   O5    A    
C39   H14   S    
C38   H13   S    
C12   C17   A    
O24   H66   S    
C41   C42   S    
N1    Zn1   S    
C9    C10   A    
N2    Zn2   S    
C16   N1    A    
C8    C33   A    
C50   C51   S    
C24   O10   S    
C21   C27   S    
C46   H31   S    
C22   C28   S    
C12   O24   S    
O18   C50   S    
C20   O6    A    
C3    O19   S    
C1    C34   S    
O15   H33   S    
C4    O20   S    
C7    C9    A    
C52   H47   S    
C48   C49   S    
C35   H6    S    
O10   H4    S    
O19   C53   S    
C41   H19   S    
C13   H2    S    
C4    C6    A    
C58   H62   S    
C14   H1    S    
C40   H17   S    
O14   C44   S    
C36   C37   S    
C16   O21   S    
C15   O22   S    
C27   O14   S    
C55   H54   S    
C8    O15   S    
C54   H52   S    
C15   N2    A    
C42   C43   S    
C45   H29   S    
O16   H34   S    
C38   C39   S    
C5    C34   A    
C19   O7    A    
C17   C18   A    
C49   H41   S    
C23   C28   S    
C47   H36   S    
C13   N2    A    
C57   H59   S    
C53   C54   S    
C2    C33   S    
C1    O3    A    
C12   C14   A    
C38   H12   S    
C46   H32   S    
C43   H24   S    
C21   C23   S    
C7    C34   A    
C22   C24   S    
C55   H55   S    
C54   H51   S    
C45   C46   S    
C53   H50   S    
C50   H42   S    
C21   C30   S    
O7    Zn2   S    
O2    Zn2   S    
O8    Zn1   S    
C16   C18   A    
C3    C5    A    
C57   C58   S    
C40   H18   S    
C52   H46   S    
C51   C52   S    
C15   C17   A    
O20   C56   S    
C5    O18   S    
C43   H25   S    
C48   H37   S    
C42   H22   S    
C6    C33   A    
O12   C38   S    
C44   H27   S    
C55   H53   S    
C54   C55   S    
C40   H16   S    
C29   C31   S    
C3    C10   A    
O23   H65   S    
C14   N1    A    
C30   C32   S    
C11   C13   A    
C45   H28   S    
C49   H40   S    
C20   C26   S    
C2    O4    A    
C39   C40   S    
C28   C30   S    
C52   H48   S    
O3    Zn2   S    
C51   H45   S    
O4    Zn1   S    
C47   H35   S    
C19   C25   S    
C24   C30   S    
C36   H8    S    
C57   H58   S    
C1    O1    A    
C22   O12   S    
C42   H21   S    
C2    O2    A    
C8    C10   A    
C43   H23   S    
C44   C45   S    
C39   H15   S    
C37   H9    S    
C4    C9    A    
C58   H60   S    
C28   O13   S    
O5    Zn1   S    
C20   O8    A    
O6    Zn2   S    
C53   H49   S    
C50   H43   S    
C35   C36   S    
