data_mof_unit_9403.cif
_audit_creation_date              2012-12-10T20:38:22-0500
_audit_creation_method            fapswitch 2.2
_symmetry_space_group_name_H-M    P1
_symmetry_Int_Tables_number       1
_space_group_crystal_system       triclinic
_cell_length_a                    9.858254
_cell_length_b                    10.649885
_cell_length_c                    16.51461
_cell_angle_alpha                 90.141638
_cell_angle_beta                  84.97308
_cell_angle_gamma                 89.984226
_cell_volume                      1727.18234328

loop_
_atom_site_label
_atom_site_type_symbol
_atom_type_description
_atom_site_fract_x
_atom_site_fract_y
_atom_site_fract_z
_atom_type_partial_charge
C1    C     C_R   0.499389 0.740058 0.503189 0.877485
C2    C     C_R   0.549734 0.351594 0.757977 -0.203984
C3    C     C_R   0.419929 0.459614 0.134649 -0.082109
C4    C     C_R   0.417816 0.498505 0.214838 -0.244394
C5    C     C_R   0.647930 0.419669 0.220498 -0.204510
C6    C     C_R   0.649425 0.379645 0.140167 -0.194043
C7    C     C_R   0.533653 0.395339 0.098009 0.232190
C8    C     C_2   0.429557 0.316873 0.977235 0.424696
C9    C     C_2   0.538832 0.358323 0.012599 -0.331437
C10   C     C_R   0.530582 0.476364 0.258718 -0.035731
C11   C     C_R   0.374197 0.936210 0.512170 0.136024
C12   C     C_R   0.480837 0.494849 0.653445 0.827888
C13   C     C_R   0.495698 0.871368 0.517392 -0.110541
C14   C     C_R   0.611907 0.935105 0.538794 -0.220571
C15   C     C_R   0.612060 0.065114 0.538596 -0.233741
C16   C     C_R   0.496058 0.128761 0.516920 -0.097417
C17   C     C_R   0.374593 0.064109 0.511634 0.110830
C18   C     C_3   0.274616 0.070878 0.448703 -0.477269
C19   C     C_3   0.273593 0.928559 0.449590 -0.479295
C20   C     C_R   0.919051 0.462934 0.566874 0.067356
C21   C     C_R   0.938043 0.531517 0.431909 -0.098047
C22   C     C_R   0.081880 0.532496 0.432094 -0.106252
C23   C     C_R   0.499538 0.259957 0.502975 0.873606
C24   C     C_R   0.061670 0.458006 0.565965 0.008565
C25   C     C_3   0.057934 0.510541 0.650782 0.199628
C26   C     C_3   0.903819 0.522314 0.649384 0.254978
C27   C     C_R   0.519126 0.498101 0.346074 0.863271
C28   C     C_R   0.467644 0.451659 0.736631 -0.053266
C29   C     C_R   0.364151 0.498034 0.791874 -0.165965
C30   C     C_R   0.345460 0.446777 0.869310 -0.154626
C31   C     C_R   0.428801 0.347976 0.891031 0.068357
C32   C     C_R   0.530161 0.299634 0.834979 -0.235513
H1    H     H_    0.704540 0.885618 0.549822 0.192360
H2    H     H_    0.704758 0.114576 0.549558 0.167979
H3    H     H_    0.319395 0.110994 0.390228 0.209863
H4    H     H_    0.174660 0.888428 0.474727 0.212141
H5    H     H_    0.317103 0.885797 0.391498 0.200013
H6    H     H_    0.891949 0.558393 0.377487 0.134290
H7    H     H_    0.143652 0.560807 0.377916 0.138041
H8    H     H_    0.327308 0.544241 0.242867 0.143801
H9    H     H_    0.111228 0.602408 0.652821 0.134136
H10   H     H_    0.841901 0.463392 0.694339 0.099064
H11   H     H_    0.736200 0.401850 0.253481 0.153331
H12   H     H_    0.596909 0.225221 0.852068 0.131593
H13   H     H_    0.333131 0.481161 0.101279 0.160687
H14   H     H_    0.627875 0.312847 0.714774 0.140126
H15   H     H_    0.270198 0.487577 0.913433 0.139282
N1    N     N_R   0.857140 0.500860 0.500530 -0.069602
N2    N     N_R   0.142780 0.500820 0.500530 -0.108131
O1    O     O_R   0.385310 0.683210 0.499990 -0.616904
O2    O     O_R   0.614650 0.683240 0.500000 -0.589838
O3    O     O_R   0.371780 0.500000 0.615800 -0.616621
O4    O     O_R   0.601120 0.500040 0.615800 -0.599516
O5    O     O_R   0.385350 0.316760 0.500000 -0.621404
O6    O     O_R   0.614690 0.316790 0.500010 -0.625615
O7    O     O_R   0.398880 0.499960 0.384200 -0.617500
O8    O     O_R   0.628220 0.500000 0.384200 -0.624830
Zn1   Zn    Zn3+2 0.346870 0.499980 0.499990 0.935619
Zn2   Zn    Zn3+2 0.653130 0.500020 0.500010 0.965697
H16   H     H_    0.299501 0.574402 0.775339 0.154041
H17   H     H_    0.739726 0.334510 0.111349 0.134991
H18   H     H_    0.176109 0.113177 0.472808 0.205511
O9    O     O_3   0.089572 0.430783 0.716036 -0.673170
C33   C     C_3   0.138257 0.309084 0.693898 0.139502
H19   H     H_    0.206642 0.279556 0.740366 0.176021
H20   H     H_    0.202092 0.305808 0.635088 0.166839
C34   C     C_3   0.020085 0.215345 0.695861 -0.406369
H21   H     H_    0.959968 0.220874 0.755928 0.236817
H22   H     H_    0.951667 0.238797 0.648218 0.202781
C35   C     C_3   0.071421 0.081238 0.681923 -0.966014
H23   H     H_    0.127801 0.072555 0.621078 0.271777
H24   H     H_    0.983516 0.015843 0.685014 0.260148
H25   H     H_    0.139540 0.054182 0.729077 0.260745
O10   O     O_3   0.859950 0.648385 0.644471 -0.626705
C36   C     C_3   0.850450 0.705920 0.722104 0.063600
H26   H     H_    0.873107 0.807249 0.712895 0.160132
H27   H     H_    0.926430 0.669506 0.762501 0.133981
C37   C     C_3   0.706200 0.692797 0.763644 -0.325437
H28   H     H_    0.630983 0.723748 0.721426 0.228718
H29   H     H_    0.686769 0.592939 0.779542 0.221124
C38   C     C_3   0.687455 0.771033 0.841318 -0.974431
H30   H     H_    0.760927 0.740878 0.884744 0.267014
H31   H     H_    0.582495 0.757902 0.870336 0.266162
H32   H     H_    0.703009 0.872241 0.827245 0.263215
H33   H     H_    0.632028 0.381738 0.975407 0.127130
O11   O     O_3   0.310607 0.283959 0.024047 -0.654589
C39   C     C_3   0.241533 0.184382 0.988012 0.095305
H34   H     H_    0.222124 0.110400 0.034917 0.163719
H35   H     H_    0.300844 0.138126 0.935421 0.116796
C40   C     C_3   0.104303 0.230475 0.962637 -0.347043
H36   H     H_    0.046278 0.276720 0.015267 0.226382
H37   H     H_    0.120993 0.300143 0.912957 0.229794
C41   C     C_3   0.019877 0.122327 0.932949 -0.977486
H38   H     H_    0.075458 0.075265 0.879893 0.267720
H39   H     H_    0.921943 0.159095 0.914252 0.262452
H40   H     H_    0.997578 0.052671 0.982270 0.264602

loop_
_geom_bond_atom_site_label_1
_geom_bond_atom_site_label_2
_ccdc_geom_bond_type
C10   C27   S    
C8    C9    D    
C39   H34   S    
C41   H38   S    
O6    Zn2   S    
C11   C13   A    
C14   H1    S    
C38   H30   S    
O4    Zn2   S    
C2    H14   S    
C11   C19   S    
C12   C28   S    
C6    H17   S    
C28   C29   A    
C3    C7    A    
C19   H4    S    
O5    Zn1   S    
C30   C31   A    
C37   H29   S    
O8    Zn2   S    
C15   C16   A    
C2    C32   A    
C18   C19   S    
C25   O9    S    
C19   H5    S    
C12   O3    A    
C21   H6    S    
C20   C24   A    
C16   C17   A    
C35   H23   S    
C1    O1    A    
C15   H2    S    
C12   O4    A    
C21   N1    A    
C9    H33   S    
C5    H11   S    
C41   H39   S    
C21   C22   A    
C38   H31   S    
O10   C36   S    
C34   H21   S    
O1    Zn1   S    
C33   C34   S    
C4    H8    S    
C30   H15   S    
C24   C25   S    
C27   O8    A    
C25   H9    S    
C27   O7    A    
C18   H18   S    
C25   C26   S    
C3    H13   S    
N2    Zn1   S    
C34   H22   S    
C33   H20   S    
C36   H26   S    
C29   C30   A    
C36   H27   S    
C40   H37   S    
C31   C32   A    
C29   H16   S    
C35   H25   S    
C17   C18   S    
C32   H12   S    
N1    Zn2   S    
C1    O2    A    
C20   N1    A    
O3    Zn1   S    
C22   N2    A    
C41   H40   S    
C39   H35   S    
C1    C13   S    
C4    C10   A    
C3    C4    A    
C38   H32   S    
C26   H10   S    
C23   O5    A    
C18   H3    S    
C24   N2    A    
C7    C9    S    
C11   C17   A    
O11   C39   S    
C8    C31   S    
C35   H24   S    
C23   O6    A    
C6    C7    A    
C16   C23   S    
C34   C35   S    
C33   H19   S    
C40   C41   S    
C5    C10   A    
C37   H28   S    
C37   C38   S    
C40   H36   S    
C5    C6    A    
C20   C26   S    
C22   H7    S    
C26   O10   S    
O7    Zn1   S    
C8    O11   S    
C36   C37   S    
O9    C33   S    
O2    Zn2   S    
C39   C40   S    
C14   C15   A    
C2    C28   A    
C13   C14   A    
