data_mof_unit_18851.cif
_audit_creation_date              2012-12-11T14:56:33-0500
_audit_creation_method            fapswitch 2.2
_symmetry_space_group_name_H-M    P1
_symmetry_Int_Tables_number       1
_space_group_crystal_system       triclinic
_cell_length_a                    10.554183
_cell_length_b                    10.613578
_cell_length_c                    17.040542
_cell_angle_alpha                 80.040047
_cell_angle_beta                  89.827947
_cell_angle_gamma                 119.114848
_cell_volume                      1634.07088777

loop_
_atom_site_label
_atom_site_type_symbol
_atom_type_description
_atom_site_fract_x
_atom_site_fract_y
_atom_site_fract_z
_atom_type_partial_charge
C1    C     C_R   0.279290 0.888928 0.132853 0.531822
C2    C     C_R   0.792074 0.415713 0.264916 -0.146009
C3    C     C_R   0.783915 0.406047 0.185836 -0.130275
C4    C     C_R   0.648063 0.338519 0.157630 0.005141
C5    C     C_1   0.634495 0.871936 0.211253 -0.027085
C6    C     C_1   0.661823 0.856735 0.278967 -0.022118
C7    C     C_1   0.228516 0.854231 0.215723 -0.044981
C8    C     C_1   0.179894 0.835138 0.283314 -0.031304
C9    C     C_1   0.661975 0.358564 0.780442 -0.020809
C10   C     C_1   0.684763 0.402560 0.709760 -0.020748
C11   C     C_R   0.625403 0.713486 0.804678 -0.147037
C12   C     C_R   0.635899 0.280028 0.086194 0.529406
C13   C     C_R   0.611232 0.699289 0.726214 -0.163737
C14   C     C_R   0.669049 0.824826 0.664782 0.044977
C15   C     C_R   0.746654 0.966026 0.682472 0.204180
C16   C     C_R   0.757240 0.979832 0.761861 -0.104648
C17   C     C_R   0.690740 0.853479 0.822867 -0.022058
C18   C     C_R   0.075323 0.891145 0.793150 -0.134789
C19   C     C_R   0.038049 0.874189 0.716604 -0.167292
C20   C     C_R   0.052983 0.771226 0.682028 0.011452
C21   C     C_R   0.089361 0.671572 0.729591 0.222105
C22   C     C_R   0.129676 0.691908 0.805964 -0.090424
C23   C     C_R   0.600926 0.882084 0.130939 0.540542
C24   C     C_R   0.131494 0.807276 0.835760 -0.019699
C25   C     C_R   0.683454 0.813841 0.358631 0.557096
C26   C     C_R   0.686865 0.392061 0.396139 0.595037
C27   C     C_R   0.108997 0.812928 0.360055 0.574672
C28   C     C_R   0.677275 0.801156 0.584994 0.568517
C29   C     C_R   0.717277 0.446464 0.625763 0.532527
C30   C     C_R   0.029737 0.773722 0.597331 0.536578
C31   C     C_R   0.213979 0.857738 0.902882 0.564167
C32   C     C_R   0.640308 0.291012 0.861967 0.551672
C33   C     C_R   0.647873 0.866519 0.899802 0.560737
C34   C     C_R   0.520434 0.294222 0.206860 -0.129414
C35   C     C_R   0.526621 0.301662 0.287535 0.022255
C36   C     C_R   0.664535 0.359773 0.316978 0.004063
Cr1   Cr    Cr6+3 0.402240 0.783890 0.019450 1.040255
Cr2   Cr    Cr6+3 0.382360 0.097900 0.991800 1.033201
Cr3   Cr    Cr6+3 0.715380 0.118170 0.988700 1.042462
Cr4   Cr    Cr6+3 0.936650 0.882420 0.465510 1.083323
Cr5   Cr    Cr6+3 0.605770 0.565620 0.493360 1.095312
Cr6   Cr    Cr6+3 0.921340 0.550490 0.496380 1.136423
H1    H     H_    0.414577 0.241301 0.184468 0.173857
H2    H     H_    0.004378 0.947105 0.682786 0.170864
H3    H     H_    0.168568 0.623488 0.839775 0.165006
H4    H     H_    0.899914 0.468649 0.285025 0.155130
H5    H     H_    0.883224 0.443028 0.148052 0.152248
H6    H     H_    0.574746 0.615105 0.851354 0.146252
H7    H     H_    0.557260 0.589291 0.713665 0.152043
H8    H     H_    0.807657 0.089008 0.775560 0.189379
H9    H     H_    0.070879 0.977994 0.816229 0.161065
O1    O     O_R   0.521780 0.757110 0.108900 -0.495067
O2    O     O_R   0.513330 0.228330 0.898660 -0.493354
O3    O     O_R   0.739230 0.266130 0.888050 -0.493385
O4    O     O_R   0.712580 0.991850 0.918770 -0.497634
O5    O     O_3   0.499990 0.999980 0.999980 -0.291733
O6    O     O_R   0.083770 0.911170 0.376030 -0.476770
O7    O     O_R   0.808770 0.880340 0.383890 -0.491050
O8    O     O_R   0.584340 0.689460 0.394160 -0.494754
O9    O     O_R   0.614320 0.443940 0.423590 -0.463522
O10   O     O_R   0.805020 0.410040 0.421340 -0.498095
O11   O     O_R   0.049240 0.685450 0.403290 -0.500068
O12   O     O_R   0.275160 0.783810 0.101120 -0.501827
O13   O     O_R   0.077520 0.903010 0.551800 -0.465282
O14   O     O_R   0.802980 0.872780 0.546830 -0.491547
O15   O     O_R   0.578090 0.681300 0.569920 -0.508709
O16   O     O_R   0.608530 0.436370 0.586530 -0.481934
O17   O     O_R   0.798770 0.401880 0.597100 -0.396412
O18   O     O_R   0.043450 0.677890 0.566230 -0.438506
O19   O     O_3   0.821250 0.666180 0.485090 -0.344036
O20   O     O_R   0.237900 0.972600 0.090980 -0.494096
O21   O     O_R   0.511190 0.220540 0.061620 -0.527941
O22   O     O_R   0.736920 0.257720 0.063840 -0.519645
O23   O     O_R   0.710450 0.984050 0.081720 -0.484061
O24   O     O_R   0.524090 0.765520 0.933110 -0.504960
O25   O     O_R   0.277300 0.791600 0.938160 -0.497378
O26   O     O_R   0.240210 0.981010 0.915190 -0.504501
Cl1   Cl    Cl    0.096791 0.525800 0.697217 -0.536570
C37   C     C_2   0.387921 0.242125 0.338828 0.586012
O27   O     O_2   0.375273 0.184221 0.409149 -0.472372
O28   O     O_R   0.269926 0.249397 0.305791 -0.690827
H10   H     H_    0.182060 0.207380 0.346552 0.353913
Cl2   Cl    Cl    0.828586 0.126741 0.607321 -0.515228

loop_
_geom_bond_atom_site_label_1
_geom_bond_atom_site_label_2
_ccdc_geom_bond_type
C33   O4    A    
C30   O13   A    
C35   C36   A    
O28   H10   S    
C31   O25   A    
C7    C8    T    
Cr5   O16   S    
C20   C30   S    
C2    H4    S    
C1    O20   A    
Cr4   O19   S    
C18   C24   A    
C21   C22   A    
C26   O10   A    
C16   H8    S    
C34   C35   A    
C5    C6    T    
Cr3   O3    S    
C15   C16   A    
Cr6   O19   S    
C18   C19   A    
Cr3   O23   S    
C3    H5    S    
C9    C32   S    
C29   O16   A    
Cr1   O5    S    
C33   O24   A    
Cr3   O4    S    
C19   C20   A    
C16   C17   A    
C21   Cl1   S    
C4    C12   S    
C9    C10   T    
Cr6   O11   S    
Cr1   O24   S    
C13   C14   A    
Cr6   O17   S    
C11   H6    S    
C17   C33   S    
C1    O12   A    
C32   O3    A    
Cr1   O12   S    
C18   H9    S    
C31   O26   A    
Cr2   O21   S    
C4    C34   A    
Cr4   O7    S    
Cr5   O8    S    
C27   O6    A    
C37   O28   S    
Cr1   O1    S    
C15   Cl2   S    
Cr6   O18   S    
C28   O15   A    
C27   O11   A    
C29   O17   A    
Cr3   O5    S    
C5    C23   S    
Cr6   O10   S    
C13   H7    S    
C26   C36   S    
Cr1   O25   S    
Cr4   O14   S    
C22   C24   A    
C25   O7    A    
C23   O23   A    
C3    C4    A    
C32   O2    A    
C30   O18   A    
C19   H2    S    
C2    C36   A    
Cr2   O20   S    
C11   C17   A    
Cr4   O6    S    
C1    C7    S    
C34   H1    S    
Cr5   O9    S    
Cr5   O15   S    
Cr2   O26   S    
Cr4   O13   S    
C2    C3    A    
C24   C31   S    
C11   C13   A    
C10   C29   S    
C23   O1    A    
Cr2   O2    S    
C35   C37   S    
C28   O14   A    
Cr3   O22   S    
C12   O21   A    
C37   O27   D    
C6    C25   S    
C22   H3    S    
Cr2   O5    S    
C20   C21   A    
C8    C27   S    
C14   C15   A    
C25   O8    A    
C14   C28   S    
C12   O22   A    
C26   O9    A    
Cr5   O19   S    
