data_mof_unit_66981.cif
_audit_creation_date              2013-03-05T15:58:12-0500
_audit_creation_method            fapswitch 2.2
_symmetry_space_group_name_H-M    P1
_symmetry_Int_Tables_number       1
_space_group_crystal_system       triclinic
_cell_length_a                    8.324141
_cell_length_b                    12.931235
_cell_length_c                    14.309824
_cell_angle_alpha                 93.739439
_cell_angle_beta                  90.694753
_cell_angle_gamma                 98.081235
_cell_volume                      1521.43360346

loop_
_atom_site_label
_atom_site_type_symbol
_atom_site_description
_atom_site_fract_x
_atom_site_fract_y
_atom_site_fract_z
_atom_type_partial_charge
P1    P     P_3+3 0.054400 0.427280 0.286870 0.502071
O1    O     O_2   0.887370 0.460630 0.272300 -0.344802
O2    O     O_3   0.129410 0.451380 0.388510 -0.340854
O3    O     O_3   0.670210 0.653170 0.329170 -0.371673
O4    O     O_2   0.798866 0.599070 0.162123 -0.388077
O5    O     O_3   0.997173 0.292117 0.271287 -0.583979
O6    O     O_3   0.643390 0.760615 0.162811 -0.610561
H1    H     H_    0.859393 0.802728 0.241336 0.184752
C1    C     C_3   0.854758 0.890176 0.118396 -0.752863
H2    H     H_    0.917351 0.832399 0.078145 0.232390
P2    P     P_3+3 0.668300 0.742890 0.573060 0.464746
P3    P     P_3+3 0.145437 0.839498 0.378803 0.481432
O7    O     O_2   0.845380 0.761330 0.544970 -0.415342
O8    O     O_3   0.088930 0.704860 0.376040 -0.389673
O9    O     O_2   0.005280 0.890395 0.423936 -0.308307
O10   O     O_3   0.674297 0.755891 0.695605 -0.532032
O11   O     O_3   0.147554 0.869421 0.261330 -0.527203
C2    C     C_3   0.250989 0.806603 0.214128 0.198496
H3    H     H_    0.199049 0.722581 0.213932 0.117545
H4    H     H_    0.372639 0.817314 0.248763 0.071765
C3    C     C_3   0.271622 0.832696 0.111657 -0.645189
H5    H     H_    0.375520 0.797216 0.082291 0.237378
H6    H     H_    0.163599 0.796284 0.069701 0.183419
C4    C     C_3   0.231779 0.758329 0.661228 0.433109
H7    H     H_    0.331190 0.720450 0.629358 0.092323
H8    H     H_    0.131977 0.757381 0.609012 0.101920
C5    C     C_3   0.297424 0.870965 0.692662 -0.984909
H9    H     H_    0.411844 0.871865 0.733080 0.280922
H10   H     H_    0.320783 0.919229 0.631912 0.212514
H11   H     H_    0.209113 0.905881 0.737852 0.316129
Ba1   Ba    Ba6+2 0.855630 0.555280 0.454520 1.607209
C6    C     C_3   0.132801 0.240449 0.260221 0.827746
H12   H     H_    0.242608 0.285117 0.295197 0.110722
C7    C     C_3   0.161968 0.217052 0.157074 -1.082062
H13   H     H_    0.055655 0.166667 0.123046 0.245156
H14   H     H_    0.270000 0.176469 0.148941 0.281184
H15   H     H_    0.185180 0.290531 0.121456 0.273433
C8    C     C_3   0.718510 0.666580 0.733008 0.416313
H16   H     H_    0.838185 0.652097 0.706781 0.085366
H17   H     H_    0.625830 0.597284 0.715347 0.113301
C9    C     C_3   0.729076 0.686341 0.839116 -0.838596
H18   H     H_    0.823797 0.753902 0.858875 0.305180
H19   H     H_    0.760059 0.617065 0.872915 0.187686
H20   H     H_    0.610173 0.703547 0.865667 0.271877
P4    P     P_3+3 0.135310 0.572810 0.713130 0.465870
O12   O     O_2   0.302330 0.539400 0.727760 -0.370777
O13   O     O_3   0.060300 0.548700 0.611500 -0.396729
O14   O     O_3   0.519500 0.346920 0.670840 -0.380238
O15   O     O_3   0.174018 0.707832 0.740004 -0.553837
P5    P     P_3+3 0.066814 0.159114 0.622851 0.509605
O16   O     O_3   0.614310 0.373510 0.452640 -0.347527
O17   O     O_3   0.100780 0.295230 0.623970 -0.316002
O18   O     O_2   0.203741 0.118226 0.565798 -0.369078
O19   O     O_3   0.107778 0.126608 0.736793 -0.521749
Ba2   Ba    Ba6+2 0.334200 0.444810 0.545490 1.628798
P6    P     P_3+3 0.647676 0.638069 0.206593 0.461552
C10   C     C_3   0.768091 0.836202 0.199886 0.432032
H21   H     H_    0.946224 0.956079 0.146013 0.188500
O20   O     O_3   0.575400 0.626570 0.547370 -0.409086
C11   C     C_3   0.624682 0.253387 0.249921 0.734387
H22   H     H_    0.717853 0.303588 0.293226 0.155036
C12   C     C_3   0.694248 0.161857 0.203052 -0.970677
H23   H     H_    0.595707 0.107232 0.166301 0.264587
H24   H     H_    0.785608 0.189244 0.151097 0.249450
H25   H     H_    0.752417 0.121418 0.257012 0.273623
P7    P     P_3+3 0.524326 0.240234 0.421534 0.475361
O21   O     O_2   0.344320 0.238700 0.455090 -0.311530
O22   O     O_3   0.489124 0.215564 0.300672 -0.605694
C13   C     C_3   0.995364 0.165529 0.797241 0.339577
H26   H     H_    0.000329 0.251678 0.794162 0.062803
H27   H     H_    0.871755 0.127544 0.777255 0.051243
C14   C     C_3   0.028713 0.140089 0.898215 -0.117299
H28   H     H_    0.927023 0.159428 0.942656 0.070856
P8    P     P_3+3 0.542207 0.354803 0.792293 0.499940
C15   C     C_3   0.524436 0.153688 0.775366 0.376896
H29   H     H_    0.641784 0.179318 0.741991 -0.007043
O23   O     O_2   0.424589 0.426872 0.833432 -0.332027
O24   O     O_3   0.468065 0.233165 0.831889 -0.490984
H30   H     H_    0.433379 0.124951 0.718882 0.153076
H31   H     H_    0.627725 0.093826 0.897051 0.259410
C16   C     C_3   0.545094 0.064722 0.836612 -0.851657
H32   H     H_    0.597554 0.002951 0.795731 0.265240
H33   H     H_    0.425596 0.030884 0.862942 0.301879
C17   C     C_R   0.984889 0.443889 0.059111 -0.102376
C18   C     C_R   0.183359 0.487677 0.193845 0.150307
C19   C     C_R   0.341006 0.528094 0.223326 -0.454102
C20   C     C_R   0.454131 0.569251 0.160661 0.367065
C21   C     C_R   0.409245 0.576842 0.067021 -0.261879
C22   C     C_R   0.250776 0.539306 0.034362 0.087446
C23   C     C_R   0.137188 0.490026 0.096748 0.006531
H34   H     H_    0.377181 0.527294 0.296192 0.172049
C24   C     C_R   0.055639 0.501444 0.901418 0.023055
C25   C     C_R   0.944100 0.448667 0.963277 0.101282
C26   C     C_R   0.011621 0.500933 0.803498 0.252746
C27   C     C_R   0.860829 0.448016 0.772069 -0.517169
C28   C     C_R   0.749091 0.403201 0.834408 0.209389
C29   C     C_R   0.790974 0.401562 0.928824 -0.310008
C30   C     C_R   0.206873 0.549399 0.939763 -0.079321
H35   H     H_    0.497306 0.614403 0.020267 0.169451
H36   H     H_    0.702934 0.364082 0.975220 0.206350
H37   H     H_    0.825319 0.447590 0.699012 0.177395
H38   H     H_    0.898271 0.401567 0.103300 0.177137
H39   H     H_    0.293953 0.592461 0.896171 0.158723
C31   C     C_R   0.784076 0.168850 0.513576 0.078653
C32   C     C_R   0.431441 0.816745 0.472587 -0.494378
C33   C     C_R   0.405328 0.993633 0.440222 -0.154926
C34   C     C_R   0.341966 0.887872 0.436820 0.184922
C35   C     C_R   0.576551 0.849762 0.522351 0.307032
C36   C     C_R   0.641063 0.960046 0.532303 0.009282
C37   C     C_R   0.554989 0.031675 0.485319 -0.032157
C38   C     C_R   0.624953 0.138187 0.479708 0.100177
C39   C     C_R   0.863648 0.105085 0.568186 0.089029
C40   C     C_R   0.790539 0.002494 0.580902 -0.270593
H40   H     H_    0.338917 0.045055 0.404705 0.213908
H41   H     H_    0.383693 0.734290 0.464332 0.157831
Br1   Br    Br    0.082350 0.108609 0.316024 -0.488837
C41   C     C_2   0.693352 0.913708 0.260933 0.446979
H42   H     H_    0.589803 0.946693 0.235614 0.001306
O25   O     O_2   0.747778 0.940356 0.339336 -0.548301
Br2   Br    Br    0.556456 0.334774 0.152747 -0.634875
C42   C     C_2   0.741918 0.930796 0.051649 0.801934
H43   H     H_    0.736546 0.013985 0.052037 0.007369
O26   O     O_2   0.657733 0.870831 0.995551 -0.528049
C43   C     C_2   0.297564 0.948287 0.100683 0.697206
H44   H     H_    0.223942 0.998511 0.138585 0.077286
O27   O     O_2   0.398280 0.986414 0.046993 -0.604168
C44   C     C_2   0.182460 0.202293 0.937368 0.645811
H45   H     H_    0.278066 0.163305 0.965175 0.119813
O28   O     O_2   0.200616 0.297615 0.940565 -0.575374
Br3   Br    Br    0.043143 0.992179 0.905371 -0.572970
C45   C     C_2   0.877292 0.946150 0.646299 0.728368
H46   H     H_    0.992268 0.921955 0.626639 0.034193
O29   O     O_2   0.830270 0.936356 0.725773 -0.565660
Br4   Br    Br    0.903835 0.292376 0.471504 -0.352631

loop_
_geom_bond_atom_site_label_1
_geom_bond_atom_site_label_2
_geom_bond_distance
_ccdc_geom_bond_type
O14   Ba2   2.824369 S    
P7    O22   1.751661 S    
C20   C21   1.400024 A    
Ba2   O20   2.867031 S    
C5    H10   1.106252 S    
C2    C3    1.532280 S    
C17   H38   1.079114 S    
C9    H18   1.110676 S    
O4    P6    1.548920 D    
O5    C6    1.395960 S    
C27   C28   1.390234 A    
C4    C5    1.518949 S    
O8    Ba1   2.837976 S    
C16   H32   1.101934 S    
C24   C30   1.410608 A    
C18   C19   1.392192 A    
C32   C34   1.381091 A    
P5    O19   1.751473 S    
C31   Br4   1.897374 S    
C33   H40   1.070836 S    
O13   Ba2   2.939939 S    
C4    H8    1.108843 S    
P1    O1    1.528364 D    
C19   H34   1.082901 S    
C41   O25   1.214940 D    
C8    H16   1.104841 S    
H31   C16   1.110441 S    
C33   C34   1.392420 A    
C30   H39   1.080472 S    
C7    H15   1.101764 S    
P1    Ba1   3.403093 S    
C35   C36   1.448717 A    
C2    H4    1.108906 S    
C11   C12   1.511506 S    
C7    H13   1.109427 S    
Ba1   O20   2.928576 S    
C13   H27   1.101922 S    
C37   C38   1.425725 A    
C12   H24   1.108531 S    
O2    Ba2   2.816396 S    
P8    O23   1.540321 D    
O12   Ba2   2.839252 S    
C1    C42   1.500956 S    
P7    C38   1.890262 S    
C1    H2    1.105449 S    
O16   Ba2   2.927783 S    
O17   Ba2   2.838570 S    
C36   C40   1.438860 A    
P7    O21   1.576860 D    
P2    Ba1   3.433017 S    
Ba1   O13   2.815818 S    
C3    H5    1.109192 S    
O3    P6    1.757008 S    
C5    H11   1.108680 S    
C9    H19   1.105163 S    
C13   H26   1.112737 S    
C17   C23   1.407875 A    
O6    P6    1.746379 S    
P2    O20   1.609224 S    
P4    C26   1.875161 S    
C24   C26   1.443392 A    
C39   C40   1.403777 A    
C16   H33   1.109556 S    
O7    Ba1   2.898063 S    
P4    O13   1.570408 S    
P1    C18   1.862490 S    
C32   C35   1.393895 A    
P5    O18   1.543024 D    
C14   C44   1.494401 S    
P1    O5    1.744713 S    
O3    Ba1   2.824970 S    
P8    C28   1.828443 S    
C4    H7    1.107549 S    
C8    C9    1.522617 S    
C31   C39   1.397988 A    
C19   C20   1.384177 A    
C2    H3    1.111281 S    
P6    C20   1.820581 S    
P4    O12   1.528733 D    
C11   H22   1.096009 S    
P1    O2    1.570528 S    
O16   P7    1.805071 S    
C6    C7    1.516643 S    
P3    O11   1.749139 S    
C13   C14   1.533312 S    
C15   H29   1.110422 S    
C44   O28   1.218365 D    
C12   H23   1.107504 S    
O14   P8    1.740741 S    
H1    C10   1.109880 S    
P3    C34   1.835329 S    
P2    O10   1.750122 S    
P5    O17   1.742013 S    
P3    O9    1.546013 D    
P4    O15   1.746849 S    
C28   C29   1.393484 A    
P5    C39   1.877385 S    
O11   C2    1.413009 S    
C6    Br1   1.924826 S    
O2    Ba1   2.939166 S    
C11   O22   1.396768 S    
C42   H43   1.082579 S    
P3    O8    1.736192 S    
C3    H6    1.105309 S    
C9    H20   1.110629 S    
C10   C41   1.492984 S    
C45   H46   1.082715 S    
C25   C29   1.402180 A    
C5    H9    1.106553 S    
C29   H36   1.080126 S    
C43   O27   1.218619 D    
C33   C37   1.406150 A    
C4    O15   1.396132 S    
C1    H21   1.108362 S    
C40   C45   1.465805 S    
C12   H25   1.104055 S    
C32   H41   1.082633 S    
C15   C16   1.518122 S    
Ba1   O16   2.867708 S    
C14   H28   1.111444 S    
C45   O29   1.215832 D    
C31   C38   1.399383 A    
Ba2   O21   2.898302 S    
C18   C23   1.440492 A    
C14   Br3   1.942430 S    
C22   C30   1.416881 A    
C6    H12   1.105614 S    
C3    C43   1.498733 S    
C36   C37   1.442031 A    
C8    H17   1.110585 S    
P2    O7    1.522917 D    
O19   C13   1.404429 S    
C24   C25   1.425463 A    
C7    H14   1.106754 S    
C11   Br2   1.924462 S    
C1    C10   1.533756 S    
C17   C25   1.416120 A    
C26   C27   1.396690 A    
C15   O24   1.402499 S    
C42   O26   1.220318 D    
C21   H35   1.083993 S    
C27   H37   1.082417 S    
C21   C22   1.403403 A    
P4    Ba2   3.403559 S    
P8    O24   1.740076 S    
P2    C35   1.853065 S    
O1    Ba1   2.838736 S    
Ba1   Ba2   4.617548 S    
C22   C23   1.422089 A    
C41   H42   1.082651 S    
C15   H30   1.110267 S    
O6    C10   1.395739 S    
C44   H45   1.084968 S    
O10   C8    1.396800 S    
C43   H44   1.079611 S    
