data_mof_unit_42059.cif
_audit_creation_date              2012-12-11T14:05:42-0500
_audit_creation_method            fapswitch 2.2
_symmetry_space_group_name_H-M    P1
_symmetry_Int_Tables_number       1
_space_group_crystal_system       triclinic
_cell_length_a                    17.867942
_cell_length_b                    17.899663
_cell_length_c                    17.868662
_cell_angle_alpha                 90.017453
_cell_angle_beta                  89.843791
_cell_angle_gamma                 91.457744
_cell_volume                      5713.06569438

loop_
_atom_site_label
_atom_site_type_symbol
_atom_type_description
_atom_site_fract_x
_atom_site_fract_y
_atom_site_fract_z
_atom_type_partial_charge
C1    C     C_R   0.717499 0.807662 0.200337 -0.347280
C2    C     C_R   0.306320 0.787097 0.207425 -0.327436
C3    C     C_R   0.900035 0.815554 0.611974 0.462952
C4    C     C_R   0.089444 0.373076 0.821621 0.470834
C5    C     C_R   0.914241 0.631227 0.176209 0.549274
C6    C     C_R   0.088302 0.824080 0.630037 0.491464
C7    C     C_R   0.901714 0.182621 0.387654 0.537519
C8    C     C_R   0.815776 0.900979 0.613719 0.452235
C9    C     C_R   0.183677 0.099543 0.385349 0.461979
C10   C     C_R   0.634752 0.915324 0.173450 0.492371
C11   C     C_R   0.374371 0.089565 0.821355 0.441572
C12   C     C_R   0.178656 0.907242 0.375201 0.511645
C13   C     C_R   0.203992 0.296455 0.791975 -0.325596
C14   C     C_R   0.827977 0.084416 0.636353 0.482136
C15   C     C_R   0.398857 0.895828 0.815331 0.557915
C16   C     C_R   0.599506 0.101866 0.185966 0.516493
C17   C     C_R   0.183261 0.097335 0.616349 0.428986
C18   C     C_R   0.817164 0.901654 0.383600 0.432941
C19   C     C_R   0.368479 0.086180 0.176029 0.462136
C20   C     C_R   0.627197 0.911550 0.821557 0.479221
C21   C     C_R   0.815751 0.095377 0.388414 0.508948
C22   C     C_R   0.179119 0.907725 0.622763 0.530212
C23   C     C_R   0.602116 0.105051 0.816106 0.550200
C24   C     C_R   0.805988 0.711538 0.203211 -0.339259
C25   C     C_R   0.394800 0.898029 0.184716 0.567881
C26   C     C_R   0.312682 0.785631 0.784668 -0.298017
C27   C     C_R   0.684535 0.213741 0.214795 -0.321195
C28   C     C_R   0.799495 0.706612 0.792729 -0.331179
C29   C     C_R   0.195169 0.289624 0.205802 -0.355686
C30   C     C_R   0.225383 0.224060 0.679113 -0.186034
C31   C     C_R   0.777231 0.776959 0.317574 -0.175199
C32   C     C_R   0.200834 0.794297 0.291600 -0.252402
C33   C     C_R   0.298909 0.203901 0.791171 -0.337709
C34   C     C_R   0.815558 0.185249 0.734329 -0.214696
C35   C     C_R   0.786619 0.208995 0.306501 -0.279815
C36   C     C_R   0.198217 0.803413 0.715766 -0.244956
C37   C     C_R   0.775485 0.775482 0.678569 -0.172620
C38   C     C_R   0.223965 0.224646 0.320520 -0.140885
C39   C     C_R   0.649573 0.840664 0.834537 -0.071258
C40   C     C_R   0.339751 0.153855 0.159605 -0.063392
C41   C     C_R   0.175147 0.633118 0.834368 -0.044068
C42   C     C_R   0.832892 0.359005 0.166013 -0.131362
C43   C     C_R   0.352766 0.160902 0.834106 -0.058042
C44   C     C_R   0.217401 0.681705 0.216931 -0.317312
C45   C     C_R   0.663271 0.847756 0.156438 -0.063689
C46   C     C_R   0.825991 0.369874 0.830460 -0.014833
C47   C     C_R   0.176966 0.621675 0.173110 -0.069553
C48   C     C_R   0.621926 0.174618 0.173877 -0.074061
C49   C     C_R   0.370584 0.825103 0.830138 -0.058624
C50   C     C_R   0.155566 0.344856 0.162543 -0.041911
C51   C     C_R   0.842668 0.653784 0.836730 -0.077640
C52   C     C_R   0.368726 0.827106 0.168966 -0.047198
C53   C     C_R   0.632884 0.174152 0.833171 -0.041206
C54   C     C_R   0.843901 0.653929 0.162494 -0.055515
C55   C     C_R   0.793932 0.303147 0.793653 -0.342544
C56   C     C_R   0.160282 0.349675 0.835527 -0.070585
C57   C     C_R   0.856294 0.144302 0.677206 -0.137500
C58   C     C_R   0.157093 0.839631 0.344111 -0.129712
C59   C     C_R   0.830136 0.829194 0.359514 -0.216423
C60   C     C_R   0.171644 0.170284 0.639241 -0.222605
C61   C     C_R   0.169569 0.170535 0.358625 -0.270829
C62   C     C_R   0.828916 0.829296 0.638674 -0.244732
C63   C     C_R   0.154002 0.846973 0.663702 -0.130789
C64   C     C_R   0.832795 0.163562 0.357767 -0.136441
C65   C     C_R   0.769962 0.766023 0.163148 0.699849
C66   C     C_R   0.285758 0.194601 0.204003 -0.339581
C67   C     C_R   0.250103 0.248588 0.830838 0.681644
C68   C     C_R   0.287661 0.711143 0.194334 0.785547
C69   C     C_R   0.717526 0.281876 0.799399 0.849524
C70   C     C_R   0.232737 0.235329 0.166422 0.681844
C71   C     C_R   0.753735 0.755137 0.831356 0.688101
C72   C     C_R   0.722341 0.273751 0.180552 0.724172
C73   C     C_R   0.287767 0.711436 0.798975 0.825414
C74   C     C_R   0.165981 0.743362 0.753784 0.707715
C75   C     C_R   0.821063 0.270699 0.271544 0.697567
C76   C     C_R   0.196479 0.287472 0.714060 0.760074
C77   C     C_R   0.703873 0.798181 0.791627 -0.334496
C78   C     C_R   0.806992 0.714651 0.281617 0.776935
C79   C     C_R   0.194795 0.287056 0.284585 0.774066
C80   C     C_R   0.805695 0.713431 0.714484 0.758344
C81   C     C_R   0.178248 0.721634 0.271552 0.733668
C82   C     C_R   0.843362 0.251685 0.763376 0.679386
C83   C     C_R   0.750086 0.156669 0.764827 0.690477
C84   C     C_R   0.257719 0.829081 0.250363 0.678346
C85   C     C_R   0.716484 0.182795 0.279461 0.737188
C86   C     C_R   0.267582 0.829977 0.739802 0.687790
C87   C     C_R   0.284924 0.194165 0.282798 0.757863
C88   C     C_R   0.788306 0.304648 0.210235 -0.271571
C89   C     C_R   0.711809 0.804044 0.713510 0.768000
C90   C     C_R   0.289502 0.196097 0.713336 0.773027
C91   C     C_R   0.717385 0.808591 0.279022 0.764343
C92   C     C_R   0.615547 0.819007 0.900798 0.546066
C93   C     C_R   0.372413 0.175919 0.092703 0.520660
C94   C     C_R   0.180052 0.626651 0.910628 0.531298
C95   C     C_R   0.815971 0.387311 0.097760 0.544563
C96   C     C_R   0.385771 0.181579 0.901065 0.543962
C97   C     C_R   0.629357 0.825203 0.090774 0.530656
C98   C     C_R   0.815838 0.384721 0.904594 0.402977
C99   C     C_R   0.211290 0.693471 0.790898 -0.304872
C100  C     C_R   0.186208 0.607648 0.097524 0.456363
C101  C     C_R   0.603753 0.185767 0.099759 0.552518
C102  C     C_R   0.383148 0.816248 0.904891 0.412172
C103  C     C_R   0.177995 0.376960 0.095496 0.531439
C104  C     C_R   0.820403 0.619839 0.902861 0.543007
C105  C     C_R   0.392936 0.813819 0.098432 0.459693
C106  C     C_R   0.622993 0.181521 0.908803 0.510653
C107  C     C_R   0.822017 0.622335 0.095885 0.528986
C108  C     C_R   0.180778 0.382535 0.902698 0.529115
C109  C     C_R   0.912744 0.628919 0.822586 0.481112
C110  C     C_R   0.697956 0.205600 0.793728 -0.315921
C111  C     C_R   0.086885 0.371613 0.177428 0.413385
C112  C     C_R   0.915573 0.172587 0.635376 0.484801
C113  C     C_R   0.094498 0.818045 0.383648 0.548036
C114  C     C_R   0.899991 0.391764 0.184045 0.561051
C115  C     C_R   0.106150 0.601836 0.816511 0.546104
C116  C     C_R   0.903279 0.817328 0.382207 0.451005
C117  C     C_R   0.099966 0.183888 0.613365 0.448602
C118  C     C_R   0.103000 0.599454 0.185369 0.549776
C119  C     C_R   0.896819 0.397475 0.815283 0.556737
C120  C     C_R   0.097034 0.182691 0.382354 0.433892
Cl1   Cl    Cl    0.571288 0.730199 0.902502 -0.304021
Cl2   Cl    Cl    0.385861 0.728701 0.946559 -0.296260
Cl3   Cl    Cl    0.271718 0.402227 0.081854 -0.305829
Cl4   Cl    Cl    0.727575 0.586349 0.909747 -0.294760
Cl5   Cl    Cl    0.454530 0.739377 0.095243 -0.302108
Cl6   Cl    Cl    0.695076 0.222384 0.963139 -0.548621
Cl7   Cl    Cl    0.728490 0.605795 0.075775 -0.291144
Cl8   Cl    Cl    0.272132 0.419276 0.912933 -0.313901
Cl9   Cl    Cl    0.962319 0.644184 0.739913 -0.332536
Cl10  Cl    Cl    0.040881 0.362954 0.262336 -0.341693
Cl11  Cl    Cl    0.920167 0.268349 0.613698 -0.305082
Cl12  Cl    Cl    0.382368 0.269340 0.067212 -0.303350
Cl13  Cl    Cl    0.102919 0.738467 0.440539 -0.296719
Cl14  Cl    Cl    0.899759 0.452232 0.262337 -0.305751
Cl15  Cl    Cl    0.099107 0.546934 0.735003 -0.319080
Cl16  Cl    Cl    0.940434 0.729176 0.393918 -0.263301
Cl17  Cl    Cl    0.082067 0.271556 0.576405 -0.250226
Cl18  Cl    Cl    0.077209 0.548769 0.266342 -0.263694
Cl19  Cl    Cl    0.905427 0.455356 0.735960 -0.314006
Cl20  Cl    Cl    0.068302 0.271487 0.404830 -0.268582
Cl21  Cl    Cl    0.911931 0.730297 0.566572 -0.261298
Cl22  Cl    Cl    0.041923 0.359556 0.737736 -0.324914
Cl23  Cl    Cl    0.204491 0.708496 0.961219 -0.618969
Cl24  Cl    Cl    0.976514 0.692213 0.222110 -0.535824
Cl25  Cl    Cl    0.071322 0.729065 0.611215 -0.292748
Cl26  Cl    Cl    0.904777 0.266417 0.438920 -0.273271
Cl27  Cl    Cl    0.728486 0.918194 0.575248 -0.252647
Cl28  Cl    Cl    0.272241 0.083632 0.421299 -0.256343
Cl29  Cl    Cl    0.671375 0.972490 0.243745 -0.467263
Cl30  Cl    Cl    0.361891 0.041227 0.738604 -0.328455
Cl31  Cl    Cl    0.272550 0.919695 0.401754 -0.283727
Cl32  Cl    Cl    0.731508 0.077718 0.618189 -0.304587
Cl33  Cl    Cl    0.456968 0.904693 0.735854 -0.297390
Cl34  Cl    Cl    0.734562 0.439789 0.098742 -0.307638
Cl35  Cl    Cl    0.540345 0.082750 0.263161 -0.267854
Cl36  Cl    Cl    0.271597 0.067285 0.592761 -0.261070
Cl37  Cl    Cl    0.727680 0.931347 0.403819 -0.254780
Cl38  Cl    Cl    0.351895 0.038518 0.259593 -0.348517
Cl39  Cl    Cl    0.641865 0.960252 0.738478 -0.326218
Cl40  Cl    Cl    0.736126 0.092584 0.445994 -0.268199
Cl41  Cl    Cl    0.266426 0.900488 0.577611 -0.298289
Cl42  Cl    Cl    0.546525 0.097900 0.735230 -0.308989
Cl43  Cl    Cl    0.452376 0.905819 0.264460 -0.301197
Cl44  Cl    Cl    0.431173 0.269731 0.905347 -0.322233
Cl45  Cl    Cl    0.623078 0.733221 0.061782 -0.290042
Cl46  Cl    Cl    0.726974 0.405516 0.937196 -0.255582
Cl47  Cl    Cl    0.270938 0.579119 0.057702 -0.283623
Cl48  Cl    Cl    0.559819 0.267873 0.070957 -0.295087
F1    F     F_    0.780965 0.773736 0.088105 -0.622004
F2    F     F_    0.892944 0.289293 0.287904 -0.613531
F3    F     F_    0.178690 0.346947 0.671412 -0.499388
F4    F     F_    0.829093 0.654700 0.321506 -0.514165
F5    F     F_    0.181230 0.349283 0.325209 -0.501497
F6    F     F_    0.826391 0.654171 0.672860 -0.501615
F7    F     F_    0.113339 0.693726 0.298684 -0.560554
F8    F     F_    0.918582 0.260322 0.770418 -0.657661
F9    F     F_    0.742724 0.081699 0.774441 -0.654338
F10   F     F_    0.259779 0.904655 0.245075 -0.656427
F11   F     F_    0.683846 0.121651 0.310012 -0.550476
F12   F     F_    0.248846 0.246825 0.907001 -0.621103
F13   F     F_    0.283522 0.903589 0.731002 -0.627260
F14   F     F_    0.348093 0.179644 0.321480 -0.505702
F15   F     F_    0.652353 0.822783 0.671231 -0.500900
F16   F     F_    0.348588 0.177722 0.669993 -0.495151
F17   F     F_    0.654836 0.828164 0.316646 -0.506403
F18   F     F_    0.337437 0.665924 0.162170 -0.518578
F19   F     F_    0.664517 0.331339 0.818307 -0.529201
F20   F     F_    0.222665 0.226989 0.091342 -0.630527
F21   F     F_    0.755743 0.758446 0.907463 -0.618187
F22   F     F_    0.702726 0.293491 0.111021 -0.584357
F23   F     F_    0.334614 0.658660 0.823961 -0.527051
F24   F     F_    0.090821 0.741103 0.764697 -0.648597
N1    N     N_R   0.584840 0.879720 0.932190 -0.164533
N2    N     N_R   0.415160 0.879720 0.932190 -0.155313
N3    N     N_R   0.120280 0.415160 0.067810 -0.163055
N4    N     N_R   0.879720 0.584840 0.932190 -0.161095
N5    N     N_R   0.415160 0.879720 0.067810 -0.158720
N6    N     N_R   0.584840 0.120280 0.932190 -0.153521
N7    N     N_R   0.879720 0.584840 0.067810 -0.157768
N8    N     N_R   0.120280 0.415160 0.932190 -0.166978
N9    N     N_R   0.932190 0.584840 0.879720 -0.151428
N10   N     N_R   0.067810 0.415160 0.120280 -0.154526
N11   N     N_R   0.932190 0.120280 0.584840 -0.146743
N12   N     N_R   0.415160 0.120280 0.067810 -0.163280
N13   N     N_R   0.067810 0.879720 0.415160 -0.166175
N14   N     N_R   0.932190 0.415160 0.120280 -0.171108
N15   N     N_R   0.067810 0.584840 0.879720 -0.146959
N16   N     N_R   0.932190 0.879720 0.415160 -0.149069
N17   N     N_R   0.067810 0.120280 0.584840 -0.152569
N18   N     N_R   0.067810 0.584840 0.120280 -0.151232
N19   N     N_R   0.932190 0.415160 0.879720 -0.155165
N20   N     N_R   0.067810 0.120280 0.415160 -0.143238
N21   N     N_R   0.932190 0.879720 0.584840 -0.153102
N22   N     N_R   0.067810 0.415160 0.879720 -0.154049
N23   N     N_R   0.120280 0.584840 0.932190 -0.149580
N24   N     N_R   0.932190 0.584840 0.120280 -0.151501
N25   N     N_R   0.067810 0.879720 0.584840 -0.153739
N26   N     N_R   0.932190 0.120280 0.415160 -0.165813
N27   N     N_R   0.879720 0.932190 0.584840 -0.153277
N28   N     N_R   0.120280 0.067810 0.415160 -0.146815
N29   N     N_R   0.584840 0.932190 0.120280 -0.146277
N30   N     N_R   0.415160 0.067810 0.879720 -0.153338
N31   N     N_R   0.120280 0.932190 0.415160 -0.159727
N32   N     N_R   0.879720 0.067810 0.584840 -0.144510
N33   N     N_R   0.415160 0.932190 0.879720 -0.160885
N34   N     N_R   0.879720 0.415160 0.067810 -0.169502
N35   N     N_R   0.584840 0.067810 0.120280 -0.164325
N36   N     N_R   0.120280 0.067810 0.584840 -0.149219
N37   N     N_R   0.879720 0.932190 0.415160 -0.147084
N38   N     N_R   0.415160 0.067810 0.120280 -0.153181
N39   N     N_R   0.584840 0.932190 0.879720 -0.153668
N40   N     N_R   0.879720 0.067810 0.415160 -0.166369
N41   N     N_R   0.120280 0.932190 0.584840 -0.160665
N42   N     N_R   0.584840 0.067810 0.879720 -0.150293
N43   N     N_R   0.415160 0.932190 0.120280 -0.160711
N44   N     N_R   0.415160 0.120280 0.932190 -0.166752
N45   N     N_R   0.584840 0.879720 0.067810 -0.156780
N46   N     N_R   0.879720 0.415160 0.932190 -0.159215
N47   N     N_R   0.120280 0.584840 0.067810 -0.145140
N48   N     N_R   0.584840 0.120280 0.067810 -0.160436
Ni1   Ni    Ni4+2 0.500000 0.880920 0.000000 0.324940
Ni2   Ni    Ni4+2 0.119080 1.000000 0.500000 0.326191
Ni3   Ni    Ni4+2 0.500000 1.000000 0.119080 0.331704
Ni4   Ni    Ni4+2 0.500000 1.000000 0.880920 0.328192
Ni5   Ni    Ni4+2 0.500000 0.119080 0.000000 0.311457
Ni6   Ni    Ni4+2 0.119080 0.500000 0.000000 0.312792
Ni7   Ni    Ni4+2 0.880920 0.500000 0.000000 0.322551
Ni8   Ni    Ni4+2 0.000000 0.500000 0.880920 0.331614
Ni9   Ni    Ni4+2 1.000000 0.500000 0.119080 0.327051
Ni10  Ni    Ni4+2 0.000000 0.119080 0.500000 0.329516
Ni11  Ni    Ni4+2 1.000000 0.880920 0.500000 0.325647
Ni12  Ni    Ni4+2 0.880920 1.000000 0.500000 0.328671

loop_
_geom_bond_atom_site_label_1
_geom_bond_atom_site_label_2
_ccdc_geom_bond_type
C53   C110  S    
C120  N20   A    
C16   N35   A    
C108  N8    A    
N2    Ni1   S    
C115  N15   A    
C76   F3    S    
C79   F5    S    
C2    C84   A    
C3    Cl21  S    
C32   C58   S    
C40   C93   A    
C30   C90   A    
C103  Cl3   S    
N15   Ni8   S    
C16   C48   A    
C87   F14   S    
C37   C62   S    
N21   N27   A    
N34   Ni7   S    
N3    N10   A    
N33   Ni4   S    
C32   C81   A    
N30   N44   A    
C94   N23   A    
C54   C107  A    
C15   N33   A    
N47   Ni6   S    
C9    C61   A    
C94   Cl23  S    
C89   F15   S    
N2    N33   A    
C14   N32   A    
C25   Cl43  S    
C116  Cl16  S    
C2    C68   A    
C67   F12   S    
C10   Cl29  S    
N35   Ni3   S    
C28   C51   S    
C57   C112  A    
C38   C79   A    
N35   N48   A    
N31   Ni2   S    
C24   C54   S    
C22   N41   A    
C26   C73   A    
C11   N30   A    
C100  N47   A    
C85   F11   S    
C31   C59   S    
C27   C85   A    
N14   Ni9   S    
N5    Ni1   S    
N11   N32   A    
C21   C64   A    
N38   Ni3   S    
C111  Cl10  S    
C10   N29   A    
C22   C63   A    
C23   N42   A    
C53   C106  A    
C42   C114  A    
C47   C118  A    
C56   C108  A    
C41   C94   A    
C8    C62   A    
C59   C116  A    
C20   Cl39  S    
C30   C60   S    
N46   Ni7   S    
N14   N34   A    
C34   C57   S    
N8    N22   A    
C41   C99   S    
C11   C43   A    
C35   C64   S    
N40   Ni12  S    
N17   N36   A    
C33   C90   A    
C36   C63   S    
C69   F19   S    
N18   Ni9   S    
C118  Cl18  S    
N12   Ni5   S    
C44   C47   S    
C70   F20   S    
N17   Ni10  S    
C106  N6    A    
C23   Cl42  S    
C12   C58   A    
C105  N5    A    
C46   C98   A    
C68   F18   S    
C50   C103  A    
C51   C109  A    
C20   N39   A    
C40   C66   S    
C4    C56   A    
C101  N48   A    
N26   Ni10  S    
C12   Cl31  S    
C21   N40   A    
C103  N3    A    
C41   C115  A    
C102  N2    A    
C111  N10   A    
C72   F22   S    
C72   C88   A    
N43   Ni3   S    
C14   Cl32  S    
C23   C53   A    
C29   C50   S    
N5    N43   A    
C32   C84   A    
C37   C80   A    
C83   C110  A    
C4    N22   A    
C75   C88   A    
C83   F9    S    
C42   C95   A    
C33   C43   S    
C5    C54   A    
C13   C67   A    
C44   C81   A    
N6    N42   A    
C26   C49   S    
N25   N41   A    
C49   C102  A    
C22   Cl41  S    
N30   Ni4   S    
N24   Ni9   S    
C5    Cl24  S    
N20   N28   A    
C36   C86   A    
C51   C104  A    
C5    N24   A    
N28   Ni2   S    
C17   N36   A    
N13   N31   A    
C108  Cl8   S    
C47   C100  A    
C96   Cl44  S    
N29   N45   A    
N16   Ni11  S    
C113  N13   A    
N19   Ni8   S    
C46   C55   S    
C101  Cl48  S    
C7    Cl26  S    
C105  Cl5   S    
C12   N31   A    
N13   Ni11  S    
C58   C113  A    
C6    N25   A    
C30   C76   A    
C69   C110  A    
N41   Ni2   S    
C11   Cl30  S    
C1    C65   A    
N7    N24   A    
C29   C79   A    
C86   F13   S    
C26   C86   A    
C4    Cl22  S    
C77   C89   A    
C8    N27   A    
C16   Cl35  S    
N15   N23   A    
C43   C96   A    
C104  N4    A    
N19   N46   A    
N36   Ni2   S    
C60   C117  A    
C98   Cl46  S    
N3    Ni6   S    
C71   F21   S    
C55   C82   A    
C84   F10   S    
C61   C120  A    
C93   N12   A    
N26   N40   A    
C55   C69   A    
C75   F2    S    
C36   C74   A    
C24   C65   A    
C78   F4    S    
C120  Cl20  S    
C9    N28   A    
C24   C78   A    
C82   F8    S    
C52   C105  A    
C92   N1    A    
C31   C91   A    
N27   Ni12  S    
C100  Cl47  S    
N4    Ni7   S    
C109  Cl9   S    
N48   Ni5   S    
C21   Cl40  S    
C74   F24   S    
C44   C68   A    
C8    Cl27  S    
C42   C88   S    
C34   C83   A    
N1    N39   A    
N20   Ni10  S    
C93   Cl12  S    
C39   C77   S    
C39   C92   A    
C71   C77   A    
C96   N44   A    
C31   C78   A    
C29   C70   A    
N29   Ni3   S    
C3    C62   A    
C73   C99   A    
C14   C57   A    
C106  Cl6   S    
C25   N43   A    
C34   C82   A    
C19   Cl38  S    
N1    Ni1   S    
N44   Ni5   S    
C117  Cl17  S    
C35   C75   A    
C90   F16   S    
C18   N37   A    
N22   Ni8   S    
C7    N26   A    
C38   C61   S    
C74   C99   A    
C104  Cl4   S    
N7    Ni7   S    
C3    N21   A    
C13   C76   A    
C97   N45   A    
N6    Ni5   S    
C9    Cl28  S    
C119  N19   A    
C2    C52   S    
N45   Ni1   S    
C38   C87   A    
C118  N18   A    
C95   Cl34  S    
C119  Cl19  S    
N18   N47   A    
C13   C56   S    
C117  N17   A    
N39   Ni4   S    
C20   C39   A    
C25   C52   A    
C107  Cl7   S    
C33   C67   A    
C45   C97   A    
C92   Cl1   S    
N9    Ni8   S    
C107  N7    A    
C35   C85   A    
C1    C45   S    
C15   Cl33  S    
C66   C70   A    
N11   Ni10  S    
C115  Cl15  S    
C66   C87   A    
C97   Cl45  S    
C48   C101  A    
C109  N9    A    
C50   C111  A    
C114  Cl14  S    
C37   C89   A    
C46   C119  A    
N21   Ni11  S    
C15   C49   A    
C27   C48   S    
N12   N38   A    
C28   C80   A    
C19   N38   A    
C7    C64   A    
C95   N34   A    
N37   Ni12  S    
N8    Ni6   S    
C19   C40   A    
N32   Ni12  S    
C17   C60   A    
C80   F6    S    
C28   C71   A    
C114  N14   A    
C18   C59   A    
N10   Ni9   S    
C112  Cl11  S    
C116  N16   A    
N23   Ni6   S    
C1    C91   A    
C6    Cl25  S    
C10   C45   A    
C65   F1    S    
C18   Cl37  S    
C6    C63   A    
C98   N46   A    
C113  Cl13  S    
N25   Ni11  S    
C112  N11   A    
C91   F17   S    
N4    N9    A    
C102  Cl2   S    
C17   Cl36  S    
C81   F7    S    
C27   C72   A    
N16   N37   A    
N42   Ni4   S    
C73   F23   S    
