data_mof_unit_46600.cif
_audit_creation_date              2012-12-10T18:37:10-0500
_audit_creation_method            fapswitch 2.2
_symmetry_space_group_name_H-M    P1
_symmetry_Int_Tables_number       1
_space_group_crystal_system       triclinic
_cell_length_a                    15.00331
_cell_length_b                    15.554556
_cell_length_c                    23.344601
_cell_angle_alpha                 87.823799
_cell_angle_beta                  104.893889
_cell_angle_gamma                 82.186491
_cell_volume                      5200.86556713

loop_
_atom_site_label
_atom_site_type_symbol
_atom_type_description
_atom_site_fract_x
_atom_site_fract_y
_atom_site_fract_z
_atom_type_partial_charge
C1    C     C_R   0.441377 0.661887 0.491303 0.869319
C2    C     C_R   0.506517 0.403755 0.305578 0.383420
C3    C     C_R   0.493226 0.603855 0.754187 0.184995
C4    C     C_R   0.506914 0.396264 0.245796 0.185037
C5    C     C_R   0.495945 0.528501 0.790284 0.197335
C6    C     C_R   0.503914 0.471681 0.209682 0.197336
C7    C     C_R   0.405566 0.753946 0.491066 -0.110500
C8    C     C_R   0.594439 0.246052 0.508955 -0.110516
C9    C     C_R   0.304556 0.867629 0.522287 0.218876
C10   C     C_R   0.695473 0.132346 0.477776 0.218878
C11   C     C_R   0.331221 0.779569 0.515566 -0.233278
C12   C     C_R   0.558623 0.338114 0.508698 0.869360
C13   C     C_R   0.668790 0.220414 0.484464 -0.233152
C14   C     C_R   0.452845 0.816364 0.472251 0.130838
C15   C     C_R   0.547177 0.183643 0.527798 0.130793
C16   C     C_R   0.500047 0.502322 0.610247 0.879009
C17   C     C_R   0.499953 0.497674 0.389755 0.878987
C18   C     C_R   0.442893 0.899974 0.492721 0.045901
C19   C     C_R   0.557144 0.100014 0.507360 0.045883
C20   C     C_R   0.361289 0.928669 0.511109 0.111279
C21   C     C_R   0.638750 0.071309 0.488975 0.111256
C22   C     C_R   0.510944 0.955831 0.495058 0.087438
C23   C     C_R   0.499669 0.447011 0.767649 -0.152191
C24   C     C_R   0.489100 0.044152 0.505041 0.087441
C25   C     C_R   0.398256 0.075018 0.509286 -0.223908
C26   C     C_R   0.601791 0.924960 0.490821 -0.223880
C27   C     C_R   0.337893 0.017719 0.516248 -0.223039
C28   C     C_R   0.662155 0.982254 0.483856 -0.223037
C29   C     C_R   0.851787 0.619625 0.597627 0.081343
C30   C     C_R   0.148212 0.380372 0.402376 0.081369
C31   C     C_R   0.760925 0.599189 0.581920 0.551167
C32   C     C_R   0.239072 0.400810 0.418080 0.551218
C33   C     C_R   0.791920 0.519296 0.502751 -0.155751
C34   C     C_R   0.499948 0.553171 0.232310 -0.152138
C35   C     C_R   0.208083 0.480701 0.497252 -0.155782
C36   C     C_R   0.887385 0.528390 0.521169 -0.032352
C37   C     C_R   0.112618 0.471604 0.478836 -0.032346
C38   C     C_R   0.913833 0.587712 0.564535 0.016635
C39   C     C_R   0.086168 0.412282 0.435470 0.016626
C40   C     C_R   0.587016 0.463613 0.134298 0.517874
C41   C     C_R   0.412845 0.536655 0.865666 0.517876
C42   C     C_R   0.956236 0.484134 0.496065 0.050413
C43   C     C_R   0.043768 0.515859 0.503943 0.050415
C44   C     C_R   0.057896 0.591168 0.535941 0.191967
C45   C     C_R   0.501377 0.438008 0.709010 0.124234
C46   C     C_R   0.942108 0.408824 0.464069 0.191955
C47   C     C_R   0.999035 0.618409 0.571125 -0.186958
C48   C     C_R   0.000968 0.381583 0.428884 -0.186959
C49   C     C_R   0.420547 0.481256 0.106801 0.524539
C50   C     C_R   0.579315 0.518992 0.893161 0.524540
C51   C     C_R   0.417588 0.493912 0.046813 -0.062064
C52   C     C_R   0.582272 0.506367 0.953152 -0.062064
C53   C     C_R   0.501635 0.492420 0.030271 -0.056276
C54   C     C_R   0.498225 0.507867 0.969694 -0.056277
C55   C     C_R   0.588720 0.475867 0.074244 -0.033581
C56   C     C_R   0.498294 0.562105 0.290964 0.124303
C57   C     C_R   0.411139 0.524420 0.925722 -0.033586
C58   C     C_R   0.331923 0.510406 0.003729 -0.149569
C59   C     C_R   0.667937 0.489887 0.996236 -0.149567
C60   C     C_R   0.326984 0.525959 0.943572 0.168326
C61   C     C_R   0.672875 0.474340 0.056394 0.168321
C62   C     C_3   0.219936 0.893738 0.544851 -0.915921
C63   C     C_3   0.780099 0.106223 0.455220 -0.915854
C64   C     C_3   0.881346 0.675690 0.648892 -0.832759
C65   C     C_3   0.118649 0.324309 0.351111 -0.832765
C66   C     C_3   0.124052 0.652891 0.527725 -0.951565
C67   C     C_R   0.498253 0.512479 0.671898 -0.185666
C68   C     C_3   0.875953 0.347101 0.472286 -0.951547
C69   C     C_3   0.230821 0.543669 0.900769 -0.770262
C70   C     C_3   0.769038 0.456643 0.099197 -0.770247
C71   C     C_3   0.510611 0.348403 0.687495 -0.872671
C72   C     C_3   0.488870 0.651688 0.312494 -0.872785
C73   C     C_3   0.489005 0.692633 0.778169 -0.717847
C74   C     C_3   0.511374 0.307489 0.221817 -0.717867
C75   C     C_3   0.506857 0.201097 0.580057 -0.920654
C76   C     C_3   0.493175 0.798950 0.419991 -0.920743
C77   C     C_R   0.501711 0.487574 0.328094 -0.185543
C78   C     C_R   0.493663 0.596302 0.694417 0.383517
H1    H     H_    0.267742 0.511702 0.017100 0.193432
H2    H     H_    0.496996 0.610058 0.203185 0.153803
H3    H     H_    0.272261 0.044215 0.524533 0.164321
H4    H     H_    0.727789 0.955754 0.475576 0.164322
H5    H     H_    0.705833 0.269087 0.470747 0.171408
H6    H     H_    0.294170 0.730890 0.529266 0.171386
H7    H     H_    0.187211 0.836670 0.553956 0.243946
H8    H     H_    0.240271 0.925890 0.586931 0.247631
H9    H     H_    0.166996 0.939095 0.511130 0.237455
H10   H     H_    0.812818 0.163287 0.446099 0.243947
H11   H     H_    0.833041 0.060887 0.488955 0.237435
H12   H     H_    0.732117 0.488592 0.982865 0.193431
H13   H     H_    0.759775 0.074042 0.413152 0.247641
H14   H     H_    0.357891 0.348870 0.410287 0.370758
H15   H     H_    0.642115 0.651152 0.589707 0.370782
H16   H     H_    0.828290 0.689630 0.674061 0.292027
H17   H     H_    0.946061 0.642040 0.680865 0.240099
H18   H     H_    0.894080 0.739235 0.631840 0.219888
H19   H     H_    0.171702 0.310372 0.325939 0.292018
H20   H     H_    0.105920 0.260762 0.368163 0.219889
H21   H     H_    0.053932 0.357958 0.319140 0.240094
H22   H     H_    0.088195 0.721155 0.523100 0.242898
H23   H     H_    0.373352 0.143612 0.508566 0.176473
H24   H     H_    0.185321 0.645736 0.567112 0.241027
H25   H     H_    0.146093 0.644258 0.486207 0.257932
H26   H     H_    0.911812 0.278838 0.476914 0.242893
H27   H     H_    0.853910 0.355737 0.513803 0.257925
H28   H     H_    0.814685 0.354253 0.432899 0.241060
H29   H     H_    0.174616 0.543357 0.923801 0.209947
H30   H     H_    0.219827 0.608975 0.876958 0.264895
H31   H     H_    0.222262 0.492437 0.868799 0.267401
H32   H     H_    0.825243 0.456970 0.076167 0.209947
H33   H     H_    0.777585 0.507873 0.131170 0.267406
H34   H     H_    0.626689 0.856364 0.491543 0.176477
H35   H     H_    0.780044 0.391334 0.123007 0.264893
H36   H     H_    0.576271 0.336714 0.673553 0.236939
H37   H     H_    0.513770 0.297083 0.722683 0.241687
H38   H     H_    0.449834 0.343365 0.649607 0.253529
H39   H     H_    0.423325 0.663164 0.326585 0.236995
H40   H     H_    0.549738 0.656850 0.350291 0.253461
H41   H     H_    0.485383 0.703071 0.277274 0.241711
H42   H     H_    0.479173 0.660196 0.617733 0.321333
H43   H     H_    0.521066 0.339821 0.382261 0.321321
H44   H     H_    0.424346 0.735044 0.752466 0.244759
H45   H     H_    0.016301 0.670856 0.599157 0.169372
H46   H     H_    0.488970 0.690467 0.825690 0.212145
H47   H     H_    0.550389 0.722314 0.773744 0.255694
H48   H     H_    0.511321 0.309710 0.174281 0.212140
H49   H     H_    0.576163 0.265225 0.247485 0.244841
H50   H     H_    0.450133 0.277610 0.226292 0.255612
H51   H     H_    0.441266 0.248116 0.566847 0.254256
H52   H     H_    0.494301 0.140782 0.601647 0.253669
H53   H     H_    0.559283 0.227287 0.614561 0.243028
H54   H     H_    0.505752 0.859277 0.398428 0.253679
H55   H     H_    0.558757 0.751917 0.433190 0.254271
H56   H     H_    0.983703 0.329135 0.400852 0.169370
H57   H     H_    0.440745 0.772797 0.385468 0.243087
H58   H     H_    0.235818 0.513864 0.536039 0.188163
H59   H     H_    0.764186 0.486130 0.463964 0.188163
H60   H     H_    0.502422 0.390172 0.796765 0.153798
N1    N     N_R   0.504005 0.468126 0.148710 -0.340796
N2    N     N_R   0.495856 0.532113 0.851252 -0.340790
N3    N     N_R   0.731690 0.552740 0.533440 -0.166998
N4    N     N_R   0.268310 0.447260 0.466560 -0.167002
O1    O     O_R   0.383120 0.605620 0.483150 -0.609977
O2    O     O_2   0.333303 0.551295 0.821463 -0.566156
O3    O     O_2   0.340591 0.483880 0.123588 -0.549436
O4    O     O_2   0.659270 0.516341 0.876373 -0.549445
O5    O     O_3   0.297249 0.373589 0.383398 -0.743811
O6    O     O_3   0.702745 0.626410 0.616600 -0.743658
O7    O     O_3   0.488885 0.672090 0.659940 -0.753631
O8    O     O_3   0.511539 0.327916 0.340066 -0.753760
O9    O     O_R   0.616880 0.394380 0.516850 -0.609983
O10   O     O_R   0.531890 0.639510 0.504600 -0.641376
O11   O     O_R   0.468110 0.360490 0.495400 -0.641380
O12   O     O_R   0.425590 0.483070 0.573110 -0.621950
O13   O     O_R   0.574410 0.516930 0.426890 -0.621897
O14   O     O_R   0.574360 0.516970 0.594570 -0.574177
O15   O     O_R   0.425640 0.483030 0.405430 -0.574243
O16   O     O_2   0.666557 0.448981 0.178501 -0.566153
Zn1   Zn    Zn3+2 0.400660 0.477370 0.485670 0.950048
Zn2   Zn    Zn3+2 0.599340 0.522630 0.514330 0.950105

loop_
_geom_bond_atom_site_label_1
_geom_bond_atom_site_label_2
_ccdc_geom_bond_type
C61   C70   S    
C2    O8    S    
C15   C75   S    
O10   Zn2   S    
C34   C56   A    
C8    C13   A    
C23   C45   A    
C63   H10   S    
C45   C71   S    
C14   C18   A    
C23   H60   S    
C36   C42   A    
C10   C63   S    
N4    Zn1   S    
C69   H29   S    
C32   O5    S    
C53   C54   A    
C15   C19   A    
C62   H8    S    
H42   O7    S    
H15   O6    S    
C48   H56   S    
C35   C37   A    
C65   H20   S    
C50   N2    A    
C58   C60   A    
C40   N1    A    
C33   C36   A    
H43   O8    S    
C1    O10   A    
C42   C46   A    
C66   H22   S    
C6    N1    S    
C66   H24   S    
C41   N2    A    
C22   C26   A    
C70   H32   S    
C34   H2    S    
C69   H31   S    
C76   H57   S    
C7    C14   A    
C74   H50   S    
C33   H59   S    
C49   C51   A    
C72   H39   S    
C16   O14   A    
C50   C52   A    
C17   O15   A    
C12   O11   A    
C32   N4    A    
C44   C47   A    
C40   C55   A    
C50   O4    S    
C29   C64   S    
C10   C21   A    
C1    C7    S    
H14   O5    S    
C12   O9    A    
C67   C78   A    
C68   H28   S    
C69   H30   S    
C75   H53   S    
C53   C55   A    
C70   H35   S    
C62   H7    S    
C46   C48   A    
C59   C61   A    
C28   H4    S    
C9    C62   S    
O14   Zn2   S    
N3    Zn2   S    
C24   C25   A    
C64   H18   S    
C41   O2    S    
C4    C6    A    
C51   C58   A    
C57   C60   A    
C33   N3    A    
C56   C77   A    
C6    C34   A    
C71   H36   S    
C51   C53   A    
C59   H12   S    
C14   C76   S    
C29   C38   A    
C7    C11   A    
C43   C44   A    
C46   C68   S    
C1    O1    A    
C52   C59   A    
C9    C20   A    
C47   H45   S    
C74   H49   S    
C5    C23   A    
C27   H3    S    
C8    C12   S    
C73   H46   S    
C63   H11   S    
C17   C77   S    
C38   C47   A    
C71   H37   S    
C16   C67   S    
C9    C11   A    
C65   H21   S    
C44   C66   S    
C58   H1    S    
C31   O6    S    
C31   N3    A    
C21   C28   A    
C8    C15   A    
C49   N1    A    
C16   O12   A    
C22   C24   A    
C37   C43   A    
C68   H27   S    
C63   H13   S    
C17   O13   A    
C26   H34   S    
O11   Zn1   S    
C5    N2    S    
C40   O16   S    
C56   C72   S    
O13   Zn2   S    
C18   C22   A    
C4    C74   S    
C66   H25   S    
C68   H26   S    
C64   H17   S    
C3    C5    A    
C10   C13   A    
C52   C54   A    
C35   H58   S    
O15   Zn1   S    
C76   H55   S    
C75   H52   S    
O1    Zn1   S    
C45   C67   A    
C20   C27   A    
C11   H6    S    
C25   C27   A    
C62   H9    S    
C13   H5    S    
C26   C28   A    
O9    Zn2   S    
C36   C38   A    
C19   C24   A    
C41   C57   A    
O12   Zn1   S    
C29   C31   A    
C2    C77   A    
C30   C32   A    
C76   H54   S    
C25   H23   S    
C74   H48   S    
C60   C69   S    
C73   H47   S    
C2    C4    A    
C55   C61   A    
C72   H41   S    
C30   C39   A    
C18   C20   A    
C3    C73   S    
C71   H38   S    
C30   C65   S    
C70   H33   S    
C35   N4    A    
C64   H16   S    
C75   H51   S    
C65   H19   S    
C37   C39   A    
C73   H44   S    
C42   C43   A    
C72   H40   S    
C3    C78   A    
C49   O3    S    
C78   O7    S    
C39   C48   A    
C19   C21   A    
C54   C57   A    
