data_mof_unit_28616.cif
_audit_creation_date              2012-12-10T17:04:31-0500
_audit_creation_method            fapswitch 2.2
_symmetry_space_group_name_H-M    P1
_symmetry_Int_Tables_number       1
_space_group_crystal_system       triclinic
_cell_length_a                    15.004613
_cell_length_b                    10.67212
_cell_length_c                    10.004926
_cell_angle_alpha                 90.354209
_cell_angle_beta                  89.962948
_cell_angle_gamma                 90.056593
_cell_volume                      1602.06738531

loop_
_atom_site_label
_atom_site_type_symbol
_atom_type_description
_atom_site_fract_x
_atom_site_fract_y
_atom_site_fract_z
_atom_type_partial_charge
C1    C     C_R   0.498201 0.262071 0.499325 0.946027
C2    C     C_R   0.907269 0.501715 0.377132 0.117646
C3    C     C_R   0.953478 0.533180 0.742564 -0.223374
C4    C     C_R   0.046094 0.532247 0.742655 -0.217399
C5    C     C_R   0.092588 0.520742 0.621809 0.118799
C6    C     C_R   0.046271 0.511751 0.499445 0.060416
C7    C     C_R   0.092654 0.500509 0.377256 0.118524
C8    C     C_R   0.046300 0.491735 0.256161 -0.217459
C9    C     C_R   0.953724 0.492315 0.256101 -0.219386
C10   C     C_R   0.184776 0.517083 0.621151 -0.258734
C11   C     C_R   0.230593 0.504627 0.499958 -0.077797
C12   C     C_R   0.326561 0.500798 0.500034 0.900998
C13   C     C_R   0.184789 0.497146 0.378434 -0.257257
C14   C     C_2   0.523545 0.932442 0.390029 -0.200417
C15   C     C_2   0.541077 0.864584 0.499672 -0.047523
C16   C     C_2   0.527057 0.067103 0.390947 -0.176208
C17   C     C_2   0.494855 0.128973 0.496554 -0.360448
C18   C     C_2   0.555083 0.566458 0.925243 -0.132865
C19   C     C_2   0.551335 0.572172 0.075480 -0.134365
C20   C     C_R   0.509248 0.736983 0.500329 0.898814
C21   C     C_R   0.673404 0.501171 0.499947 0.871844
C22   C     C_R   0.815138 0.498911 0.378246 -0.259548
C23   C     C_R   0.769269 0.506366 0.499770 -0.076087
C24   C     C_R   0.814926 0.519561 0.620912 -0.268138
C25   C     C_R   0.907107 0.522352 0.621656 0.122223
C26   C     C_R   0.953545 0.512485 0.499374 0.062238
H1    H     H_    0.779370 0.489517 0.284533 0.163164
H2    H     H_    0.549885 0.114718 0.301509 0.179791
H3    H     H_    0.468259 0.080959 0.583437 0.157540
H4    H     H_    0.605558 0.622355 0.875780 0.154659
H5    H     H_    0.449811 0.454094 0.897627 0.160925
H6    H     H_    0.594880 0.638597 0.125685 0.156781
H7    H     H_    0.463493 0.433330 0.101686 0.160466
H8    H     H_    0.778946 0.526888 0.714704 0.161228
H9    H     H_    0.918176 0.541152 0.836790 0.141859
H10   H     H_    0.081292 0.539565 0.836960 0.142386
H11   H     H_    0.220646 0.523787 0.715008 0.161975
H12   H     H_    0.220623 0.487836 0.284718 0.162147
H13   H     H_    0.081575 0.483491 0.161940 0.142037
H14   H     H_    0.918520 0.484427 0.161844 0.142262
H15   H     H_    0.493821 0.890478 0.301375 0.166000
N1    N     N_2   0.500970 0.501330 0.852150 -0.191684
N2    N     N_2   0.500990 0.501360 0.147810 -0.193913
O1    O     O_R   0.499990 0.319060 0.613040 -0.613688
O2    O     O_R   0.500010 0.319100 0.386900 -0.612236
O3    O     O_R   0.367830 0.499950 0.613080 -0.623440
O4    O     O_R   0.367860 0.499990 0.386940 -0.620342
O5    O     O_R   0.499990 0.680900 0.613100 -0.614821
O6    O     O_R   0.500010 0.680940 0.386960 -0.623629
O7    O     O_R   0.632140 0.500010 0.613060 -0.633118
O8    O     O_R   0.632170 0.500050 0.386920 -0.620986
Zn1   Zn    Zn3+2 0.499980 0.499970 0.650990 0.935011
Zn2   Zn    Zn3+2 0.500020 0.500030 0.349010 0.936451
C27   C     C_3   0.598930 0.910693 0.616023 -0.408087
C28   C     C_3   0.683088 0.830158 0.631595 -0.352017
C29   C     C_3   0.744397 0.882103 0.740254 -0.889596
H16   H     H_    0.767167 0.977963 0.714183 0.268481
H17   H     H_    0.709021 0.885024 0.837802 0.257537
H18   H     H_    0.803725 0.820655 0.749903 0.255499
H19   H     H_    0.664584 0.733349 0.659460 0.237860
H20   H     H_    0.720169 0.826751 0.535365 0.226942
H21   H     H_    0.622064 0.008328 0.601434 0.233944
H22   H     H_    0.559200 0.907964 0.709784 0.202088

loop_
_geom_bond_atom_site_label_1
_geom_bond_atom_site_label_2
_ccdc_geom_bond_type
C2    C22   A    
O7    Zn1   S    
C28   C29   S    
C4    H10   S    
C16   H2    S    
C20   O6    A    
C18   H4    S    
H5    N1    S    
C10   H11   S    
C17   H3    S    
C1    O1    A    
C1    C17   S    
C9    H14   S    
C29   H18   S    
C3    H9    S    
C23   C24   A    
O1    Zn1   S    
C21   C23   S    
C6    C26   A    
O2    Zn2   S    
C7    C8    A    
C2    C26   A    
C20   O5    A    
C28   H19   S    
C29   H16   S    
C11   C13   A    
C1    O2    A    
C13   H12   S    
C6    C7    A    
C14   H15   S    
O6    Zn2   S    
O4    Zn2   S    
C28   H20   S    
C5    C10   A    
C21   O7    A    
C8    H13   S    
C29   H17   S    
O5    Zn1   S    
C22   H1    S    
C18   N1    D    
C5    C6    A    
C14   C16   S    
C21   O8    A    
C16   C17   D    
C10   C11   A    
C19   H6    S    
C3    C4    A    
H7    N2    S    
C15   C27   S    
O3    Zn1   S    
C7    C13   A    
C3    C25   A    
C24   C25   A    
C15   C20   S    
C18   C19   S    
C27   H22   S    
N1    Zn1   S    
C27   C28   S    
C8    C9    A    
C27   H21   S    
C25   C26   A    
C14   C15   D    
C2    C9    A    
N2    Zn2   S    
C22   C23   A    
C24   H8    S    
C12   O4    A    
C19   N2    D    
C4    C5    A    
O8    Zn2   S    
C12   O3    A    
C11   C12   S    
