data_mof_unit_38010.cif
_audit_creation_date              2012-12-10T18:04:03-0500
_audit_creation_method            fapswitch 2.2
_symmetry_space_group_name_H-M    P1
_symmetry_Int_Tables_number       1
_space_group_crystal_system       triclinic
_cell_length_a                    10.897938
_cell_length_b                    9.51664
_cell_length_c                    10.948965
_cell_angle_alpha                 89.999959
_cell_angle_beta                  91.401299
_cell_angle_gamma                 90.000019
_cell_volume                      1135.19675178

loop_
_atom_site_label
_atom_site_type_symbol
_atom_type_description
_atom_site_fract_x
_atom_site_fract_y
_atom_site_fract_z
_atom_type_partial_charge
C1    C     C_R   0.262231 0.499310 0.504405 0.810283
C2    C     C_R   0.502532 0.616429 0.938467 0.124444
C3    C     C_R   0.503762 0.493978 0.130041 -0.145616
C4    C     C_R   0.496238 0.493978 0.869958 -0.145617
C5    C     C_R   0.508421 0.364666 0.064151 -0.081429
C6    C     C_R   0.491579 0.364666 0.935849 -0.081427
C7    C     C_3   0.504420 0.773361 0.929620 -0.260577
C8    C     C_3   0.495574 0.773361 0.070378 -0.260567
C9    C     C_R   0.063227 0.367278 0.510945 -0.056409
C10   C     C_R   0.936773 0.367278 0.489056 -0.056409
C11   C     C_R   0.871771 0.496081 0.492300 -0.083332
C12   C     C_R   0.737769 0.499310 0.495595 0.810281
C13   C     C_R   0.128229 0.496081 0.507700 -0.083332
C14   C     C_R   0.936473 0.623174 0.498507 -0.153732
C15   C     C_R   0.063527 0.623174 0.501493 -0.153731
C16   C     C_1   0.539532 0.232129 0.123077 0.298018
C17   C     C_1   0.460465 0.232130 0.876923 0.298015
C18   C     C_2   0.624509 0.832919 0.887933 0.387365
C19   C     C_2   0.375484 0.832914 0.112063 0.387359
C20   C     C_1   0.121655 0.235022 0.544685 0.297561
C21   C     C_1   0.878345 0.235022 0.455316 0.297562
C22   C     C_1   0.336536 0.143856 0.342246 0.302029
C23   C     C_R   0.420610 0.073363 0.425013 0.095439
C24   C     C_1   0.663464 0.143856 0.657755 0.302025
C25   C     C_R   0.579390 0.073363 0.574987 0.095439
C26   C     C_R   0.419894 0.924792 0.426675 -0.043054
C27   C     C_R   0.580106 0.924792 0.573325 -0.043057
C28   C     C_R   0.502569 0.499172 0.262698 0.841602
C29   C     C_R   0.497430 0.499172 0.737302 0.841598
C30   C     C_R   0.497468 0.616430 0.061533 0.124445
Cu1   Cu    Cu3+1 0.500000 0.640660 0.500000 0.992091
Cu2   Cu    Cu3+1 0.500000 0.359340 0.500000 1.008256
H1    H     H_    0.422842 0.815913 0.878956 0.160839
H2    H     H_    0.577151 0.815919 0.121041 0.160845
H3    H     H_    0.889019 0.723198 0.499081 0.174221
H4    H     H_    0.110981 0.723198 0.500919 0.174221
H5    H     H_    0.355342 0.867289 0.369241 0.160179
H6    H     H_    0.644657 0.867288 0.630760 0.160172
H7    H     H_    0.639433 0.945484 0.892472 0.091936
H8    H     H_    0.360549 0.945474 0.107511 0.091944
N1    N     N_R   0.500000 0.852070 0.500000 -0.178985
N2    N     N_R   0.500000 0.147940 0.500000 -0.200525
N3    N     N_1   0.565925 0.126386 0.168847 -0.320724
N4    N     N_1   0.434071 0.126387 0.831152 -0.320727
N5    N     N_1   0.166792 0.129399 0.572850 -0.276026
N6    N     N_1   0.833208 0.129398 0.427151 -0.276025
N7    N     N_1   0.268654 0.199551 0.275218 -0.282517
N8    N     N_1   0.731345 0.199551 0.724783 -0.282515
O1    O     O_R   0.319640 0.618740 0.499990 -0.584295
O2    O     O_2   0.294481 0.757118 0.150265 -0.528704
O3    O     O_R   0.680360 0.618740 0.500010 -0.584296
O4    O     O_R   0.319620 0.381170 0.499990 -0.583896
O5    O     O_R   0.680380 0.381170 0.500010 -0.583896
O6    O     O_R   0.499990 0.618810 0.319660 -0.569035
O7    O     O_R   0.500010 0.618810 0.680340 -0.569041
O8    O     O_R   0.499960 0.381240 0.319650 -0.584992
O9    O     O_R   0.500040 0.381240 0.680350 -0.584990
O10   O     O_2   0.705522 0.757123 0.849747 -0.528695

loop_
_geom_bond_atom_site_label_1
_geom_bond_atom_site_label_2
_ccdc_geom_bond_type
C25   N2    A    
C3    C30   A    
C2    C4    A    
C11   C12   S    
C26   H5    S    
C25   C27   A    
Cu1   N1    S    
C9    C10   A    
C27   N1    A    
C9    C20   S    
C4    C29   S    
C19   O2    D    
C2    C30   A    
C7    C18   S    
C8    C30   S    
C28   O6    A    
C22   N7    T    
C28   O8    A    
C17   N4    T    
C7    C8    S    
Cu1   O6    S    
C8    H2    S    
C12   O5    A    
C7    H1    S    
C16   N3    T    
C23   N2    A    
Cu2   O9    S    
Cu1   O1    S    
C3    C28   S    
C11   C14   A    
C29   O9    A    
C13   C15   A    
C10   C21   S    
C5    C6    A    
C1    O4    A    
C8    C19   S    
C1    C13   S    
C10   C11   A    
C27   H6    S    
C24   N8    T    
Cu2   O5    S    
C12   O3    A    
C24   C25   S    
C4    C6    A    
C21   N6    T    
C19   H8    S    
C23   C26   A    
C14   H3    S    
C6    C17   S    
C18   H7    S    
C9    C13   A    
C14   C15   A    
Cu2   O4    S    
C5    C16   S    
Cu2   N2    S    
C29   O7    A    
C2    C7    S    
Cu1   O7    S    
C15   H4    S    
C22   C23   S    
C1    O1    A    
Cu2   O8    S    
Cu1   Cu2   S    
C20   N5    T    
C26   N1    A    
Cu1   O3    S    
C18   O10   D    
C3    C5    A    
