data_mof_unit_10649.cif
_audit_creation_date              2012-12-10T20:27:54-0500
_audit_creation_method            fapswitch 2.2
_symmetry_space_group_name_H-M    P1
_symmetry_Int_Tables_number       1
_space_group_crystal_system       triclinic
_cell_length_a                    12.88878
_cell_length_b                    10.676339
_cell_length_c                    9.857163
_cell_angle_alpha                 89.931406
_cell_angle_beta                  97.160556
_cell_angle_gamma                 90.09864
_cell_volume                      1345.81324512

loop_
_atom_site_label
_atom_site_type_symbol
_atom_type_description
_atom_site_fract_x
_atom_site_fract_y
_atom_site_fract_z
_atom_type_partial_charge
C1    C     C_R   0.503165 0.259912 0.500606 0.884035
C2    C     C_R   0.028554 0.515510 0.560950 0.137900
C3    C     C_R   0.970647 0.480436 0.435027 0.105087
C4    C     C_R   0.863375 0.471501 0.428063 -0.224754
C5    C     C_R   0.871382 0.531270 0.667433 -0.167805
C6    C     C_R   0.979039 0.539498 0.676619 -0.170159
C7    C     C_R   0.518850 0.063669 0.626357 0.150820
C8    C     C_R   0.519922 0.128558 0.503993 -0.107359
C9    C     C_R   0.541219 0.064985 0.386105 -0.214841
C10   C     C_R   0.541454 0.935437 0.386082 -0.216905
C11   C     C_R   0.520370 0.871398 0.503937 -0.105479
C12   C     C_R   0.298142 0.500412 0.473219 0.907758
C13   C     C_R   0.519181 0.935905 0.626367 0.129586
C14   C     C_3   0.443760 0.928122 0.729703 -0.472683
C15   C     C_3   0.443148 0.070072 0.729371 -0.489468
C16   C     C_R   0.452518 0.405265 0.063741 0.211403
C17   C     C_R   0.554899 0.587085 0.080850 -0.107803
C18   C     C_R   0.554894 0.587110 0.936808 -0.121675
C19   C     C_R   0.452456 0.405263 0.921079 0.216762
C20   C     C_3   0.339383 0.371335 0.897501 -0.495978
C21   C     C_3   0.339620 0.371436 0.051366 -0.500392
C22   C     C_R   0.503432 0.740050 0.500502 0.882853
C23   C     C_R   0.701834 0.499168 0.526744 0.883749
C24   C     C_R   0.813944 0.499119 0.542532 -0.081308
C25   C     C_R   0.185997 0.498604 0.456796 -0.108345
C26   C     C_R   0.021669 0.456324 0.319514 0.255447
C27   C     C_R   0.129578 0.465201 0.331674 -0.227758
C28   C     C_R   0.135485 0.525814 0.570046 -0.275569
H1    H     H_    0.817453 0.444397 0.333227 0.208955
H2    H     H_    0.480107 0.887382 0.828119 0.203088
H3    H     H_    0.366517 0.110569 0.686668 0.201530
H4    H     H_    0.478856 0.111441 0.827734 0.207368
H5    H     H_    0.597579 0.658798 0.142093 0.146700
H6    H     H_    0.597551 0.658839 0.889274 0.146248
H7    H     H_    0.290268 0.446855 0.845591 0.218251
H8    H     H_    0.326138 0.276958 0.851374 0.201186
H9    H     H_    0.291185 0.447598 0.087151 0.218499
H10   H     H_    0.326802 0.277137 0.094269 0.207381
H11   H     H_    0.833150 0.552576 0.756493 0.179021
H12   H     H_    0.023371 0.565663 0.773228 0.157172
H13   H     H_    0.169152 0.443741 0.244110 0.180549
H14   H     H_    0.179382 0.554270 0.666132 0.158604
H15   H     H_    0.550345 0.114183 0.292115 0.174736
H16   H     H_    0.367421 0.886147 0.687753 0.207316
N1    N     N_R   0.499290 0.499140 0.142710 -0.109642
N2    N     N_R   0.499290 0.499180 0.857070 -0.108652
O1    O     O_R   0.500010 0.316790 0.614690 -0.613435
O2    O     O_R   0.500000 0.316760 0.385350 -0.623301
O3    O     O_R   0.346360 0.499990 0.595720 -0.626598
O4    O     O_R   0.346350 0.499960 0.366370 -0.623382
O5    O     O_R   0.500000 0.683240 0.614650 -0.623656
O6    O     O_R   0.499990 0.683210 0.385310 -0.625793
O7    O     O_R   0.653650 0.500040 0.633630 -0.618526
O8    O     O_R   0.653640 0.500010 0.404280 -0.621778
Zn1   Zn    Zn3+2 0.500010 0.500020 0.653130 0.951679
Zn2   Zn    Zn3+2 0.499990 0.499980 0.346870 0.952185
Br1   Br    Br    0.949927 0.410308 0.143570 -0.570658
H17   H     H_    0.550706 0.886549 0.292095 0.167829

loop_
_geom_bond_atom_site_label_1
_geom_bond_atom_site_label_2
_ccdc_geom_bond_type
C16   N1    A    
N2    Zn1   S    
C4    H1    S    
C12   O4    A    
C23   C24   S    
C1    O2    A    
C15   H3    S    
C16   C21   S    
C25   C27   A    
C1    C8    S    
C11   C13   A    
C9    C10   A    
C27   H13   S    
C11   C22   S    
C19   C20   S    
C12   C25   S    
C7    C15   S    
C2    C3    A    
C8    C9    A    
C19   N2    A    
C7    C8    A    
C13   C14   S    
C25   C28   A    
C18   H6    S    
C26   C27   A    
C2    C6    A    
C5    C24   A    
C17   H5    S    
C14   H2    S    
C16   C19   A    
C18   N2    A    
C23   O7    A    
C14   H16   S    
C10   H17   S    
C17   N1    A    
C17   C18   A    
O5    Zn1   S    
C5    H11   S    
C5    C6    A    
C4    C24   A    
C26   Br1   S    
O8    Zn2   S    
C9    H15   S    
C12   O3    A    
C10   C11   A    
O7    Zn1   S    
C3    C4    A    
C20   H8    S    
C7    C13   A    
C6    H12   S    
C21   H9    S    
C20   C21   S    
C23   O8    A    
C22   O6    A    
C28   H14   S    
O2    Zn2   S    
O1    Zn1   S    
C14   C15   S    
C1    O1    A    
C2    C28   A    
O3    Zn1   S    
C20   H7    S    
C3    C26   A    
O4    Zn2   S    
C21   H10   S    
O6    Zn2   S    
N1    Zn2   S    
C22   O5    A    
C15   H4    S    
