data_mof_unit_14860.cif
_audit_creation_date              2012-12-11T16:26:27-0500
_audit_creation_method            fapswitch 2.2
_symmetry_space_group_name_H-M    P1
_symmetry_Int_Tables_number       1
_space_group_crystal_system       triclinic
_cell_length_a                    6.933528
_cell_length_b                    17.462708
_cell_length_c                    19.547221
_cell_angle_alpha                 108.596527
_cell_angle_beta                  89.909563
_cell_angle_gamma                 90.629859
_cell_volume                      2243.02872882

loop_
_atom_site_label
_atom_site_type_symbol
_atom_type_description
_atom_site_fract_x
_atom_site_fract_y
_atom_site_fract_z
_atom_type_partial_charge
O1    O     O_R   0.494330 0.415720 0.413720 -0.545149
O2    O     O_R   0.819330 0.430070 0.560210 -0.539027
O3    O     O_R   0.994320 0.584280 0.586280 -0.540439
C1    C     C_R   0.650454 0.415171 0.581999 0.696852
O4    O     O_R   0.823730 0.406300 0.412670 -0.542570
O5    O     O_R   0.998760 0.560340 0.437690 -0.547653
C2    C     C_R   0.654591 0.383510 0.385003 0.684701
O6    O     O_R   0.489890 0.439660 0.562310 -0.550410
O7    O     O_3   0.662340 0.550560 0.508380 -0.355694
V1    V     V_3+5 0.935370 0.490620 0.498450 1.459131
O8    O     O_R   0.328750 0.569930 0.439790 -0.518064
C3    C     C_R   0.160604 0.582190 0.415986 0.786459
O9    O     O_R   0.324340 0.593700 0.587330 -0.516951
C4    C     C_R   0.156036 0.619793 0.612886 0.793640
V2    V     V_3+5 0.435940 0.509380 0.501550 1.495070
O10   O     O_3   0.159100 0.449440 0.491620 -0.379921
H1    H     H_    0.111133 0.893276 0.576041 0.164969
C5    C     C_R   0.180370 0.591051 0.749167 -0.150721
C6    C     C_R   0.190866 0.574136 0.814081 -0.131125
C7    C     C_R   0.178781 0.636211 0.879398 -0.065840
C8    C     C_R   0.155292 0.715639 0.880294 -0.089777
C9    C     C_R   0.144109 0.734650 0.815283 0.055836
C10   C     C_R   0.157752 0.671291 0.748203 0.058065
C11   C     C_R   0.116084 0.815106 0.816479 -0.151980
C12   C     C_R   0.100939 0.832620 0.750915 0.035651
C13   C     C_R   0.133004 0.771088 0.683399 0.003619
C14   C     C_R   0.151196 0.688765 0.681942 -0.167645
C15   C     C_R   0.057765 0.912069 0.751935 -0.157387
C16   C     C_R   0.052843 0.932013 0.688813 -0.182290
C17   C     C_R   0.101828 0.875035 0.623988 -0.092719
C18   C     C_R   0.147892 0.796274 0.620803 0.344384
H2    H     H_    0.191479 0.540467 0.699958 0.094961
H3    H     H_    0.208958 0.512499 0.813659 0.112739
H4    H     H_    0.187003 0.622767 0.929684 0.144592
H5    H     H_    0.144599 0.761824 0.932420 0.126105
H6    H     H_    0.026787 0.959890 0.801549 0.115528
H7    H     H_    0.018925 0.993003 0.690650 0.148615
C19   C     C_R   0.303205 0.625013 0.316185 -0.168196
C20   C     C_R   0.152624 0.629831 0.365442 -0.082490
C21   C     C_R   0.994365 0.679504 0.365742 -0.127765
C22   C     C_R   0.987851 0.725373 0.318476 0.147688
C23   C     C_R   0.139237 0.720037 0.268669 0.032141
C24   C     C_R   0.297101 0.668744 0.266846 0.016115
C25   C     C_R   0.831550 0.776201 0.319947 -0.130119
C26   C     C_R   0.824244 0.821327 0.272469 -0.155352
C27   C     C_R   0.973258 0.816646 0.222680 0.115951
C28   C     C_R   0.131666 0.765781 0.220469 0.007399
C29   C     C_R   0.281545 0.760271 0.170054 -0.041926
C30   C     C_R   0.436022 0.707882 0.168304 -0.165488
C31   C     C_R   0.444021 0.662309 0.215450 0.356251
C32   C     C_R   0.966305 0.862595 0.175604 -0.237419
C33   C     C_R   0.115653 0.859428 0.126110 -0.153077
C34   C     C_R   0.272925 0.806688 0.122378 0.327018
H8    H     H_    0.423349 0.585912 0.316073 0.172564
H9    H     H_    0.877651 0.683516 0.403679 0.142524
H10   H     H_    0.713985 0.780656 0.357576 0.137765
H11   H     H_    0.701380 0.859854 0.274595 0.126633
H12   H     H_    0.845311 0.902343 0.178455 0.153387
H13   H     H_    0.553126 0.701526 0.130367 0.220973
C35   C     C_R   0.782491 0.182556 0.866630 -0.229654
C36   C     C_R   0.622126 0.132921 0.867676 -0.077161
C37   C     C_R   0.466740 0.129478 0.820418 -0.178719
C38   C     C_R   0.470708 0.174651 0.772472 0.022922
C39   C     C_R   0.629739 0.225706 0.772829 0.058172
C40   C     C_R   0.786116 0.229771 0.820251 0.118476
C41   C     C_R   0.318854 0.168992 0.723764 -0.217381
C42   C     C_R   0.322189 0.213972 0.675843 0.379321
C43   C     C_R   0.477658 0.267514 0.677210 0.013984
C44   C     C_R   0.632743 0.272602 0.725653 0.007696
C45   C     C_R   0.792025 0.324075 0.726695 0.157199
C46   C     C_R   0.945661 0.328203 0.774514 -0.138066
C47   C     C_R   0.943108 0.281252 0.820628 -0.188103
C48   C     C_R   0.483428 0.315523 0.631209 -0.177719
C49   C     C_R   0.642525 0.366313 0.631680 -0.098945
C50   C     C_R   0.796444 0.369923 0.679414 -0.140921
H14   H     H_    0.902521 0.185709 0.902960 0.120853
H15   H     H_    0.343578 0.090553 0.820188 0.121425
H16   H     H_    0.197281 0.129050 0.722570 0.158118
H17   H     H_    0.366369 0.312895 0.593933 0.176035
H18   H     H_    0.919412 0.409141 0.680227 0.114100
H19   H     H_    0.069292 0.367062 0.775598 0.113783
H20   H     H_    0.064405 0.285083 0.856508 0.127239
H21   H     H_    0.333513 0.149314 0.424789 0.157372
C51   C     C_R   0.812015 0.397465 0.252055 -0.131701
C52   C     C_R   0.889411 0.406141 0.189105 -0.050041
C53   C     C_R   0.877338 0.342803 0.124595 -0.112595
C54   C     C_R   0.788596 0.270158 0.122604 -0.143202
C55   C     C_R   0.711816 0.258877 0.185943 0.070107
C56   C     C_R   0.723465 0.323956 0.252072 0.056511
C57   C     C_R   0.621005 0.184930 0.183868 -0.181949
C58   C     C_R   0.542165 0.176076 0.248039 0.068874
C59   C     C_R   0.553538 0.241195 0.314146 0.066375
C60   C     C_R   0.643851 0.315216 0.316171 -0.178766
C61   C     C_R   0.455325 0.102307 0.248189 -0.151641
C62   C     C_R   0.379817 0.093314 0.311303 -0.126856
C63   C     C_R   0.390934 0.156813 0.375746 -0.093309
C64   C     C_R   0.477615 0.229789 0.377563 -0.126385
H22   H     H_    0.821579 0.449317 0.300346 0.118815
H23   H     H_    0.957672 0.462625 0.190307 0.163507
H24   H     H_    0.935854 0.350147 0.075653 0.123602
H25   H     H_    0.779920 0.223431 0.070715 0.104866
H26   H     H_    0.446159 0.050431 0.199900 0.118257
H27   H     H_    0.313716 0.036483 0.310264 0.124982
H28   H     H_    0.485864 0.276600 0.429414 0.110701
O11   O     O_R   0.775200 0.060470 0.937800 -0.548960
O12   O     O_R   0.441110 0.093720 0.087350 -0.541782
O13   O     O_R   0.266330 0.939630 0.062280 -0.513625
C65   C     C_R   0.610231 0.116621 0.115027 0.688108
O14   O     O_R   0.445750 0.069950 0.939820 -0.547904
O15   O     O_R   0.271000 0.915700 0.913700 -0.528403
C66   C     C_R   0.614582 0.084713 0.917906 0.689052
O16   O     O_R   0.770530 0.084400 0.086380 -0.542463
O17   O     O_3   0.602830 0.949510 0.991680 -0.333108
V3    V     V_3+5 0.329710 0.009370 0.001550 1.472960
O18   O     O_R   0.940990 0.906170 0.912570 -0.539032
C67   C     C_R   0.109263 0.882097 0.886073 0.693831
O19   O     O_R   0.936350 0.929940 0.060100 -0.531879
C68   C     C_R   0.105379 0.912391 0.079676 0.757077
V4    V     V_3+5 0.829160 0.990450 0.998310 1.485028
O20   O     O_3   0.105910 0.050480 0.008320 -0.383263
Cl1   Cl    Cl    0.453759 0.795075 0.055568 -0.685948
Cl2   Cl    Cl    0.640177 0.596382 0.206602 -0.713629
Cl3   Cl    Cl    0.130233 0.199390 0.613763 -0.691221
Cl4   Cl    Cl    0.258211 0.740235 0.540172 -0.705148

loop_
_geom_bond_atom_site_label_1
_geom_bond_atom_site_label_2
_ccdc_geom_bond_type
C54   C55   A    
C36   C66   S    
C22   C23   A    
C37   H15   S    
C62   C63   A    
C31   Cl2   S    
C1    O6    A    
C52   C53   A    
C33   C34   A    
C12   C15   A    
C26   H11   S    
C13   C14   A    
C16   C17   A    
O12   V3    S    
C15   C16   A    
C18   Cl4   S    
O19   V4    S    
O5    C3    A    
C17   C18   A    
O18   C67   A    
C5    C6    A    
C48   C49   A    
O17   V4    S    
O8    V2    S    
C6    C7    A    
C43   C44   A    
C45   C46   A    
O1    V2    S    
C10   C14   A    
C4    C14   S    
C53   H24   S    
C50   H18   S    
O15   V3    S    
O13   C68   A    
C1    C49   S    
C36   C37   A    
C7    H4    S    
C55   C56   A    
C41   C42   A    
O11   C66   A    
C38   C41   A    
C13   C18   A    
C54   H25   S    
C8    C9    A    
C56   C60   A    
H1    C17   S    
C44   C45   A    
C41   H16   S    
C62   H27   S    
C59   C64   A    
C29   C34   A    
C2    C60   S    
C49   C50   A    
C42   C43   A    
C11   C12   A    
C6    H3    S    
C20   C21   A    
O4    C2    A    
C53   C54   A    
C43   C48   A    
C26   C27   A    
C27   C32   A    
C35   H14   S    
C32   C33   A    
C35   C36   A    
O2    C1    A    
O13   V3    S    
C37   C38   A    
C52   H23   S    
C25   H10   S    
C28   C29   A    
C19   H8    S    
V4    O20   S    
C21   H9    S    
C63   C64   A    
C48   H17   S    
C32   H12   S    
C39   C44   A    
C51   C52   A    
C15   H6    S    
O3    C4    A    
O14   V3    S    
C21   C22   A    
C55   C57   A    
C35   C40   A    
C11   C67   S    
O6    V2    S    
O18   V4    S    
O9    V2    S    
C22   C25   A    
C9    C11   A    
C5    H2    S    
C51   C56   A    
O2    V1    S    
O15   C67   A    
C58   C59   A    
C25   C26   A    
O17   V3    S    
O7    V1    S    
C27   C28   A    
C29   C30   A    
O1    C2    A    
C42   Cl3   S    
O5    V1    S    
O16   V4    S    
O8    C3    A    
C24   C31   A    
C8    H5    S    
C40   C47   A    
C30   H13   S    
C51   H22   S    
C39   C40   A    
C3    C20   S    
O14   C66   A    
C12   C13   A    
C57   C65   S    
O4    V1    S    
O3    V1    S    
C34   Cl1   S    
O19   C68   A    
C58   C61   A    
C57   C58   A    
C19   C20   A    
O12   C65   A    
C5    C10   A    
H21   C63   S    
C59   C60   A    
C23   C28   A    
O7    V2    S    
C61   C62   A    
C47   H20   S    
C64   H28   S    
C38   C39   A    
C65   O16   A    
C19   C24   A    
C46   C47   A    
C7    C8    A    
C61   H26   S    
C30   C31   A    
C23   C24   A    
C16   H7    S    
C45   C50   A    
C9    C10   A    
O11   V4    S    
V1    O10   S    
O9    C4    A    
V3    O20   S    
V2    O10   S    
C46   H19   S    
C33   C68   S    
