data_mof_unit_9235.cif
_audit_creation_date              2013-03-05T16:43:02-0500
_audit_creation_method            fapswitch 2.2
_symmetry_space_group_name_H-M    P1
_symmetry_Int_Tables_number       1
_space_group_crystal_system       triclinic
_cell_length_a                    10.689764
_cell_length_b                    10.662444
_cell_length_c                    9.923745
_cell_angle_alpha                 90.762026
_cell_angle_beta                  89.534359
_cell_angle_gamma                 89.181797
_cell_volume                      1130.84414852

loop_
_atom_site_label
_atom_site_type_symbol
_atom_site_description
_atom_site_fract_x
_atom_site_fract_y
_atom_site_fract_z
_atom_type_partial_charge
O1    O     O_R   0.500020 0.316790 0.614690 -0.583387
O2    O     O_R   0.500000 0.316760 0.385350 -0.556202
C1    C     C_R   0.507654 0.259925 0.498663 0.939509
O3    O     O_R   0.314800 0.500000 0.614670 -0.605484
O4    O     O_R   0.314790 0.499960 0.385330 -0.624034
C2    C     C_R   0.257546 0.498877 0.499765 0.901178
Zn1   Zn    Zn3+2 0.500010 0.500020 0.653130 1.006384
Zn2   Zn    Zn3+2 0.499990 0.499980 0.346870 0.976569
O5    O     O_R   0.500000 0.683240 0.614650 -0.635616
O6    O     O_R   0.499980 0.683210 0.385310 -0.622389
O7    O     O_R   0.685210 0.500040 0.614670 -0.591184
O8    O     O_R   0.685200 0.500000 0.385330 -0.647766
C3    C     C_R   0.506037 0.739964 0.500396 0.889618
C4    C     C_R   0.741945 0.497052 0.499238 0.848070
C5    C     C_3   0.075027 0.370891 0.561567 0.304154
H1    H     H_    0.107939 0.370839 0.667797 0.185003
C6    C     C_3   0.929773 0.369288 0.558596 0.083165
H2    H     H_    0.900621 0.291665 0.489705 0.122033
H3    H     H_    0.094848 0.598897 0.684949 0.275124
H4    H     H_    0.885754 0.618576 0.678658 0.238205
C7    C     C_3   0.067599 0.608443 0.579369 -0.512651
C8    C     C_3   0.070446 0.503296 0.351511 -0.342832
C9    C     C_3   0.120451 0.494898 0.497922 0.017740
H5    H     H_    0.101632 0.592017 0.305605 0.179550
H6    H     H_    0.105789 0.422516 0.289774 0.234914
C10   C     C_3   0.878053 0.494553 0.497792 -0.002800
C11   C     C_3   0.924872 0.611822 0.574700 -0.363136
C12   C     C_3   0.928139 0.501834 0.350843 -0.433982
H7    H     H_    0.896224 0.419946 0.289913 0.194794
H8    H     H_    0.892320 0.588191 0.301197 0.207369
H9    H     H_    0.105739 0.697939 0.540966 0.174703
H10   H     H_    0.893226 0.698368 0.522500 0.167821
C13   C     C_R   0.563423 0.065491 0.613086 0.110055
C14   C     C_R   0.537022 0.128536 0.494058 -0.249032
C15   C     C_R   0.543673 0.061252 0.370228 0.510439
C16   C     C_R   0.538882 0.931426 0.373751 -0.320759
H11   H     H_    0.528734 0.880616 0.279253 0.195953
C17   C     C_R   0.533398 0.870559 0.498069 -0.185028
C18   C     C_R   0.561715 0.937280 0.615130 0.125243
C19   C     C_3   0.505483 0.935956 0.753231 -0.504408
C20   C     C_3   0.508737 0.077902 0.751689 -0.369247
H12   H     H_    0.408753 0.900951 0.753137 0.192355
H13   H     H_    0.569231 0.893594 0.828572 0.215747
H14   H     H_    0.413963 0.121831 0.753298 0.231485
H15   H     H_    0.575943 0.118230 0.824770 0.224844
C21   C     C_R   0.412428 0.565488 0.073853 0.063882
N1    N     N_R   0.499150 0.499140 0.142800 -0.086454
C22   C     C_R   0.593704 0.441768 0.070093 -0.071619
H16   H     H_    0.668514 0.394232 0.122498 0.140848
C23   C     C_R   0.593402 0.441381 0.926594 -0.048411
H17   H     H_    0.667022 0.392361 0.871752 0.210565
N2    N     N_R   0.499150 0.499180 0.857150 -0.096945
C24   C     C_R   0.409793 0.563376 0.931581 0.008847
C25   C     C_3   0.268851 0.539470 0.939989 0.751176
C26   C     C_3   0.277266 0.548802 0.091508 -0.513600
H18   H     H_    0.232920 0.634910 0.135606 0.191060
H19   H     H_    0.256854 0.459746 0.142977 0.217041
O9    O     O_3   0.532667 0.119913 0.247301 -0.570415
C27   C     C_3   0.650198 0.115176 0.181740 -0.266074
H20   H     H_    0.721359 0.167163 0.240904 0.151385
H21   H     H_    0.641233 0.161129 0.082624 0.189337
H22   H     H_    0.682484 0.016910 0.161861 0.152791
O10   O     O_3   0.125621 0.267157 0.486741 -0.627406
C28   C     C_3   0.140766 0.161796 0.569856 -0.289471
H23   H     H_    0.051126 0.136028 0.619184 0.196797
H24   H     H_    0.213814 0.178758 0.646633 0.199098
H25   H     H_    0.172589 0.080838 0.506435 0.186072
O11   O     O_3   0.182253 0.631466 0.893575 -0.612013
C29   C     C_3   0.238525 0.742430 0.849777 -0.420810
H26   H     H_    0.296458 0.722615 0.758588 0.196270
H27   H     H_    0.293641 0.787081 0.931497 0.181551
H28   H     H_    0.163781 0.809934 0.821089 0.210179
N3    N     N_R   0.231215 0.412811 0.898701 0.188695
O12   O     O_R   0.308512 0.335640 0.837281 -0.443687
O13   O     O_R   0.122641 0.371890 0.936782 -0.355276
N4    N     N_R   0.878543 0.343348 0.692919 0.191764
O14   O     O_R   0.901572 0.416530 0.795393 -0.377179
O15   O     O_R   0.813678 0.242617 0.711633 -0.450082

loop_
_geom_bond_atom_site_label_1
_geom_bond_atom_site_label_2
_geom_bond_distance
_ccdc_geom_bond_type
C26   H18   1.110263 S    
N3    O12   1.300143 A    
C15   C16   1.386838 A    
C24   C25   1.533419 S    
Zn1   O7    2.013153 S    
C7    H9    1.113687 S    
C12   H7    1.114526 S    
C10   C11   1.547613 S    
C13   C18   1.367843 A    
C15   O9    1.383380 S    
C6    C10   1.568261 S    
C16   H11   1.083748 S    
H3    C7    1.095420 S    
N4    O15   1.301272 A    
Zn1   N2    2.024728 S    
O4    C2    1.285876 A    
O7    C4    1.291600 A    
C25   O11   1.422771 S    
C5    H1    1.114073 S    
C6    H2    1.115924 S    
C14   C15   1.415444 A    
C29   H27   1.112190 S    
O5    C3    1.293718 A    
C25   C26   1.509103 S    
C19   H13   1.111699 S    
O11   C29   1.407246 S    
C8    H6    1.110339 S    
C21   C26   1.467650 S    
C6    N4    1.468180 S    
C23   N2    1.369192 A    
C19   H12   1.104327 S    
C7    C11   1.526721 S    
C27   H20   1.114125 S    
C8    C12   1.521598 S    
N3    O13   1.300758 A    
O3    Zn1   2.019351 S    
C23   H17   1.078168 S    
C7    C9    1.544415 S    
C27   H21   1.108926 S    
C28   H25   1.109351 S    
N4    O14   1.300792 A    
O3    C2    1.298528 A    
C18   C19   1.492350 S    
C1    C14   1.431346 S    
O9    C27   1.410088 S    
O1    C1    1.295589 A    
C28   H24   1.110415 S    
C29   H28   1.109159 S    
C25   N3    1.468694 S    
N1    C22   1.369375 A    
Zn2   O8    2.019349 S    
C13   C14   1.395663 A    
C4    C10   1.454775 S    
C22   C23   1.424028 A    
C3    C17   1.427375 S    
C19   C20   1.514667 S    
O8    C4    1.287747 A    
C26   H19   1.107770 S    
C20   H14   1.109969 S    
C8    H5    1.109757 S    
C16   C17   1.402805 A    
N2    C24   1.372194 A    
Zn1   O5    1.995521 S    
C21   N1    1.353679 A    
C22   H16   1.081242 S    
C27   H22   1.113058 S    
C20   H15   1.111748 S    
C11   H10   1.113993 S    
O1    Zn1   1.985586 S    
O2    Zn2   1.995521 S    
O6    C3    1.287896 A    
O4    Zn2   2.013155 S    
C5    C6    1.553582 S    
H4    C11   1.111073 S    
C10   C12   1.552671 S    
C13   C20   1.493659 S    
C28   H23   1.112110 S    
C12   H8    1.114557 S    
O2    C1    1.287096 A    
Zn2   N1    2.025133 S    
C17   C18   1.391803 A    
C2    C9    1.466986 S    
C21   C24   1.412275 A    
C5    C9    1.555151 S    
C29   H26   1.108656 S    
O10   C28   1.410738 S    
Zn2   O6    1.985586 S    
C5    O10   1.421902 S    
C8    C9    1.555490 S    
