data_mof_unit_31523.cif
_audit_creation_date              2012-12-10T18:45:03-0500
_audit_creation_method            fapswitch 2.2
_symmetry_space_group_name_H-M    P1
_symmetry_Int_Tables_number       1
_space_group_crystal_system       triclinic
_cell_length_a                    10.746557
_cell_length_b                    9.947834
_cell_length_c                    10.685297
_cell_angle_alpha                 89.826548
_cell_angle_beta                  91.520789
_cell_angle_gamma                 88.084798
_cell_volume                      1141.26228888

loop_
_atom_site_label
_atom_site_type_symbol
_atom_type_description
_atom_site_fract_x
_atom_site_fract_y
_atom_site_fract_z
_atom_type_partial_charge
C1    C     C_R   0.260049 0.502090 0.503326 1.000576
C2    C     C_R   0.739442 0.497954 0.497886 0.990790
C3    C     C_R   0.929885 0.603894 0.438754 0.371282
C4    C     C_R   0.056139 0.616698 0.459986 0.341620
C5    C     C_R   0.599542 0.067891 0.547036 0.441574
C6    C     C_R   0.401514 0.075279 0.450606 0.462477
C7    C     C_R   0.600322 0.925199 0.545664 0.529100
C8    C     C_R   0.402087 0.932654 0.450287 0.467192
C9    C     C_R   0.486164 0.501123 0.259533 0.900711
C10   C     C_R   0.517158 0.499756 0.739618 0.920607
C11   C     C_R   0.438627 0.750788 0.106337 0.582579
C12   C     C_R   0.574542 0.745481 0.889262 0.562604
C13   C     C_R   0.477331 0.870381 0.055131 0.239317
C14   C     C_R   0.537446 0.868167 0.940662 0.246925
C15   C     C_R   0.533449 0.624254 0.939925 -0.265386
C16   C     C_R   0.480161 0.626454 0.057759 -0.272829
C17   C     C_R   0.471806 0.504101 0.123345 -0.212210
C18   C     C_R   0.538625 0.501359 0.874928 -0.210650
C19   C     C_R   0.481512 0.381980 0.058734 0.399128
C20   C     C_R   0.530676 0.380172 0.940617 0.388833
C21   C     C_R   0.068339 0.393475 0.556112 0.525290
C22   C     C_R   0.940744 0.390449 0.552586 0.518628
C23   C     C_R   0.871641 0.494941 0.493283 -0.467743
C24   C     C_R   0.126836 0.505531 0.507722 -0.485167
N1    N     N_R   0.500000 0.857200 0.500000 -0.264384
N2    N     N_R   0.500000 0.142810 0.500000 -0.267519
O1    O     O_R   0.316770 0.614620 0.499990 -0.547642
O2    O     O_R   0.683230 0.614620 0.500010 -0.511323
O3    O     O_R   0.316800 0.385290 0.500000 -0.520662
O4    O     O_R   0.683200 0.385290 0.500000 -0.547194
O5    O     O_R   0.500010 0.614690 0.316770 -0.570035
O6    O     O_R   0.499990 0.614690 0.683230 -0.587974
O7    O     O_R   0.500040 0.385360 0.316770 -0.596457
O8    O     O_R   0.499960 0.385360 0.683230 -0.582309
Zn1   Zn    Zn3+2 0.500000 0.653120 0.500000 1.103202
Zn2   Zn    Zn3+2 0.500000 0.346880 0.500000 1.084837
O9    O     O_3   0.444815 0.263163 0.110639 -0.555474
C25   C     C_3   0.313300 0.263501 0.106849 -0.066825
H1    H     H_    0.275534 0.274078 0.009085 0.117065
H2    H     H_    0.272864 0.343933 0.167134 0.135199
H3    H     H_    0.282513 0.166143 0.143651 0.253397
O10   O     O_3   0.566818 0.258761 0.888892 -0.562563
C26   C     C_3   0.698281 0.251455 0.887454 -0.030618
H4    H     H_    0.739667 0.260431 0.983634 0.088989
H5    H     H_    0.735285 0.329207 0.824649 0.166769
H6    H     H_    0.728840 0.152073 0.850584 0.261148
F1    F     F_    0.350919 0.756713 0.194803 -0.550137
F2    F     F_    0.657166 0.744995 0.795693 -0.576892
O11   O     O_3   0.462738 0.988028 0.121211 -0.518390
C27   C     C_3   0.576142 0.008500 0.187609 -0.099422
H7    H     H_    0.652262 0.029765 0.122503 0.164782
H8    H     H_    0.603435 0.921261 0.249230 0.094153
H9    H     H_    0.564877 0.097120 0.249134 0.196038
O12   O     O_3   0.550792 0.984646 0.873297 -0.525531
C28   C     C_3   0.434986 0.015822 0.812021 -0.073786
H10   H     H_    0.362271 0.043614 0.880416 0.175742
H11   H     H_    0.403640 0.931487 0.751798 0.068736
H12   H     H_    0.444733 0.103914 0.750042 0.201679
F3    F     F_    0.134066 0.290076 0.612788 -0.600193
F4    F     F_    0.885469 0.287976 0.610909 -0.565978
O13   O     O_3   0.862988 0.705992 0.375982 -0.529668
C29   C     C_3   0.843871 0.666441 0.250512 -0.195752
H13   H     H_    0.934058 0.649676 0.203084 0.175176
H14   H     H_    0.791192 0.748468 0.199729 0.167269
H15   H     H_    0.787391 0.574829 0.243748 0.110090
O14   O     O_3   0.108835 0.737175 0.431441 -0.485097
C30   C     C_3   0.084711 0.827786 0.530600 0.040186
H16   H     H_    0.112485 0.929773 0.502901 0.227510
H17   H     H_    0.140194 0.797472 0.616074 0.092987
H18   H     H_    0.984075 0.837038 0.552582 0.187409
F5    F     F_    0.698747 0.130170 0.597068 -0.536598
F6    F     F_    0.302970 0.144721 0.397904 -0.581105
F7    F     F_    0.703950 0.856745 0.587820 -0.523713
F8    F     F_    0.306114 0.871114 0.394900 -0.514364

loop_
_geom_bond_atom_site_label_1
_geom_bond_atom_site_label_2
_ccdc_geom_bond_type
C15   C16   A    
C1    C24   S    
C15   C18   A    
C27   H8    S    
C28   H10   S    
C5    C7    A    
O9    C25   S    
C11   C13   A    
C11   C16   A    
C20   O10   S    
C19   C20   A    
C7    N1    A    
C12   C15   A    
O4    Zn2   S    
C12   F2    S    
C30   H18   S    
O1    Zn1   S    
C1    O3    A    
O14   C30   S    
C9    O7    A    
C5    F5    S    
C6    N2    A    
C13   C14   A    
C9    C17   S    
C30   H17   S    
C25   H2    S    
C8    N1    A    
C26   H5    S    
O3    Zn2   S    
C29   H13   S    
N1    Zn1   S    
C13   O11   S    
C18   C20   A    
C8    F8    S    
C14   O12   S    
C10   C18   S    
C21   F3    S    
O8    Zn2   S    
C28   H11   S    
C26   H4    S    
C22   F4    S    
O13   C29   S    
C4    C24   A    
C26   H6    S    
O5    Zn1   S    
C21   C24   A    
C27   H9    S    
C2    O2    A    
C2    O4    A    
C9    O5    A    
C3    O13   S    
C29   H14   S    
C5    N2    A    
C10   O8    A    
O6    Zn1   S    
C10   O6    A    
O7    Zn2   S    
C25   H1    S    
C4    O14   S    
C25   H3    S    
C7    F7    S    
O11   C27   S    
O10   C26   S    
C28   H12   S    
N2    Zn2   S    
C2    C23   S    
C1    O1    A    
O12   C28   S    
C17   C19   A    
C6    C8    A    
C19   O9    S    
C29   H15   S    
C27   H7    S    
C3    C23   A    
C21   C22   A    
C11   F1    S    
C22   C23   A    
C3    C4    A    
C30   H16   S    
O2    Zn1   S    
C12   C14   A    
C16   C17   A    
C6    F6    S    
