data_mof_unit_38135.cif
_audit_creation_date              2012-12-10T19:25:46-0500
_audit_creation_method            fapswitch 2.2
_symmetry_space_group_name_H-M    P1
_symmetry_Int_Tables_number       1
_space_group_crystal_system       triclinic
_cell_length_a                    9.800795
_cell_length_b                    10.528484
_cell_length_c                    16.793313
_cell_angle_alpha                 89.400184
_cell_angle_beta                  84.787922
_cell_angle_gamma                 89.958514
_cell_volume                      1725.60069429

loop_
_atom_site_label
_atom_site_type_symbol
_atom_type_description
_atom_site_fract_x
_atom_site_fract_y
_atom_site_fract_z
_atom_type_partial_charge
C1    C     C_R   0.500088 0.742004 0.497549 0.952287
C2    C     C_R   0.499902 0.258071 0.502733 0.948667
C3    C     C_3   0.384690 0.962618 0.469375 0.076449
C4    C     C_3   0.615123 0.038139 0.531887 0.057105
C5    C     C_3   0.496965 0.046590 0.425800 0.036890
C6    C     C_3   0.503370 0.953369 0.575172 0.031934
C7    C     C_3   0.501430 0.123429 0.502921 -0.202081
C8    C     C_3   0.498739 0.876702 0.497839 -0.209268
C9    C     C_3   0.390704 0.039372 0.546364 0.479203
C10   C     C_3   0.610359 0.960967 0.454668 0.470618
C11   C     C_3   0.948664 0.603955 0.527677 0.294453
C12   C     C_3   0.051270 0.395932 0.472324 0.291489
C13   C     C_3   0.055871 0.592248 0.456232 -0.130269
C14   C     C_3   0.944103 0.407776 0.543770 -0.130116
C15   C     C_3   0.037686 0.512891 0.571767 -0.126135
C16   C     C_3   0.962288 0.487056 0.428229 -0.128842
C17   C     C_R   0.480571 0.505725 0.652791 0.867967
C18   C     C_R   0.519437 0.494317 0.347155 0.874256
C19   C     C_R   0.469937 0.531888 0.738147 -0.146363
C20   C     C_R   0.529897 0.470208 0.261460 -0.143894
C21   C     C_R   0.585059 0.583207 0.770446 -0.272856
C22   C     C_R   0.412360 0.426260 0.228123 -0.276249
C23   C     C_R   0.582256 0.605375 0.851488 -0.180689
C24   C     C_R   0.414711 0.407119 0.146828 -0.179658
C25   C     C_R   0.464587 0.576232 0.900964 0.132988
C26   C     C_R   0.534278 0.431994 0.098020 0.133238
C27   C     C_R   0.345748 0.534963 0.869309 -0.275848
C28   C     C_R   0.654999 0.465680 0.130485 -0.277790
C29   C     C_R   0.347887 0.510370 0.787738 0.461690
C30   C     C_R   0.653575 0.487273 0.212489 0.472641
C31   C     C_2   0.476011 0.560430 0.985899 0.151589
C32   C     C_2   0.524961 0.448830 0.012956 0.153984
H1    H     H_    0.678992 0.603479 0.733450 0.177682
H2    H     H_    0.316957 0.409441 0.264511 0.179592
H3    H     H_    0.073475 0.526124 0.631925 0.184055
H4    H     H_    0.926352 0.473331 0.368204 0.187954
H5    H     H_    0.254658 0.513193 0.908603 0.152326
H6    H     H_    0.747794 0.482911 0.091668 0.152930
H7    H     H_    0.321130 0.381185 0.121243 0.146906
H8    H     H_    0.674538 0.636714 0.876439 0.147697
H9    H     H_    0.106709 0.669239 0.418976 0.129776
H10   H     H_    0.893162 0.331557 0.581566 0.129711
N1    N     N_3   0.136700 0.499970 0.500060 -0.084609
N2    N     N_3   0.863300 0.500030 0.499940 -0.083881
O1    O     O_R   0.383390 0.686040 0.500000 -0.631793
O2    O     O_R   0.616610 0.313960 0.500000 -0.630051
O3    O     O_R   0.616650 0.686050 0.499970 -0.589974
O4    O     O_R   0.383350 0.313950 0.500030 -0.588648
O5    O     O_R   0.369590 0.500020 0.615820 -0.572148
O6    O     O_R   0.630410 0.499980 0.384180 -0.570721
O7    O     O_R   0.602840 0.500020 0.615790 -0.631955
O8    O     O_R   0.397160 0.499980 0.384210 -0.633858
Zn1   Zn    Zn3+2 0.344250 0.499990 0.500020 0.959467
Zn2   Zn    Zn3+2 0.655750 0.500010 0.499980 0.960115
C33   C     C_3   0.889211 0.726413 0.562456 -0.899713
H11   H     H_    0.971275 0.779805 0.588592 0.213125
H12   H     H_    0.849489 0.785086 0.514673 0.284343
H13   H     H_    0.806150 0.705015 0.609966 0.246932
C34   C     C_3   0.110351 0.272819 0.437962 -0.888862
H14   H     H_    0.028468 0.218161 0.412245 0.200151
H15   H     H_    0.193325 0.293637 0.390254 0.245753
H16   H     H_    0.150283 0.214937 0.486044 0.298071
O9    O     O_3   0.773787 0.519363 0.244641 -0.613334
C35   C     C_3   0.810568 0.646307 0.224095 0.092089
H17   H     H_    0.774726 0.708661 0.274732 0.201262
H18   H     H_    0.766664 0.683585 0.169395 0.115441
C36   C     C_3   0.965885 0.655427 0.209733 -0.860851
H19   H     H_    0.003912 0.589498 0.161489 0.256695
H20   H     H_    0.996218 0.753706 0.191251 0.216484
H21   H     H_    0.013904 0.630387 0.265170 0.248308
O10   O     O_3   0.229978 0.468212 0.757139 -0.613432
C37   C     C_3   0.214027 0.336489 0.772435 0.100157
H22   H     H_    0.250582 0.305132 0.830564 0.112212
H23   H     H_    0.271232 0.282737 0.723446 0.185225
C38   C     C_3   0.062787 0.303028 0.775006 -0.830665
H24   H     H_    0.048625 0.199517 0.786080 0.210613
H25   H     H_    0.004276 0.355485 0.823980 0.250142
H26   H     H_    0.022356 0.329031 0.717422 0.249053
C39   C     C_3   0.569252 0.339862 0.958621 -0.943742
H27   H     H_    0.602975 0.257345 0.993659 0.246585
H28   H     H_    0.482569 0.308600 0.925355 0.237043
H29   H     H_    0.656458 0.369432 0.915649 0.248938
C40   C     C_3   0.433366 0.670027 0.040063 -0.942445
H30   H     H_    0.401176 0.752984 0.004867 0.245677
H31   H     H_    0.345517 0.641839 0.082963 0.249647
H32   H     H_    0.520494 0.699971 0.073403 0.239300
C41   C     C_3   0.493717 0.103418 0.342190 -0.852854
H33   H     H_    0.497828 0.026084 0.297664 0.253208
H34   H     H_    0.397823 0.158428 0.338738 0.238864
H35   H     H_    0.582458 0.167821 0.328485 0.231092
C42   C     C_3   0.509317 0.895085 0.658356 -0.898799
H36   H     H_    0.502076 0.971296 0.703672 0.247319
H37   H     H_    0.423960 0.826809 0.671632 0.225077
H38   H     H_    0.607533 0.843582 0.661193 0.251294
C43   C     C_3   0.255065 0.920096 0.433575 -0.857820
H39   H     H_    0.196631 0.004366 0.415857 0.245337
H40   H     H_    0.282870 0.861542 0.379978 0.241122
H41   H     H_    0.189759 0.863475 0.478076 0.242295
C44   C     C_3   0.736943 0.083571 0.573397 -0.908079
H42   H     H_    0.791803 0.999059 0.593503 0.255093
H43   H     H_    0.805735 0.142491 0.532185 0.238530
H44   H     H_    0.700887 0.140753 0.626343 0.255250
O11   O     O_3   0.280375 0.095093 0.593028 -0.619461
C45   C     C_3   0.201871 0.002055 0.637307 0.121583
H45   H     H_    0.222990 0.008100 0.701036 0.155781
H46   H     H_    0.221542 0.902608 0.617046 0.144808
C46   C     C_3   0.051891 0.030034 0.630699 -0.913716
H47   H     H_    0.028553 0.013756 0.568174 0.253176
H48   H     H_    0.987632 0.966922 0.672076 0.219682
H49   H     H_    0.028248 0.130302 0.645851 0.275998
O12   O     O_3   0.718036 0.907473 0.404098 -0.613487
C47   C     C_3   0.827130 0.994608 0.390661 0.107382
H50   H     H_    0.890146 0.992812 0.442305 0.151618
H51   H     H_    0.791026 0.093226 0.380109 0.153360
C48   C     C_3   0.919477 0.954525 0.317759 -0.876475
H52   H     H_    0.859923 0.950391 0.264652 0.258256
H53   H     H_    0.004212 0.024055 0.305824 0.216094
H54   H     H_    0.964135 0.859727 0.328865 0.260304

loop_
_geom_bond_atom_site_label_1
_geom_bond_atom_site_label_2
_ccdc_geom_bond_type
C25   C31   S    
C41   H33   S    
C26   C32   S    
C27   C29   A    
C1    C8    S    
O12   C47   S    
C33   H11   S    
C17   O7    A    
C6    C9    S    
C45   H46   S    
C4    C44   S    
C43   H41   S    
C18   O8    A    
C20   C30   A    
C2    O2    A    
O6    Zn2   S    
C40   H30   S    
C19   C21   A    
C24   C26   A    
C12   N1    S    
C4    C7    S    
C21   H1    S    
C6    C42   S    
C24   H7    S    
C31   C40   S    
C15   H3    S    
C47   H50   S    
C2    C7    S    
C12   C34   S    
C11   C15   S    
N1    Zn1   S    
C12   C16   S    
C48   H53   S    
C46   H47   S    
C16   N2    S    
C14   H10   S    
O1    Zn1   S    
C34   H14   S    
C30   O9    S    
C46   H48   S    
C37   C38   S    
C13   H9    S    
C45   H45   S    
O4    Zn1   S    
C22   H2    S    
C34   H15   S    
C36   H19   S    
C35   C36   S    
C10   O12   S    
C4    C6    S    
C3    C8    S    
C17   O5    A    
C42   H36   S    
C5    C7    S    
C1    O3    A    
C6    C8    S    
C2    O4    A    
O9    C35   S    
C36   H20   S    
C35   H18   S    
C38   H24   S    
C3    C9    S    
C42   H37   S    
C31   C32   D    
C28   H6    S    
C9    O11   S    
C48   H54   S    
O2    Zn2   S    
C40   H32   S    
C11   N2    S    
C45   C46   S    
C38   H25   S    
O3    Zn2   S    
C47   H51   S    
C37   H23   S    
C40   H31   S    
C12   C14   S    
C33   H12   S    
C46   H49   S    
C22   C24   A    
C33   H13   S    
C4    C10   S    
C19   C29   A    
C13   N1    S    
C11   C33   S    
O8    Zn1   S    
C18   O6    A    
C14   N2    S    
C7    C9    S    
C34   H16   S    
C44   H43   S    
C20   C22   A    
C37   H22   S    
C3    C5    S    
C39   H29   S    
C43   H40   S    
C25   C27   A    
C26   C28   A    
C44   H42   S    
O7    Zn2   S    
C35   H17   S    
C36   H21   S    
C21   C23   A    
C13   C16   S    
C15   N1    S    
C5    C10   S    
C16   H4    S    
C42   H38   S    
C11   C13   S    
C1    O1    A    
C48   H52   S    
C27   H5    S    
O5    Zn1   S    
C28   C30   A    
C17   C19   S    
C18   C20   S    
C23   C25   A    
C39   H28   S    
C38   H26   S    
C39   H27   S    
C5    C41   S    
N2    Zn2   S    
O10   C37   S    
C44   H44   S    
C8    C10   S    
C41   H35   S    
O11   C45   S    
C41   H34   S    
C14   C15   S    
C3    C43   S    
C29   O10   S    
C47   C48   S    
C43   H39   S    
C23   H8    S    
C32   C39   S    
