data_mof_unit_15454.cif
_audit_creation_date              2012-12-10T17:49:40-0500
_audit_creation_method            fapswitch 2.2
_symmetry_space_group_name_H-M    P1
_symmetry_Int_Tables_number       1
_space_group_crystal_system       triclinic
_cell_length_a                    14.779781
_cell_length_b                    14.73787
_cell_length_c                    15.891331
_cell_angle_alpha                 75.632718
_cell_angle_beta                  102.394827
_cell_angle_gamma                 115.478724
_cell_volume                      3003.98119735

loop_
_atom_site_label
_atom_site_type_symbol
_atom_type_description
_atom_site_fract_x
_atom_site_fract_y
_atom_site_fract_z
_atom_type_partial_charge
C1    C     C_R   0.880510 0.312162 0.514240 0.819176
C2    C     C_3   0.045277 0.425822 0.075129 -0.410228
C3    C     C_3   0.003011 0.502826 0.083221 0.159361
C4    C     C_3   0.066000 0.612792 0.036259 -0.167512
C5    C     C_3   0.072314 0.610374 0.939627 -0.233568
C6    C     C_1   0.002094 0.501318 0.175635 -0.050281
C7    C     C_1   0.999239 0.501003 0.823965 -0.056820
C8    C     C_1   0.999107 0.500303 0.748675 -0.111607
C9    C     C_R   0.813136 0.204056 0.532623 -0.074008
C10   C     C_R   0.186729 0.797223 0.469205 -0.051361
C11   C     C_R   0.766852 0.041938 0.631642 -0.020244
C12   C     C_R   0.999620 0.499857 0.659417 0.823782
C13   C     C_R   0.838882 0.138749 0.603605 -0.229696
C14   C     C_R   0.717261 0.170043 0.485858 -0.152400
C15   C     C_R   0.637143 0.083604 0.521567 0.099765
C16   C     C_R   0.664325 0.016128 0.593927 0.077254
C17   C     C_R   0.531880 0.061907 0.489108 -0.009054
C18   C     C_R   0.459501 0.963512 0.520778 0.063521
C19   C     C_R   0.489344 0.900259 0.593010 -0.195155
C20   C     C_R   0.588525 0.926983 0.629717 -0.160289
C21   C     C_R   0.493951 0.133600 0.430714 -0.090886
C22   C     C_R   0.388580 0.104802 0.404792 -0.087501
C23   C     C_R   0.119703 0.688066 0.483898 0.796068
C24   C     C_R   0.320407 0.003514 0.429745 0.067072
C25   C     C_R   0.356964 0.931554 0.483703 0.088461
C26   C     C_R   0.215339 0.972222 0.403172 -0.111578
C27   C     C_R   0.149420 0.870576 0.423538 -0.167519
C28   C     C_R   0.289735 0.827944 0.498517 -0.215696
C29   C     C_R   0.708871 0.650081 0.334647 -0.283427
C30   C     C_R   0.792705 0.625751 0.366537 0.066003
C31   C     C_R   0.715643 0.518911 0.492312 0.151892
C32   C     C_R   0.622592 0.530635 0.456420 -0.039565
C33   C     C_R   0.623176 0.602139 0.378913 0.101653
C34   C     C_R   0.000382 0.500166 0.340549 0.818712
C35   C     C_R   0.529346 0.473236 0.493574 0.071393
C36   C     C_R   0.444668 0.501348 0.463950 0.011509
C37   C     C_R   0.447592 0.571924 0.383603 -0.033860
C38   C     C_R   0.536994 0.622072 0.343800 -0.135588
C39   C     C_R   0.514017 0.380099 0.551178 -0.167640
C40   C     C_R   0.426718 0.323365 0.590291 -0.008503
C41   C     C_R   0.354591 0.365075 0.579196 0.060322
C42   C     C_R   0.360378 0.453004 0.514769 -0.025387
C43   C     C_R   0.279152 0.322015 0.634105 -0.204276
C44   C     C_R   0.203734 0.358105 0.622248 0.161508
C45   C     C_3   0.038237 0.420268 0.977305 -0.180230
C46   C     C_R   0.283456 0.489736 0.507422 -0.003537
C47   C     C_3   0.891699 0.476705 0.936514 -0.140350
C48   C     C_3   0.893053 0.469263 0.036230 -0.455996
C49   C     C_1   0.001336 0.500574 0.251111 -0.136725
C50   C     C_3   0.000484 0.502186 0.916493 0.079543
Cu1   Cu    Cu3+1 0.081750 0.475690 0.522550 0.943332
Cu2   Cu    Cu3+1 0.918250 0.524310 0.477450 0.995467
H1    H     H_    0.000675 0.348549 0.110312 0.163163
H2    H     H_    0.123837 0.446549 0.108412 0.228961
H3    H     H_    0.024039 0.660101 0.035933 0.189200
H4    H     H_    0.604318 0.877092 0.687900 0.185558
H5    H     H_    0.317114 0.769200 0.530346 0.153556
H6    H     H_    0.069671 0.848988 0.400676 0.157759
H7    H     H_    0.915077 0.163111 0.637191 0.178341
H8    H     H_    0.708758 0.213296 0.421751 0.147642
H9    H     H_    0.980420 0.343637 0.966957 0.137372
H10   H     H_    0.435507 0.831387 0.626550 0.149804
H11   H     H_    0.182737 0.025377 0.365943 0.163235
H12   H     H_    0.538028 0.674033 0.281882 0.186738
H13   H     H_    0.285782 0.559419 0.464233 0.135648
H14   H     H_    0.709838 0.703678 0.273877 0.155518
H15   H     H_    0.856670 0.659906 0.329810 0.141888
H16   H     H_    0.869280 0.540477 0.901006 0.234149
H17   H     H_    0.566209 0.344834 0.561392 0.221104
H18   H     H_    0.279096 0.260099 0.687567 0.212890
H19   H     H_    0.847259 0.390028 0.067210 0.180611
H20   H     H_    0.857577 0.518683 0.045361 0.195101
H21   H     H_    0.150533 0.623591 0.933486 0.177274
N1    N     N_R   0.795410 0.560790 0.443550 -0.216286
N2    N     N_R   0.204590 0.439170 0.556520 -0.217559
O1    O     O_R   0.977910 0.338120 0.529720 -0.625803
O2    O     O_R   0.839850 0.379180 0.491640 -0.503111
O3    O     O_R   0.069060 0.479460 0.639610 -0.607068
O4    O     O_R   0.931000 0.520530 0.601530 -0.553692
O5    O     O_R   0.160150 0.620820 0.508360 -0.584903
O6    O     O_R   0.022090 0.661880 0.470280 -0.588270
O7    O     O_R   0.069000 0.479470 0.398470 -0.575034
O8    O     O_R   0.930940 0.520540 0.360390 -0.588923
C51   C     C_2   0.135186 0.424056 0.955754 0.862610
O9    O     O_2   0.216596 0.492641 0.973086 -0.555480
O10   O     O_R   0.130788 0.347080 0.916358 -0.722393
H22   H     H_    0.199625 0.357198 0.904731 0.362989
C52   C     C_2   0.349777 0.181886 0.350858 0.876941
O11   O     O_2   0.362328 0.256266 0.380236 -0.595320
O12   O     O_R   0.300415 0.169631 0.266364 -0.728503
H23   H     H_    0.277958 0.227043 0.236202 0.344500
C53   C     C_2   0.801522 0.971435 0.701211 0.845168
O13   O     O_2   0.864485 0.004404 0.762116 -0.536843
O14   O     O_R   0.765947 0.868413 0.695061 -0.748772
H24   H     H_    0.796310 0.828771 0.745730 0.367054
C54   C     C_2   0.558912 0.241135 0.397898 0.838373
O15   O     O_2   0.611024 0.298645 0.449113 -0.595716
O16   O     O_R   0.558945 0.276902 0.307755 -0.734636
H25   H     H_    0.605503 0.351590 0.293396 0.339617
C55   C     C_2   0.124938 0.305234 0.682819 0.392444
H26   H     H_    0.055934 0.315847 0.671343 0.129453
O17   O     O_2   0.136229 0.245877 0.749009 -0.516326
C56   C     C_2   0.413490 0.219460 0.640401 0.845430
O18   O     O_2   0.330377 0.148712 0.637209 -0.580348
O19   O     O_R   0.497510 0.201518 0.687484 -0.726532
H27   H     H_    0.479556 0.127542 0.716769 0.346937
C57   C     C_2   0.732886 0.478047 0.586392 0.878332
O20   O     O_2   0.733857 0.524442 0.640799 -0.555032
O21   O     O_R   0.743521 0.384939 0.613279 -0.709151
H28   H     H_    0.752939 0.364627 0.679305 0.357452
C58   C     C_2   0.355325 0.580741 0.330033 0.374583
H29   H     H_    0.282735 0.516518 0.334371 0.086820
O22   O     O_2   0.359654 0.659234 0.279098 -0.519882
C59   C     C_2   0.811765 0.380857 0.905540 0.382807
H30   H     H_    0.812620 0.306559 0.935407 0.081100
O23   O     O_2   0.744307 0.386015 0.847302 -0.491590
C60   C     C_2   0.053980 0.697492 0.874742 0.374326
H31   H     H_    0.098291 0.734934 0.820264 0.095417
O24   O     O_2   0.988515 0.724544 0.880514 -0.513719
C61   C     C_2   0.169762 0.663874 0.084903 0.860740
O25   O     O_2   0.234964 0.631095 0.093052 -0.528289
O26   O     O_R   0.190649 0.749793 0.120163 -0.736201
H32   H     H_    0.262078 0.777783 0.150943 0.371467

loop_
_geom_bond_atom_site_label_1
_geom_bond_atom_site_label_2
_ccdc_geom_bond_type
C10   C27   A    
C47   C59   S    
Cu2   O8    S    
C1    O2    A    
C41   C42   A    
C36   C42   A    
C19   C20   A    
C43   C44   A    
C3    C6    S    
C59   H30   S    
C7    C8    T    
C28   H5    S    
C25   C28   A    
C26   C27   A    
C29   C30   A    
C36   C37   A    
C24   C26   A    
Cu2   N1    S    
C60   O24   D    
C30   N1    A    
C19   H10   S    
C15   C16   A    
C12   O4    A    
C29   C33   A    
C3    C48   S    
C18   C19   A    
C42   C46   A    
C9    C13   A    
Cu1   O5    S    
C53   O13   D    
C11   C53   S    
C35   C36   A    
C54   O16   S    
C12   O3    A    
C47   C48   S    
C57   O20   D    
C22   C52   S    
C23   O5    A    
Cu2   O4    S    
C30   H15   S    
C16   C20   A    
C21   C22   A    
C41   C43   A    
Cu2   O6    S    
C18   C25   A    
C48   H20   S    
C55   O17   D    
C46   N2    A    
C61   O26   S    
C47   C50   S    
C38   H12   S    
C2    C45   S    
Cu1   Cu2   S    
C32   C35   A    
C1    C9    S    
C51   O9    D    
C46   H13   S    
C58   O22   D    
C2    H2    S    
C39   C40   A    
C9    C14   A    
O10   H22   S    
C44   C55   S    
C31   N1    A    
C27   H6    S    
C17   C21   A    
C5    C60   S    
C44   N2    A    
C35   C39   A    
C26   H11   S    
C37   C38   A    
C11   C16   A    
C31   C32   A    
C8    C12   S    
C54   O15   D    
C53   O14   S    
C17   C18   A    
C39   H17   S    
C56   O19   S    
C24   C25   A    
Cu1   O7    S    
C40   C41   A    
C52   O12   S    
C43   H18   S    
C4    H3    S    
C22   C24   A    
C5    C50   S    
C45   C51   S    
C34   O8    A    
C48   H19   S    
Cu2   O2    S    
C47   H16   S    
C56   O18   D    
C61   O25   D    
C10   C28   A    
C15   C17   A    
C34   C49   S    
C23   O6    A    
C58   H29   S    
C1    O1    A    
C31   C57   S    
C4    C61   S    
C7    C50   S    
Cu1   N2    S    
C4    C5    S    
C2    H1    S    
C59   O23   D    
C13   H7    S    
C21   C54   S    
C10   C23   S    
C14   H8    S    
O19   H27   S    
C33   C38   A    
C32   C33   A    
C2    C3    S    
Cu1   O3    S    
O21   H28   S    
C40   C56   S    
C11   C13   A    
O12   H23   S    
C57   O21   S    
C45   C50   S    
C45   H9    S    
C55   H26   S    
C20   H4    S    
C6    C49   T    
C5    H21   S    
O14   H24   S    
C37   C58   S    
C29   H14   S    
C52   O11   D    
O16   H25   S    
Cu1   O1    S    
C14   C15   A    
C51   O10   S    
C34   O7    A    
O26   H32   S    
C60   H31   S    
C3    C4    S    
