data_mof_unit_66956.cif
_audit_creation_date              2012-12-11T17:40:55-0500
_audit_creation_method            fapswitch 2.2
_symmetry_space_group_name_H-M    P1
_symmetry_Int_Tables_number       1
_space_group_crystal_system       triclinic
_cell_length_a                    8.20216
_cell_length_b                    12.66541
_cell_length_c                    14.185163
_cell_angle_alpha                 92.558669
_cell_angle_beta                  90.829031
_cell_angle_gamma                 98.406937
_cell_volume                      1455.99100628

loop_
_atom_site_label
_atom_site_type_symbol
_atom_type_description
_atom_site_fract_x
_atom_site_fract_y
_atom_site_fract_z
_atom_type_partial_charge
Ba1   Ba    Ba6+2 0.855630 0.555280 0.454520 1.631403
Ba2   Ba    Ba6+2 0.334200 0.444810 0.545490 1.636926
C1    C     C_3   0.602930 0.948596 0.177532 -0.412184
C2    C     C_R   0.182819 0.499225 0.196110 0.042284
C3    C     C_R   0.338224 0.550424 0.226155 -0.293947
C4    C     C_3   0.142217 0.805960 0.194388 0.362925
C5    C     C_R   0.450491 0.597791 0.162383 0.018343
C6    C     C_R   0.405116 0.601352 0.067523 -0.148338
C7    C     C_R   0.247806 0.553519 0.034880 -0.003100
C8    C     C_R   0.136292 0.498934 0.098424 -0.028919
C9    C     C_R   0.051032 0.504860 0.902321 -0.020421
C10   C     C_R   0.938732 0.451486 0.966107 0.002513
C11   C     C_R   0.006514 0.501506 0.804149 0.054895
C12   C     C_3   0.647120 0.857058 0.233931 0.341326
C13   C     C_R   0.852896 0.447589 0.773778 -0.293292
C14   C     C_R   0.738420 0.403668 0.837971 0.002426
C15   C     C_R   0.781358 0.403773 0.933509 -0.147177
C16   C     C_3   0.126689 0.844555 0.095023 -0.370798
C17   C     C_R   0.203362 0.557973 0.938945 -0.038789
C18   C     C_R   0.762692 0.176652 0.538085 -0.270130
C19   C     C_R   0.430391 0.813187 0.460241 -0.286006
C20   C     C_R   0.405893 0.995118 0.427611 -0.103911
C21   C     C_R   0.341505 0.887504 0.422441 -0.004485
C22   C     C_R   0.576782 0.846254 0.511792 0.061389
C23   C     C_3   0.473972 0.309872 0.257606 0.306181
C24   C     C_R   0.640803 0.956928 0.521932 -0.052224
C25   C     C_R   0.555039 0.031677 0.477279 -0.063354
C26   C     C_R   0.618534 0.141458 0.485564 0.040442
C27   C     C_R   0.851800 0.104366 0.578542 -0.025620
C28   C     C_3   0.242502 0.761532 0.657035 0.281787
C29   C     C_R   0.788465 0.995459 0.573567 -0.092802
C30   C     C_3   0.230981 0.880027 0.666909 -0.352897
C31   C     C_3   0.968730 0.236778 0.344567 0.280764
C32   C     C_3   0.955364 0.117272 0.323292 -0.351477
C33   C     C_3   0.712259 0.672691 0.738775 0.300024
C34   C     C_3   0.452852 0.287096 0.151566 -0.396143
C35   C     C_3   0.724724 0.695576 0.845133 -0.400882
C36   C     C_3   0.990823 0.192590 0.873209 -0.152785
C37   C     C_3   0.114413 0.189464 0.954599 -0.373152
C38   C     C_3   0.983554 0.099278 0.798744 0.389816
C39   C     C_3   0.980037 0.990786 0.843038 -0.355448
C40   C     C_3   0.528626 0.144686 0.764247 0.369095
C41   C     C_3   0.538512 0.041436 0.813376 -0.407300
C42   C     C_R   0.983218 0.446895 0.061942 -0.038744
H1    H     H_    0.738731 0.889294 0.290272 0.078475
H2    H     H_    0.829574 0.649703 0.713763 0.019306
H3    H     H_    0.610131 0.606213 0.723339 0.066648
H4    H     H_    0.554658 0.008158 0.225231 0.104183
H5    H     H_    0.835021 0.755159 0.863520 0.122659
H6    H     H_    0.735202 0.621563 0.882014 0.068041
H7    H     H_    0.612763 0.727288 0.870020 0.120232
H8    H     H_    0.533143 0.820089 0.268106 -0.051994
H9    H     H_    0.507058 0.917571 0.123208 0.113226
H10   H     H_    0.356691 0.330878 0.285510 0.018417
H11   H     H_    0.574120 0.378356 0.270556 0.058230
H12   H     H_    0.252905 0.908738 0.741269 0.128020
H13   H     H_    0.349605 0.221096 0.136436 0.127577
H14   H     H_    0.425401 0.359360 0.116675 0.062829
H15   H     H_    0.567889 0.263748 0.122164 0.119867
H16   H     H_    0.713260 0.987931 0.141490 0.128332
H17   H     H_    0.165025 0.785362 0.042932 0.067767
H18   H     H_    0.864902 0.093652 0.760167 -0.058761
H19   H     H_    0.101347 0.983577 0.875881 0.113983
H20   H     H_    0.884045 0.979701 0.897562 0.079704
H21   H     H_    0.950306 0.925788 0.787723 0.113839
H22   H     H_    0.652278 0.175299 0.737556 -0.081408
H23   H     H_    0.323259 0.926379 0.622866 0.068505
H24   H     H_    0.440880 0.127887 0.703242 0.097526
H25   H     H_    0.632676 0.055752 0.871103 0.107914
H26   H     H_    0.571488 0.979473 0.762152 0.088437
H27   H     H_    0.059732 0.728701 0.198866 0.092992
H28   H     H_    0.418801 0.012732 0.845624 0.125892
H29   H     H_    0.375030 0.549509 0.299645 0.071964
H30   H     H_    0.492996 0.640570 0.019336 0.070320
H31   H     H_    0.692233 0.366512 0.982033 0.070230
H32   H     H_    0.818258 0.445113 0.699725 0.068947
H33   H     H_    0.896774 0.401799 0.107074 0.100367
H34   H     H_    0.106572 0.894062 0.644581 0.126235
H35   H     H_    0.290082 0.602424 0.893497 0.092856
H36   H     H_    0.334687 0.049059 0.394713 0.104038
H37   H     H_    0.857237 0.942528 0.609050 0.091749
H38   H     H_    0.811501 0.260900 0.542415 0.062560
H39   H     H_    0.271692 0.793437 0.206689 -0.069545
H40   H     H_    0.379971 0.729257 0.454495 0.069192
H41   H     H_    0.997020 0.854462 0.079111 0.152643
H42   H     H_    0.206538 0.922486 0.088356 0.106469
H43   H     H_    0.373054 0.750738 0.657723 0.020058
H44   H     H_    0.182085 0.730461 0.588735 0.061073
H45   H     H_    0.847737 0.256886 0.365323 0.003011
H46   H     H_    0.065465 0.127938 0.004403 0.106564
H47   H     H_    0.233566 0.170967 0.928170 0.191004
H48   H     H_    0.135942 0.268090 0.993947 0.122693
H49   H     H_    0.023179 0.268732 0.837281 0.111195
H50   H     H_    0.866868 0.193068 0.903558 0.051944
H51   H     H_    0.059257 0.258664 0.403484 0.084749
H52   H     H_    0.866070 0.093122 0.264282 0.113348
H53   H     H_    0.912813 0.072951 0.385948 0.088267
H54   H     H_    0.077570 0.096587 0.303202 0.142435
O1    O     O_2   0.887370 0.460630 0.272300 -0.466423
O2    O     O_2   0.187037 0.112559 0.561093 -0.482374
O3    O     O_3   0.119871 0.117048 0.738834 -0.584296
O4    O     O_3   0.129410 0.451380 0.388510 -0.494647
O5    O     O_3   0.575400 0.626570 0.547370 -0.494280
O6    O     O_2   0.344320 0.238700 0.455090 -0.464565
O7    O     O_3   0.513971 0.218403 0.299303 -0.650389
O8    O     O_2   0.399355 0.409729 0.834854 -0.475942
O9    O     O_3   0.471830 0.217196 0.829031 -0.594101
O10   O     O_3   0.670210 0.653170 0.329170 -0.476755
O11   O     O_2   0.789272 0.592275 0.164806 -0.493663
O12   O     O_3   0.682444 0.765418 0.695894 -0.648406
O13   O     O_3   0.017235 0.289091 0.262699 -0.641212
O14   O     O_3   0.717115 0.785949 0.173070 -0.594384
O15   O     O_2   0.845380 0.761330 0.544970 -0.462777
O16   O     O_3   0.088930 0.704860 0.376040 -0.487989
O17   O     O_2   0.003827 0.889273 0.435171 -0.482953
O18   O     O_3   0.096613 0.882503 0.259767 -0.603348
O19   O     O_2   0.302330 0.539400 0.727760 -0.472640
O20   O     O_3   0.060300 0.548700 0.611500 -0.490728
O21   O     O_3   0.519500 0.346920 0.670840 -0.474605
O22   O     O_3   0.167992 0.711463 0.734625 -0.644047
O23   O     O_3   0.614310 0.373510 0.452640 -0.479826
O24   O     O_3   0.100780 0.295230 0.623970 -0.465307
P1    P     P_3+3 0.054400 0.427280 0.286870 0.968557
P2    P     P_3+3 0.668300 0.742890 0.573060 0.963249
P3    P     P_3+3 0.133152 0.842934 0.373982 0.950248
P4    P     P_3+3 0.135310 0.572810 0.713130 0.974141
P5    P     P_3+3 0.060921 0.155369 0.626898 0.954616
P6    P     P_3+3 0.657025 0.654910 0.206373 0.958027
P7    P     P_3+3 0.526412 0.241724 0.421932 0.931966
P8    P     P_3+3 0.531985 0.347040 0.793794 0.971834

loop_
_geom_bond_atom_site_label_1
_geom_bond_atom_site_label_2
_ccdc_geom_bond_type
C28   C30   S    
C41   H28   S    
C18   H38   S    
O2    P5    D    
C1    H9    S    
C34   H15   S    
C33   H3    S    
Ba1   O1    S    
Ba2   O20   S    
C23   O7    S    
C5    C6    A    
C12   O14   S    
C9    C17   A    
C24   C25   A    
C16   H42   S    
C42   H33   S    
C33   C35   S    
C22   C24   A    
C26   P7    S    
C34   H14   S    
C36   C37   S    
C35   H7    S    
O22   P4    S    
Ba2   O4    S    
C13   C14   A    
C1    H4    S    
C22   P2    S    
O21   P8    S    
C38   H18   S    
Ba1   Ba2   S    
O24   P5    S    
O12   P2    S    
C38   O3    S    
C7    C17   A    
C12   H8    S    
C14   C15   A    
C10   C15   A    
C31   O13   S    
C5    P6    S    
C14   P8    S    
O19   P4    D    
Ba1   O5    S    
C37   H46   S    
C21   P3    S    
C1    H16   S    
C13   H32   S    
C32   H53   S    
C41   H25   S    
C40   H24   S    
Ba1   O15   S    
O9    P8    S    
O5    P2    S    
C31   H51   S    
C37   H47   S    
Ba2   O19   S    
C12   H1    S    
C18   C27   A    
Ba2   O24   S    
C19   C21   A    
C4    H27   S    
C4    C16   S    
C16   H41   S    
C8    C42   A    
C23   H10   S    
C34   H13   S    
O23   P7    S    
C3    C5    A    
O16   P3    S    
C6    C7    A    
C39   H21   S    
C18   C26   A    
O13   P1    S    
C2    P1    S    
Ba1   P1    S    
O3    P5    S    
C31   H45   S    
C35   H5    S    
O11   P6    D    
C19   H40   S    
Ba2   O6    S    
C9    C10   A    
C36   H50   S    
C6    H30   S    
C31   C32   S    
O10   P6    S    
C17   H35   S    
C33   O12   S    
C4    O18   S    
C1    C12   S    
C30   H23   S    
C11   P4    S    
Ba2   P4    S    
C38   C39   S    
C41   H26   S    
O18   P3    S    
C27   P5    S    
C40   O9    S    
C40   C41   S    
C39   H19   S    
C28   H44   S    
O4    P1    S    
C37   H48   S    
O1    P1    D    
C7    C8    A    
Ba2   O23   S    
O8    P8    D    
C4    H39   S    
C23   C34   S    
C23   H11   S    
C32   H52   S    
C2    C3    A    
O17   P3    D    
O7    P7    S    
Ba2   O21   S    
C16   H17   S    
C29   H37   S    
C20   C25   A    
C11   C13   A    
Ba1   P2    S    
C20   H36   S    
C10   C42   A    
C36   C38   S    
C35   H6    S    
C9    C11   A    
O15   P2    D    
C28   O22   S    
Ba2   O5    S    
C36   H49   S    
C32   H54   S    
Ba1   O20   S    
C3    H29   S    
O6    P7    D    
Ba1   O23   S    
O14   P6    S    
Ba1   O10   S    
C30   H34   S    
C24   C29   A    
C27   C29   A    
Ba1   O16   S    
C19   C22   A    
C25   C26   A    
C40   H22   S    
C20   C21   A    
O20   P4    S    
C39   H20   S    
C28   H43   S    
C33   H2    S    
C2    C8    A    
Ba1   O4    S    
C30   H12   S    
C15   H31   S    
