data_mof_unit_11167.cif
_audit_creation_date              2012-12-11T14:58:03-0500
_audit_creation_method            fapswitch 2.2
_symmetry_space_group_name_H-M    P1
_symmetry_Int_Tables_number       1
_space_group_crystal_system       triclinic
_cell_length_a                    6.949674
_cell_length_b                    16.502901
_cell_length_c                    17.371081
_cell_angle_alpha                 100.284412
_cell_angle_beta                  90.884101
_cell_angle_gamma                 90.319462
_cell_volume                      1959.97309858

loop_
_atom_site_label
_atom_site_type_symbol
_atom_type_description
_atom_site_fract_x
_atom_site_fract_y
_atom_site_fract_z
_atom_type_partial_charge
O1    O     O_R   0.506180 0.438940 0.579430 -0.518510
O2    O     O_R   0.170520 0.406230 0.413590 -0.550080
O3    O     O_R   0.005180 0.561060 0.420570 -0.523136
C1    C     C_R   0.338304 0.382384 0.386046 0.672952
O4    O     O_R   0.176140 0.429310 0.578370 -0.520625
O5    O     O_R   0.010830 0.584300 0.586530 -0.516621
C2    C     C_R   0.346140 0.412506 0.603816 0.779879
O6    O     O_R   0.500520 0.415700 0.413470 -0.544312
O7    O     O_3   0.340830 0.550820 0.502480 -0.349983
V1    V     V_3+5 0.064040 0.490570 0.499540 1.549675
O8    O     O_R   0.681400 0.593770 0.586410 -0.527179
C3    C     C_R   0.851343 0.617001 0.614590 0.868859
O9    O     O_R   0.675790 0.570690 0.421630 -0.519367
C4    C     C_R   0.842833 0.585728 0.394290 0.786967
V2    V     V_3+5 0.564650 0.509430 0.500460 1.547276
O10   O     O_3   0.837730 0.449180 0.497520 -0.369516
C5    C     C_R   0.928132 0.866666 0.170790 -0.115858
C6    C     C_R   0.843051 0.638377 0.332267 -0.163618
C7    C     C_R   0.664280 0.690749 0.229014 -0.204924
C8    C     C_R   0.686102 0.632486 0.278153 0.291082
C9    C     C_R   0.987916 0.698611 0.329518 0.118682
C10   C     C_R   0.967064 0.755595 0.277812 0.056358
C11   C     C_R   0.802343 0.752519 0.228593 0.084442
C12   C     C_R   0.781564 0.809175 0.177080 -0.212140
C13   C     C_R   0.088907 0.870957 0.222306 0.274034
C14   C     C_R   0.106773 0.816537 0.274614 -0.107814
H1    H     H_    0.655003 0.805973 0.139721 0.142093
H2    H     H_    0.541705 0.685906 0.189016 0.121148
H3    H     H_    0.233166 0.822949 0.312213 0.205850
C15   C     C_R   0.001760 0.906203 0.736209 -0.170011
C16   C     C_R   0.029030 0.925739 0.662765 -0.176259
C17   C     C_R   0.977191 0.869660 0.596628 -0.120736
C18   C     C_R   0.903963 0.791910 0.603016 0.270828
C19   C     C_R   0.899748 0.766150 0.677415 0.023646
C20   C     C_R   0.935040 0.827059 0.745284 0.023405
C21   C     C_R   0.862927 0.682654 0.685589 -0.154233
C22   C     C_R   0.846887 0.662081 0.762118 -0.027793
C23   C     C_R   0.847705 0.727330 0.829295 -0.023565
C24   C     C_R   0.897849 0.809744 0.820607 -0.127047
C25   C     C_R   0.828719 0.578736 0.775457 0.249057
C26   C     C_R   0.818552 0.562307 0.850948 -0.114404
C27   C     C_R   0.804019 0.624690 0.915122 0.266374
C28   C     C_R   0.804516 0.707213 0.904013 0.176288
H4    H     H_    0.034376 0.954417 0.785542 0.125850
H5    H     H_    0.081533 0.986324 0.657283 0.145657
H6    H     H_    0.984269 0.888338 0.540024 0.162853
H7    H     H_    0.817259 0.499007 0.860088 0.176199
H8    H     H_    0.075948 0.466150 0.149474 0.131935
C29   C     C_R   0.510746 0.226551 0.401724 -0.183239
C30   C     C_R   0.610541 0.155905 0.410834 -0.149864
C31   C     C_R   0.652625 0.096756 0.345881 0.361538
C32   C     C_R   0.593153 0.107555 0.271288 -0.125865
C33   C     C_R   0.487609 0.177696 0.260251 0.013623
C34   C     C_R   0.449474 0.239560 0.326916 0.078529
C35   C     C_R   0.424014 0.187783 0.184424 -0.153104
C36   C     C_R   0.343314 0.265061 0.175656 0.037653
C37   C     C_R   0.289552 0.323308 0.242698 0.021393
C38   C     C_R   0.349084 0.312266 0.318434 -0.160428
C39   C     C_R   0.328988 0.289291 0.101622 0.270540
C40   C     C_R   0.225137 0.359590 0.092364 -0.155100
C41   C     C_R   0.151816 0.410934 0.157011 -0.194875
C42   C     C_R   0.188310 0.394685 0.231692 -0.152539
H9    H     H_    0.480433 0.270443 0.454095 0.101706
H10   H     H_    0.655386 0.147251 0.468769 0.139026
H11   H     H_    0.631018 0.060420 0.222443 0.157841
H12   H     H_    0.207148 0.376143 0.035128 0.123759
H13   H     H_    0.139451 0.439582 0.280363 0.134061
C43   C     C_R   0.410623 0.133219 0.828747 -0.056172
C44   C     C_R   0.356937 0.362037 0.666514 -0.069990
C45   C     C_R   0.289678 0.345659 0.800065 -0.206480
C46   C     C_R   0.308190 0.396267 0.743816 0.313125
C47   C     C_R   0.417019 0.279270 0.649976 -0.269749
C48   C     C_R   0.416061 0.230069 0.708783 0.159599
C49   C     C_R   0.340238 0.262208 0.782742 0.103679
C50   C     C_R   0.325266 0.211713 0.839705 -0.210273
C51   C     C_R   0.494317 0.103156 0.756135 -0.177389
C52   C     C_R   0.490967 0.149826 0.695792 -0.146678
H14   H     H_    0.250841 0.235460 0.892772 0.110078
H15   H     H_    0.559688 0.042820 0.745706 0.120883
H16   H     H_    0.245732 0.372642 0.858601 0.136921
H17   H     H_    0.552379 0.124169 0.639843 0.126529
H18   H     H_    0.465643 0.253569 0.591848 0.112020
O11   O     O_R   0.265840 0.084300 0.086750 -0.526314
O12   O     O_R   0.589750 0.070740 0.921690 -0.533921
O13   O     O_R   0.755020 0.915730 0.913400 -0.522220
C53   C     C_R   0.420326 0.083892 0.893055 0.681309
O14   O     O_R   0.595830 0.093740 0.086480 -0.533277
O15   O     O_R   0.761150 0.938890 0.079360 -0.530740
C54   C     C_R   0.429171 0.116422 0.116126 0.791232
O16   O     O_R   0.259710 0.061140 0.920790 -0.547351
O17   O     O_3   0.425260 0.949200 0.997610 -0.370385
V3    V     V_3+5 0.702060 0.009430 0.000450 1.470462
O18   O     O_R   0.090530 0.929220 0.078150 -0.526373
C55   C     C_R   0.924593 0.916356 0.106973 0.750825
O19   O     O_R   0.084440 0.906220 0.913360 -0.555828
C56   C     C_R   0.913391 0.879279 0.888975 0.748525
V4    V     V_3+5 0.201450 0.990520 0.999290 1.446311
O20   O     O_3   0.928380 0.050800 0.002390 -0.372069
N1    N     N_2   0.811370 0.745515 0.536019 -0.564410
H19   H     H_    0.871599 0.753519 0.484149 0.279947
C57   C     C_3   0.605784 0.757717 0.534595 -0.458679
H20   H     H_    0.572561 0.821073 0.525196 0.209235
H21   H     H_    0.540160 0.747309 0.589990 0.196733
H22   H     H_    0.542237 0.712805 0.486183 0.252855
Br1   Br    Br    0.827435 0.477727 0.700144 -0.514108
N2    N     N_2   0.735759 0.768147 0.965200 -0.526551
H23   H     H_    0.811560 0.771322 0.016831 0.219226
C58   C     C_3   0.528816 0.765625 0.973981 -0.426640
H24   H     H_    0.485494 0.811570 0.025046 0.193878
H25   H     H_    0.480146 0.704374 0.984303 0.184557
H26   H     H_    0.455367 0.779555 0.920637 0.202682
Br2   Br    Br    0.789385 0.000101 0.359489 -0.524054
Br3   Br    Br    0.288193 0.952416 0.228286 -0.545823
N3    N     N_2   0.436101 0.247319 0.038463 -0.535498
H27   H     H_    0.351601 0.208659 0.999444 0.237329
C59   C     C_3   0.577021 0.295424 0.005183 -0.541349
H28   H     H_    0.666769 0.253618 0.963388 0.209556
H29   H     H_    0.672900 0.329297 0.052036 0.203441
H30   H     H_    0.505297 0.339761 0.973217 0.183528
Br4   Br    Br    0.293883 0.513274 0.777487 -0.593197
N4    N     N_2   0.554432 0.564943 0.269734 -0.489877
H31   H     H_    0.418360 0.576148 0.249642 0.270054
C60   C     C_3   0.631915 0.486491 0.232533 -0.543260
H32   H     H_    0.594177 0.438786 0.267181 0.214584
H33   H     H_    0.791209 0.488235 0.228847 0.171601
H34   H     H_    0.570944 0.468696 0.172347 0.195336
Br5   Br    Br    0.212950 0.704859 0.396719 -0.629117
N5    N     N_2   0.790815 0.603733 0.991288 -0.523910
H35   H     H_    0.835516 0.646077 0.039224 0.256565
C61   C     C_3   0.638635 0.547903 0.005314 -0.551748
H36   H     H_    0.543613 0.579388 0.052002 0.188695
H37   H     H_    0.703286 0.493620 0.025063 0.200168
H38   H     H_    0.548362 0.526471 0.952109 0.223648

loop_
_geom_bond_atom_site_label_1
_geom_bond_atom_site_label_2
_ccdc_geom_bond_type
C35   C36   A    
C31   Br2   S    
C29   H9    S    
C6    C9    A    
C43   C53   S    
C48   C49   A    
C4    C6    S    
C7    C11   A    
C7    C8    A    
C51   H15   S    
C1    O6    A    
N5    H35   S    
C8    N4    S    
N3    H27   S    
H8    C41   S    
V3    O20   S    
C60   H32   S    
C33   C34   A    
C59   H28   S    
C43   C50   A    
C57   H20   S    
C15   C20   A    
C21   C22   A    
O12   C53   A    
C22   C25   A    
O5    C3    A    
C23   C24   A    
O13   C56   A    
C60   H33   S    
N2    H23   S    
V2    O10   S    
C30   H10   S    
C58   H24   S    
C19   C20   A    
C26   C27   A    
C44   C46   A    
C36   C39   A    
O8    V2    S    
O15   V3    S    
C27   C28   A    
C58   H25   S    
C45   C49   A    
C11   C12   A    
C12   H1    S    
C61   H37   S    
O1    V2    S    
C9    Br5   S    
O7    V1    S    
O16   V4    S    
C6    C8    A    
C27   N5    S    
C40   H12   S    
C39   C40   A    
C57   H21   S    
O9    C4    A    
O11   V4    S    
C15   H4    S    
O13   V3    S    
V4    O20   S    
C33   C35   A    
O11   C54   A    
O15   C55   A    
C5    C12   A    
C49   C50   A    
C45   H16   S    
C31   C32   A    
C37   C42   A    
C51   C52   A    
C53   O16   A    
O17   V3    S    
O4    C2    A    
C60   H34   S    
C30   C31   A    
C13   C14   A    
C40   C41   A    
C18   N1    S    
C28   N2    S    
C44   C47   A    
O2    C1    A    
C2    C44   S    
C22   C23   A    
C13   Br3   S    
C16   C17   A    
C52   H17   S    
O19   V4    S    
C18   C19   A    
C26   H7    S    
O18   C55   A    
C43   C51   A    
O17   V4    S    
C7    H2    S    
N4    H31   S    
C45   C46   A    
O3    C4    A    
C42   H13   S    
C25   C26   A    
N1    C57   S    
O6    V2    S    
O9    V2    S    
C10   C14   A    
C61   H38   S    
C3    C21   S    
C36   C37   A    
O2    V1    S    
O18   V4    S    
O14   V3    S    
C32   C33   A    
C34   C38   A    
O1    C2    A    
C17   H6    S    
C47   C48   A    
N5    C61   S    
O5    V1    S    
N3    C59   S    
O8    C3    A    
C58   H26   S    
C57   H22   S    
C59   H30   S    
C5    C13   A    
C17   C18   A    
O14   C54   A    
C61   H36   S    
O7    V2    S    
O4    V1    S    
C35   C54   S    
O3    V1    S    
V1    O10   S    
N1    H19   S    
C37   C38   A    
C15   C16   A    
N2    C58   S    
C39   N3    S    
C20   C24   A    
C59   H29   S    
C19   C21   A    
C41   C42   A    
C50   H14   S    
C24   C56   S    
N4    C60   S    
C46   Br4   S    
C23   C28   A    
C14   H3    S    
C29   C30   A    
C16   H5    S    
C1    C38   S    
O19   C56   A    
C48   C52   A    
C10   C11   A    
C5    C55   S    
O12   V3    S    
C9    C10   A    
C47   H18   S    
C32   H11   S    
C29   C34   A    
C25   Br1   S    
