data_mof_unit_23877.cif
_audit_creation_date              2012-12-10T17:43:17-0500
_audit_creation_method            fapswitch 2.2
_symmetry_space_group_name_H-M    P1
_symmetry_Int_Tables_number       1
_space_group_crystal_system       triclinic
_cell_length_a                    15.009089
_cell_length_b                    13.891178
_cell_length_c                    10.65653
_cell_angle_alpha                 90.458426
_cell_angle_beta                  86.545784
_cell_angle_gamma                 89.562767
_cell_volume                      2217.64107251

loop_
_atom_site_label
_atom_site_type_symbol
_atom_type_description
_atom_site_fract_x
_atom_site_fract_y
_atom_site_fract_z
_atom_type_partial_charge
C1    C     C_R   0.329298 0.500292 0.501317 0.778919
C2    C     C_R   0.670682 0.499643 0.498175 0.774769
C3    C     C_R   0.953016 0.499943 0.497574 -0.000686
C4    C     C_R   0.046856 0.500474 0.500661 0.000128
C5    C     C_R   0.912350 0.508882 0.381070 0.081790
C6    C     C_R   0.087401 0.494291 0.617511 0.081000
C7    C     C_R   0.940087 0.479191 0.726235 0.138396
C8    C     C_R   0.060011 0.510542 0.270741 0.129576
C9    C     C_R   0.033015 0.480909 0.728136 -0.170506
C10   C     C_R   0.966971 0.511227 0.269074 -0.172279
C11   C     C_R   0.434887 0.795167 0.570085 0.094565
C12   C     C_R   0.564881 0.204833 0.429571 0.107878
C13   C     C_R   0.563885 0.793181 0.427886 0.100589
C14   C     C_R   0.436271 0.206925 0.572484 0.128192
C15   C     C_R   0.563512 0.895900 0.424365 -0.019489
C16   C     C_R   0.436265 0.104196 0.575479 -0.023723
C17   C     C_R   0.435777 0.897980 0.574683 -0.005787
C18   C     C_R   0.563876 0.102061 0.424906 -0.007855
C19   C     C_R   0.499776 0.948394 0.499749 0.066477
C20   C     C_R   0.499884 0.051673 0.499905 0.060171
C21   C     C_R   0.624353 0.947708 0.345337 -0.168448
C22   C     C_R   0.375197 0.052398 0.654144 -0.169065
C23   C     C_R   0.375187 0.951930 0.654111 -0.154445
C24   C     C_R   0.624320 0.048144 0.345278 -0.152066
C25   C     C_R   0.502333 0.499626 0.259579 0.777687
C26   C     C_R   0.498578 0.500384 0.740414 0.781578
C27   C     C_3   0.514541 0.590584 0.042507 -0.216728
C28   C     C_3   0.487826 0.409482 0.957480 -0.217642
C29   C     C_3   0.579764 0.533774 0.949430 -0.183923
C30   C     C_3   0.422527 0.466361 0.050400 -0.198543
C31   C     C_3   0.435783 0.556326 0.968794 0.184111
C32   C     C_3   0.566614 0.443827 0.031216 0.195108
C33   C     C_3   0.499319 0.500900 0.876930 -0.018766
C34   C     C_3   0.502893 0.499183 0.123003 -0.011885
C35   C     C_R   0.818010 0.511947 0.379868 -0.012567
C36   C     C_R   0.181545 0.498372 0.619827 -0.013244
C37   C     C_R   0.767194 0.498672 0.493673 -0.099625
C38   C     C_R   0.232760 0.500674 0.504915 -0.095031
C39   C     C_R   0.807326 0.486860 0.606667 -0.190894
C40   C     C_R   0.192860 0.504398 0.390680 -0.194604
C41   C     C_R   0.899900 0.489265 0.610923 0.114326
C42   C     C_R   0.100136 0.505995 0.386745 0.116599
Cu1   Cu    Cu3+1 0.500000 0.597420 0.500000 0.947585
Cu2   Cu    Cu3+1 0.500000 0.402580 0.500000 0.946276
H1    H     H_    0.523864 0.664939 0.078103 0.143771
H2    H     H_    0.478561 0.335089 0.922007 0.141798
H3    H     H_    0.644438 0.559583 0.906672 0.150775
H4    H     H_    0.357811 0.440601 0.093068 0.154972
H5    H     H_    0.765048 0.477231 0.691749 0.152646
H6    H     H_    0.235343 0.506507 0.304748 0.150953
H7    H     H_    0.061855 0.469406 0.817219 0.180797
H8    H     H_    0.938345 0.511505 0.178567 0.181492
H9    H     H_    0.672284 0.911416 0.281132 0.177616
H10   H     H_    0.327077 0.088745 0.718023 0.173903
H11   H     H_    0.327662 0.917446 0.719055 0.180973
H12   H     H_    0.671718 0.082639 0.280156 0.180036
N1    N     N_R   0.500000 0.743810 0.500000 -0.253353
N2    N     N_R   0.500000 0.256190 0.500000 -0.253521
O1    O     O_R   0.370260 0.582280 0.500030 -0.577776
O2    O     O_R   0.629740 0.417720 0.499970 -0.579311
O3    O     O_R   0.629740 0.582280 0.499970 -0.563304
O4    O     O_R   0.370260 0.417720 0.500030 -0.562086
O5    O     O_R   0.499980 0.582260 0.316850 -0.613768
O6    O     O_R   0.500020 0.417740 0.683150 -0.612109
O7    O     O_R   0.500020 0.582260 0.683150 -0.603418
O8    O     O_R   0.499980 0.417740 0.316850 -0.602861
N3    N     N_3   0.363584 0.619285 0.934143 -0.551746
H13   H     H_    0.321630 0.630783 0.014810 0.241729
H14   H     H_    0.391655 0.685997 0.911611 0.199319
N4    N     N_3   0.639278 0.381481 0.066103 -0.611807
H15   H     H_    0.682241 0.371563 0.986104 0.238771
H16   H     H_    0.611915 0.314091 0.086661 0.205210
C43   C     C_2   0.770364 0.529240 0.263218 0.371601
H17   H     H_    0.708129 0.492714 0.249237 0.066141
O9    O     O_2   0.796728 0.588650 0.186071 -0.535410
C44   C     C_2   0.228133 0.502936 0.739312 0.379407
H18   H     H_    0.291717 0.466376 0.746597 0.060587
O10   O     O_2   0.198673 0.552166 0.827938 -0.537679
N5    N     N_3   0.886308 0.466694 0.841414 -0.587649
H19   H     H_    0.855113 0.532702 0.863807 0.235157
H20   H     H_    0.926155 0.450655 0.915801 0.223978
N6    N     N_3   0.113986 0.513725 0.154478 -0.576369
H21   H     H_    0.142543 0.582071 0.148248 0.237792
H22   H     H_    0.074605 0.506549 0.077315 0.234907
C45   C     C_2   0.360874 0.743609 0.637208 0.401576
H23   H     H_    0.373715 0.683903 0.697184 0.120359
O11   O     O_2   0.283372 0.765517 0.621691 -0.528608
C46   C     C_2   0.638879 0.256362 0.362411 0.383299
H24   H     H_    0.626019 0.315984 0.302326 0.109400
O12   O     O_2   0.716381 0.234459 0.377947 -0.545007
C47   C     C_2   0.634422 0.739764 0.353406 0.431799
H25   H     H_    0.618198 0.692036 0.277782 0.080869
O13   O     O_2   0.712645 0.750138 0.375713 -0.514608
C48   C     C_2   0.366919 0.260548 0.648969 0.401703
H26   H     H_    0.384288 0.305078 0.727221 0.059163
O14   O     O_2   0.288490 0.253331 0.626064 -0.550023

loop_
_geom_bond_atom_site_label_1
_geom_bond_atom_site_label_2
_ccdc_geom_bond_type
C38   C40   A    
C27   C29   S    
C43   H17   S    
Cu2   O8    S    
C19   C20   A    
C9    H7    S    
C10   H8    S    
C1    O4    A    
C6    C9    A    
Cu1   O5    S    
C39   C41   A    
C45   H23   S    
Cu2   O6    S    
C31   N3    S    
C28   H2    S    
C17   C23   A    
C29   H3    S    
C18   C24   A    
C30   H4    S    
C16   C20   A    
C35   C37   A    
C44   O10   D    
C29   C32   S    
C1    O1    A    
C30   C31   S    
C2    O2    A    
C13   N1    A    
C29   C33   S    
C25   O5    A    
C26   O6    A    
C36   C44   S    
C11   C17   A    
Cu2   N2    S    
C31   C33   S    
N4    H15   S    
C35   C43   S    
C2    O3    A    
Cu1   O1    S    
C25   C34   S    
C11   C45   S    
C12   N2    A    
C27   H1    S    
C40   C42   A    
C13   C47   S    
C43   O9    D    
C45   O11   D    
C27   C34   S    
C14   N2    A    
C12   C46   S    
C27   C31   S    
N3    H13   S    
C28   C32   S    
C44   H18   S    
C22   H10   S    
C47   H25   S    
N5    H20   S    
C30   C34   S    
C32   N4    S    
Cu2   O4    S    
N3    H14   S    
C32   C34   S    
C15   C19   A    
Cu1   Cu2   S    
C47   O13   D    
C26   C33   S    
Cu1   O7    S    
C48   O14   D    
C1    C38   S    
C4    C6    A    
C39   H5    S    
C46   O12   D    
C28   C33   S    
N6    H22   S    
C13   C15   A    
C14   C16   A    
C3    C4    A    
Cu1   O3    S    
C7    N5    S    
C7    C9    A    
C3    C41   A    
C16   C22   A    
C26   O7    A    
C25   O8    A    
C8    N6    S    
C8    C42   A    
C3    C5    A    
C23   H11   S    
C24   H12   S    
C28   C30   S    
C5    C10   A    
C37   C39   A    
C21   H9    S    
C2    C37   S    
C4    C42   A    
Cu2   O2    S    
C40   H6    S    
C5    C35   A    
C36   C38   A    
C17   C19   A    
C6    C36   A    
C18   C20   A    
C7    C41   A    
C48   H26   S    
Cu1   N1    S    
N5    H19   S    
C15   C21   A    
C46   H24   S    
C8    C10   A    
N6    H21   S    
C21   C24   A    
C12   C18   A    
C22   C23   A    
N4    H16   S    
C11   N1    A    
C14   C48   S    
