data_mof_unit_31510.cif
_audit_creation_date              2012-12-11T15:06:39-0500
_audit_creation_method            fapswitch 2.2
_symmetry_space_group_name_H-M    P1
_symmetry_Int_Tables_number       1
_space_group_crystal_system       triclinic
_cell_length_a                    7.222146
_cell_length_b                    14.985735
_cell_length_c                    22.409059
_cell_angle_alpha                 90.0
_cell_angle_beta                  89.99938
_cell_angle_gamma                 89.999926
_cell_volume                      2425.31376823

loop_
_atom_site_label
_atom_site_type_symbol
_atom_type_description
_atom_site_fract_x
_atom_site_fract_y
_atom_site_fract_z
_atom_type_partial_charge
O1    O     O_R   0.390810 0.844810 0.447340 -0.532121
O2    O     O_R   0.109190 0.155190 0.947340 -0.532116
O3    O     O_R   0.890810 0.655190 0.552660 -0.532109
O4    O     O_R   0.609190 0.344810 0.052660 -0.532115
O5    O     O_R   0.720550 0.655820 0.440420 -0.539548
O6    O     O_R   0.779450 0.344180 0.940420 -0.539550
O7    O     O_R   0.220550 0.844180 0.559580 -0.539540
O8    O     O_R   0.279450 0.155820 0.059580 -0.539541
C1    C     C_R   0.550878 0.626555 0.426224 0.679014
C2    C     C_R   0.949122 0.373448 0.926226 0.679040
C3    C     C_R   0.050877 0.873447 0.573774 0.679046
C4    C     C_R   0.449121 0.126556 0.073776 0.679030
O9    O     O_R   0.720530 0.844130 0.440420 -0.541074
O10   O     O_R   0.779470 0.155870 0.940420 -0.541071
O11   O     O_R   0.220530 0.655870 0.559580 -0.541069
O12   O     O_R   0.279470 0.344130 0.059580 -0.541070
O13   O     O_R   0.890830 0.844810 0.552660 -0.531476
O14   O     O_R   0.609170 0.155190 0.052660 -0.531478
O15   O     O_R   0.390830 0.655190 0.447340 -0.531485
O16   O     O_R   0.109170 0.344810 0.947340 -0.531482
C5    C     C_R   0.551693 0.873072 0.425998 0.670560
C6    C     C_R   0.948310 0.126927 0.925999 0.670575
C7    C     C_R   0.051689 0.626929 0.574002 0.670573
C8    C     C_R   0.448308 0.373072 0.074002 0.670566
O17   O     O_3   0.557310 0.749980 0.536820 -0.373020
O18   O     O_3   0.942690 0.250020 0.036820 -0.373041
O19   O     O_3   0.057310 0.750020 0.463180 -0.373059
O20   O     O_3   0.442690 0.249980 0.963180 -0.373047
V1    V     V_3+5 0.832160 0.749980 0.493170 1.423546
V2    V     V_3+5 0.667840 0.250020 0.993170 1.423515
V3    V     V_3+5 0.332160 0.750020 0.506830 1.423579
V4    V     V_3+5 0.167840 0.249980 0.006830 1.423529
C9    C     C_R   0.128991 0.588935 0.865972 -0.165409
C10   C     C_R   0.371083 0.411043 0.365981 -0.165329
C11   C     C_R   0.628865 0.911030 0.134015 -0.165278
C12   C     C_R   0.871038 0.088946 0.634022 -0.165308
H1    H     H_    0.082628 0.534148 0.952688 0.107790
H2    H     H_    0.417467 0.465840 0.452693 0.107777
H3    H     H_    0.582460 0.965825 0.047303 0.107770
H4    H     H_    0.917409 0.034150 0.547308 0.107782
H5    H     H_    0.198988 0.645131 0.885806 0.109783
H6    H     H_    0.301133 0.354843 0.385825 0.109718
H7    H     H_    0.698769 0.854819 0.114165 0.109675
H8    H     H_    0.801075 0.145141 0.614179 0.109687
C13   C     C_R   0.971155 0.448815 0.884226 -0.040363
C14   C     C_R   0.528846 0.551188 0.384222 -0.040349
C15   C     C_R   0.471149 0.051190 0.115779 -0.040345
C16   C     C_R   0.028842 0.948815 0.615774 -0.040364
C17   C     C_R   0.970365 0.470432 0.592682 -0.150370
C18   C     C_R   0.529476 0.529591 0.092681 -0.150390
C19   C     C_R   0.470565 0.029597 0.407319 -0.150388
C20   C     C_R   0.029574 0.970422 0.907315 -0.150359
C21   C     C_R   0.934292 0.398586 0.630007 -0.128948
C22   C     C_R   0.565422 0.601454 0.130004 -0.128950
C23   C     C_R   0.434654 0.101467 0.369997 -0.128966
C24   C     C_R   0.065590 0.898569 0.869990 -0.128996
C25   C     C_R   0.953251 0.407210 0.691617 -0.148021
C26   C     C_R   0.546487 0.592823 0.191615 -0.147999
C27   C     C_R   0.453584 0.092835 0.308386 -0.147985
C28   C     C_R   0.046634 0.907197 0.808380 -0.147970
C29   C     C_R   0.012468 0.488173 0.717564 0.074430
C30   C     C_R   0.487430 0.511833 0.217565 0.074441
C31   C     C_R   0.512598 0.011837 0.282436 0.074460
C32   C     C_R   0.987491 0.988174 0.782433 0.074489
C33   C     C_R   0.066672 0.558775 0.678487 0.007953
C34   C     C_R   0.433326 0.441212 0.178490 0.007982
C35   C     C_R   0.566675 0.941210 0.321509 0.007985
C36   C     C_R   0.933341 0.058784 0.821510 0.007966
C37   C     C_R   0.022842 0.500395 0.780890 0.033183
C38   C     C_R   0.477107 0.499604 0.280890 0.033172
C39   C     C_R   0.522906 0.999605 0.219110 0.033164
C40   C     C_R   0.977135 0.000401 0.719108 0.033169
C41   C     C_R   0.112447 0.578186 0.803655 0.068938
C42   C     C_R   0.387591 0.421789 0.303661 0.068866
C43   C     C_R   0.612392 0.921782 0.196337 0.068836
C44   C     C_R   0.887567 0.078203 0.696341 0.068836
C45   C     C_R   0.187761 0.641875 0.763485 0.259374
C46   C     C_R   0.312346 0.358077 0.263491 0.259503
C47   C     C_R   0.687633 0.858067 0.236507 0.259531
C48   C     C_R   0.812296 0.141904 0.736513 0.259495
C49   C     C_R   0.153188 0.634262 0.702430 -0.236702
C50   C     C_R   0.346928 0.365697 0.202436 -0.236712
C51   C     C_R   0.653050 0.865688 0.297563 -0.236714
C52   C     C_R   0.846895 0.134287 0.797567 -0.236711
C53   C     C_R   0.950591 0.436910 0.822411 -0.206160
C54   C     C_R   0.549342 0.563100 0.322406 -0.206137
C55   C     C_R   0.450680 0.063107 0.177596 -0.206119
C56   C     C_R   0.049381 0.936911 0.677589 -0.206093
C57   C     C_R   0.059551 0.525398 0.905241 -0.156797
C58   C     C_R   0.440507 0.474593 0.405244 -0.156779
C59   C     C_R   0.559449 0.974584 0.094754 -0.156777
C60   C     C_R   0.940469 0.025401 0.594756 -0.156771
C61   C     C_R   0.037236 0.550835 0.615886 -0.065412
C62   C     C_R   0.462737 0.449163 0.115888 -0.065388
C63   C     C_R   0.537270 0.949163 0.384112 -0.065388
C64   C     C_R   0.962759 0.050836 0.884112 -0.065413
H9    H     H_    0.883056 0.376368 0.808197 0.112523
H10   H     H_    0.616828 0.623652 0.308184 0.112536
H11   H     H_    0.383218 0.123665 0.191820 0.112532
H12   H     H_    0.116905 0.876368 0.691806 0.112505
H13   H     H_    0.946851 0.463167 0.545155 0.104594
H14   H     H_    0.552959 0.536866 0.045152 0.104575
H15   H     H_    0.447090 0.036875 0.454848 0.104581
H16   H     H_    0.053076 0.963150 0.954843 0.104594
H17   H     H_    0.927009 0.348658 0.717916 0.130453
H18   H     H_    0.572603 0.651390 0.217915 0.130448
H19   H     H_    0.427503 0.151406 0.282086 0.130396
H20   H     H_    0.072815 0.848637 0.782079 0.130269
H21   H     H_    0.888948 0.335990 0.610908 0.104833
H22   H     H_    0.610637 0.664073 0.110902 0.104825
H23   H     H_    0.389476 0.164092 0.389100 0.104827
H24   H     H_    0.110882 0.835962 0.889089 0.104823
H25   H     H_    0.204040 0.686606 0.673435 0.141638
H26   H     H_    0.296179 0.313329 0.173441 0.141536
H27   H     H_    0.703786 0.813318 0.326557 0.141511
H28   H     H_    0.796108 0.186645 0.826564 0.141551
N1    N     N_2   0.305413 0.712793 0.782452 -0.538737
H29   H     H_    0.274824 0.742151 0.822618 0.244260
C65   C     C_3   0.501028 0.695476 0.774845 -0.522740
H30   H     H_    0.581480 0.755819 0.787332 0.197499
H31   H     H_    0.532388 0.679216 0.727534 0.208503
H32   H     H_    0.544726 0.639148 0.803879 0.198073
N2    N     N_2   0.194845 0.287101 0.282460 -0.538811
H33   H     H_    0.225249 0.257838 0.322674 0.244270
C66   C     C_3   0.999209 0.304165 0.274653 -0.522712
H34   H     H_    0.918963 0.243775 0.287170 0.197504
H35   H     H_    0.968160 0.320218 0.227285 0.208411
H36   H     H_    0.954980 0.360548 0.303557 0.198121
N3    N     N_2   0.805137 0.787090 0.217540 -0.538821
H37   H     H_    0.774818 0.757857 0.177308 0.244255
C67   C     C_3   0.000782 0.804114 0.225414 -0.522593
H38   H     H_    0.081016 0.743727 0.212883 0.197480
H39   H     H_    0.031726 0.820096 0.272804 0.208353
H40   H     H_    0.045137 0.860537 0.196554 0.198115
N4    N     N_2   0.694715 0.212857 0.717553 -0.538791
H41   H     H_    0.725029 0.242093 0.677322 0.244208
C68   C     C_3   0.499051 0.195744 0.725399 -0.522322
H42   H     H_    0.418746 0.256127 0.712894 0.197446
H43   H     H_    0.468042 0.179697 0.772787 0.208287
H44   H     H_    0.454814 0.139321 0.696493 0.198038

loop_
_geom_bond_atom_site_label_1
_geom_bond_atom_site_label_2
_ccdc_geom_bond_type
O17   V3    S    
C25   H17   S    
C26   C30   A    
C23   C27   A    
O19   V1    S    
O13   V1    S    
O3    C7    A    
C10   H6    S    
C48   C52   A    
C67   H40   S    
O15   V3    S    
C14   C54   A    
N2    H33   S    
O1    C5    A    
C68   H43   S    
C11   C43   A    
C36   C64   A    
C48   N4    S    
C32   C36   A    
O9    V1    S    
C45   N1    S    
N1    C65   S    
C17   H13   S    
O4    C8    A    
N2    C66   S    
C19   H15   S    
C47   N3    S    
O1    V3    S    
C30   C38   A    
O2    V4    S    
O3    V1    S    
C38   C42   A    
C12   C44   A    
C1    O15   A    
C20   H16   S    
C2    O16   A    
C19   C63   A    
O2    C6    A    
C66   H36   S    
C16   C56   A    
C37   C41   A    
O14   V2    S    
C11   H7    S    
O5    V1    S    
C28   H20   S    
C40   C44   A    
C34   C62   A    
C12   C60   A    
C33   C61   A    
C1    C14   S    
O12   C8    A    
C35   C63   A    
C3    C16   S    
C15   C59   A    
O10   V2    S    
C4    C15   S    
H3    C59   S    
C40   C56   A    
O16   V4    S    
O7    C3    A    
C55   H11   S    
C65   H31   S    
C68   H44   S    
C31   C35   A    
C39   C43   A    
O7    V3    S    
C30   C34   A    
O8    V4    S    
C51   H27   S    
N4    H41   S    
C50   H26   S    
C21   C25   A    
O18   V4    S    
C18   C62   A    
C5    C63   S    
C27   H19   S    
C7    C61   S    
C26   H18   S    
C22   H22   S    
C36   C52   A    
C13   C53   A    
C10   C58   A    
O5    C1    A    
C8    C62   S    
C34   C50   A    
C46   C50   A    
C33   C49   A    
C45   C49   A    
O8    C4    A    
C2    C13   S    
O9    C5    A    
C18   C22   A    
C35   C51   A    
H4    C60   S    
C25   C29   A    
C46   N2    S    
C56   H12   S    
C10   C42   A    
C39   C55   A    
C9    C41   A    
O6    V2    S    
C31   C39   A    
C18   H14   S    
C16   C60   A    
C66   H34   S    
C12   H8    S    
C4    O14   A    
C67   H38   S    
C38   C54   A    
C37   C53   A    
N3    H37   S    
C22   C26   A    
C65   H32   S    
C29   C37   A    
N4    C68   S    
C3    O13   A    
C13   C57   A    
C23   H23   S    
C6    C64   S    
C44   C48   A    
C67   H39   S    
O6    C2    A    
C65   H30   S    
O11   V3    S    
C14   C58   A    
O12   V4    S    
C68   H42   S    
H2    C58   S    
C27   C31   A    
H1    C57   S    
C28   C32   A    
C9    H5    S    
O10   C6    A    
O20   V2    S    
N1    H29   S    
C47   C51   A    
C9    C57   A    
C17   C21   A    
O11   C7    A    
C20   C64   A    
C19   C23   A    
C32   C40   A    
C54   H10   S    
C53   H9    S    
C29   C33   A    
C24   C28   A    
C52   H28   S    
C42   C46   A    
C49   H25   S    
C66   H35   S    
C41   C45   A    
C21   H21   S    
C17   C61   A    
C43   C47   A    
C24   H24   S    
O4    V2    S    
C20   C24   A    
C15   C55   A    
N3    C67   S    
C11   C59   A    
