data_mof_unit_60884.cif
_audit_creation_date              2013-03-05T15:59:31-0500
_audit_creation_method            fapswitch 2.2
_symmetry_space_group_name_H-M    P1
_symmetry_Int_Tables_number       1
_space_group_crystal_system       triclinic
_cell_length_a                    26.300979
_cell_length_b                    7.148813
_cell_length_c                    23.677461
_cell_angle_alpha                 89.99833
_cell_angle_beta                  101.121215
_cell_angle_gamma                 90.001249
_cell_volume                      4368.25470361

loop_
_atom_site_label
_atom_site_type_symbol
_atom_site_description
_atom_site_fract_x
_atom_site_fract_y
_atom_site_fract_z
_atom_type_partial_charge
O1    O     O_R   0.442540 0.494320 0.443520 -0.571910
O2    O     O_R   0.557460 0.994320 0.556480 -0.571910
O3    O     O_R   0.546640 0.821130 0.446490 -0.594084
O4    O     O_R   0.453360 0.321130 0.553510 -0.594075
C1    C     C_R   0.562149 0.655306 0.433409 0.963727
C2    C     C_R   0.437851 0.155299 0.566591 0.963721
O5    O     O_R   0.442270 0.823840 0.436770 -0.584714
O6    O     O_R   0.557730 0.323840 0.563230 -0.584710
O7    O     O_R   0.452340 0.997060 0.546690 -0.593897
O8    O     O_R   0.547660 0.497060 0.453310 -0.593902
C3    C     C_R   0.423838 0.655140 0.421402 0.941766
C4    C     C_R   0.576162 0.155139 0.578598 0.941757
O9    O     O_3   0.503430 0.661750 0.536080 -0.282023
O10   O     O_3   0.496570 0.161750 0.463920 -0.282033
V1    V     V_3+5 0.499360 0.935480 0.493310 1.187769
V2    V     V_3+5 0.500640 0.435480 0.506690 1.187772
C5    C     C_3   0.728649 0.891112 0.714481 0.312706
C6    C     C_3   0.271352 0.391112 0.285519 0.312708
C7    C     C_3   0.751190 0.236156 0.690670 0.089215
C8    C     C_3   0.248810 0.736147 0.309329 0.089224
C9    C     C_3   0.801346 0.243892 0.739674 -0.133190
C10   C     C_3   0.198654 0.743883 0.260325 -0.133197
H1    H     H_    0.734238 0.377984 0.690190 0.116200
H2    H     H_    0.265762 0.877979 0.309810 0.116200
H3    H     H_    0.799016 0.381211 0.761376 0.176333
H4    H     H_    0.200984 0.881206 0.238623 0.176332
C11   C     C_1   0.878848 0.074538 0.875271 -0.279948
C12   C     C_1   0.121152 0.574537 0.124728 -0.279951
C13   C     C_3   0.708061 0.103507 0.707001 -0.196959
C14   C     C_3   0.291939 0.603510 0.292999 -0.196963
C15   C     C_3   0.781532 0.895268 0.762572 0.117949
C16   C     C_3   0.218469 0.395267 0.237428 0.117948
C17   C     C_3   0.795841 0.095571 0.787629 0.062697
C18   C     C_3   0.204159 0.595572 0.212370 0.062692
C19   C     C_3   0.748796 0.160644 0.813960 -0.642502
C20   C     C_3   0.251205 0.660657 0.186039 -0.642493
C21   C     C_3   0.698600 0.183128 0.766623 0.205874
C22   C     C_3   0.301401 0.683143 0.233377 0.205865
C23   C     C_1   0.841745 0.085432 0.835856 0.132976
C24   C     C_1   0.158256 0.585432 0.164144 0.132985
C25   C     C_1   0.660008 0.127280 0.661705 0.194334
C26   C     C_1   0.339992 0.627283 0.338294 0.194334
C27   C     C_1   0.621570 0.143561 0.624189 -0.172485
C28   C     C_1   0.378430 0.643563 0.375811 -0.172484
H5    H     H_    0.691720 0.334670 0.760395 0.086018
H6    H     H_    0.308280 0.834685 0.239605 0.086022
H7    H     H_    0.743000 0.060689 0.848031 0.222957
H8    H     H_    0.257001 0.560709 0.151969 0.222964
H9    H     H_    0.774633 0.817776 0.800530 0.097402
H10   H     H_    0.225368 0.317783 0.199470 0.097401
H11   H     H_    0.757767 0.296496 0.836647 0.194595
H12   H     H_    0.242234 0.796511 0.163352 0.194592
C29   C     C_R   0.144337 0.203690 0.905718 0.210358
C30   C     C_R   0.855675 0.703802 0.094277 0.210477
C31   C     C_R   0.179521 0.199667 0.867511 -0.198939
C32   C     C_R   0.820504 0.699896 0.132497 -0.198624
H13   H     H_    0.211388 0.297507 0.872702 0.152601
H14   H     H_    0.788670 0.797865 0.127324 0.152441
C33   C     C_R   0.174256 0.072898 0.821379 0.030933
C34   C     C_R   0.825727 0.573018 0.178601 0.031148
C35   C     C_R   0.133215 0.940800 0.814026 0.237366
C36   C     C_R   0.866702 0.440664 0.185902 0.237082
C37   C     C_R   0.097955 0.944851 0.851770 -0.243397
C38   C     C_R   0.901973 0.444693 0.148168 -0.243633
H15   H     H_    0.066474 0.844503 0.845945 0.147842
H16   H     H_    0.933421 0.344215 0.153968 0.147886
C39   C     C_R   0.102326 0.074830 0.896965 -0.232522
C40   C     C_R   0.897655 0.574813 0.103013 -0.232564
N1    N     N_R   0.198016 0.065163 0.724816 -0.074295
N2    N     N_R   0.801978 0.564959 0.275165 -0.074345
N3    N     N_R   0.232762 0.073412 0.690657 -0.072290
N4    N     N_R   0.767236 0.573201 0.309331 -0.072323
C41   C     C_R   0.283848 0.099300 0.712916 0.118256
C42   C     C_R   0.716164 0.599494 0.287091 0.118192
N5    N     N_R   0.298464 0.121944 0.770777 -0.068979
N6    N     N_R   0.701559 0.622562 0.229245 -0.068969
N7    N     N_R   0.263705 0.113692 0.804949 -0.070193
N8    N     N_R   0.736311 0.614324 0.195066 -0.070157
C43   C     C_R   0.212787 0.082422 0.782778 0.114661
C44   C     C_R   0.787211 0.582643 0.217215 0.114605
C45   C     C_R   0.362828 0.241354 0.687961 -0.243312
C46   C     C_R   0.637191 0.741527 0.312065 -0.243336
H17   H     H_    0.363867 0.331716 0.724930 0.143248
H18   H     H_    0.636159 0.831952 0.275109 0.143234
C47   C     C_R   0.400972 0.262241 0.654045 0.223580
C48   C     C_R   0.599041 0.762359 0.345973 0.223673
C49   C     C_R   0.399542 0.144025 0.605494 -0.187469
C50   C     C_R   0.600458 0.644059 0.394505 -0.187474
C51   C     C_R   0.360527 0.007258 0.593601 -0.224716
C52   C     C_R   0.639461 0.507246 0.406379 -0.224797
H19   H     H_    0.359788 0.915037 0.557100 0.156794
H20   H     H_    0.640188 0.414958 0.442863 0.156789
C53   C     C_R   0.322433 0.986491 0.627537 0.219199
C54   C     C_R   0.677558 0.486518 0.372445 0.219159
C55   C     C_R   0.323048 0.107989 0.675116 0.056167
C56   C     C_R   0.676963 0.608126 0.324892 0.056265
O11   O     O_R   0.952390 0.727960 0.046760 -0.601474
O12   O     O_R   0.047610 0.227960 0.953240 -0.601469
O13   O     O_R   0.057740 0.395520 0.063240 -0.576412
O14   O     O_R   0.942260 0.895520 0.936760 -0.576430
C57   C     C_R   0.076393 0.564213 0.078294 0.959974
C58   C     C_R   0.923607 0.064213 0.921705 0.959950
O15   O     O_R   0.953370 0.398410 0.053530 -0.587346
O16   O     O_R   0.046630 0.898410 0.946470 -0.587322
O17   O     O_R   0.942530 0.225390 0.943510 -0.583073
O18   O     O_R   0.057470 0.725390 0.056490 -0.583075
C59   C     C_R   0.936598 0.566888 0.064741 0.927924
C60   C     C_R   0.063398 0.066895 0.935254 0.927900
O19   O     O_3   0.996600 0.557860 0.963960 -0.278781
O20   O     O_3   0.003400 0.057860 0.036040 -0.278785
V3    V     V_3+5 0.000630 0.284060 0.006690 1.162002
V4    V     V_3+5 0.999370 0.784060 0.993310 1.162002
N9    N     N_R   0.826900 0.800469 0.747782 0.259531
O21   O     O_R   0.853639 0.687708 0.785207 -0.451433
O22   O     O_R   0.845974 0.847163 0.703164 -0.331070
N10   N     N_R   0.173101 0.300457 0.252218 0.259531
O23   O     O_R   0.146361 0.187700 0.214793 -0.451431
O24   O     O_R   0.154027 0.347140 0.296837 -0.331062
C61   C     C_3   0.685124 0.757754 0.730638 -0.380510
C62   C     C_3   0.687570 0.694711 0.793166 -0.868463
H21   H     H_    0.720163 0.596584 0.807032 0.228243
H22   H     H_    0.691755 0.811556 0.823814 0.291548
H23   H     H_    0.651245 0.619565 0.796280 0.282989
H24   H     H_    0.646198 0.817966 0.714867 0.236181
H25   H     H_    0.683613 0.625972 0.705650 0.201047
C63   C     C_3   0.314877 0.257766 0.269362 -0.380516
C64   C     C_3   0.312432 0.194732 0.206835 -0.868462
H26   H     H_    0.279839 0.096603 0.192968 0.228242
H27   H     H_    0.308247 0.311582 0.176187 0.291549
H28   H     H_    0.348756 0.119592 0.203721 0.282992
H29   H     H_    0.353803 0.317983 0.285133 0.236178
H30   H     H_    0.316389 0.125980 0.294351 0.201051
C65   C     C_3   0.151391 0.340962 0.956081 -0.348212
C66   C     C_3   0.203234 0.444586 0.969584 -0.901917
H31   H     H_    0.235984 0.343761 0.976393 0.274108
H32   H     H_    0.206809 0.543524 0.934404 0.258126
H33   H     H_    0.205265 0.527248 0.009690 0.257643
H34   H     H_    0.120152 0.447705 0.947492 0.212284
H35   H     H_    0.147623 0.263004 0.995701 0.189254
C67   C     C_3   0.848636 0.841080 0.043913 -0.348021
C68   C     C_3   0.796763 0.944491 0.030341 -0.901952
H36   H     H_    0.764042 0.843536 0.023553 0.274116
H37   H     H_    0.793139 0.043536 0.065475 0.257972
H38   H     H_    0.794726 0.027017 0.990207 0.257632
H39   H     H_    0.879849 0.947918 0.052529 0.212240
H40   H     H_    0.852455 0.763150 0.004306 0.189236
C69   C     C_3   0.126683 0.788713 0.768452 -0.365685
C70   C     C_3   0.169571 0.642040 0.781665 -0.862893
H41   H     H_    0.207855 0.702597 0.778968 0.259072
H42   H     H_    0.171160 0.584577 0.825502 0.254917
H43   H     H_    0.161394 0.525744 0.750112 0.257985
H44   H     H_    0.089127 0.714942 0.766262 0.194030
H45   H     H_    0.124992 0.849082 0.725042 0.205309
C71   C     C_3   0.873156 0.288341 0.231407 -0.365481
C72   C     C_3   0.830068 0.142356 0.218271 -0.862043
H46   H     H_    0.791970 0.203108 0.221714 0.258948
H47   H     H_    0.827913 0.086303 0.174157 0.254614
H48   H     H_    0.838455 0.024967 0.249422 0.257745
H49   H     H_    0.910601 0.213950 0.233428 0.193928
H50   H     H_    0.875038 0.348609 0.274865 0.205224
C73   C     C_3   0.442859 0.408043 0.672369 -0.457826
C74   C     C_3   0.495199 0.317929 0.696516 -0.686169
H51   H     H_    0.492264 0.230018 0.734442 0.266524
H52   H     H_    0.508596 0.229731 0.663779 0.216774
H53   H     H_    0.524571 0.428740 0.710261 0.250999
H54   H     H_    0.445874 0.503501 0.636292 0.224510
H55   H     H_    0.432840 0.499592 0.706587 0.197331
C75   C     C_3   0.557160 0.908193 0.327659 -0.457724
C76   C     C_3   0.504817 0.818120 0.303501 -0.686257
H56   H     H_    0.507750 0.730257 0.265566 0.266518
H57   H     H_    0.491414 0.729883 0.336227 0.216796
H58   H     H_    0.475450 0.928954 0.289766 0.250984
H59   H     H_    0.554149 0.003618 0.363743 0.224518
H60   H     H_    0.567185 0.999775 0.293450 0.197271
N11   N     N_R   0.737745 0.816421 0.658606 0.281867
O25   O     O_R   0.764719 0.664502 0.657847 -0.343963
O26   O     O_R   0.705063 0.854195 0.611301 -0.355970
N12   N     N_R   0.262256 0.316410 0.341394 0.281866
O27   O     O_R   0.235283 0.164485 0.342153 -0.343965
O28   O     O_R   0.294937 0.354181 0.388699 -0.355974
C77   C     C_3   0.283702 0.828148 0.612804 -0.326560
C78   C     C_3   0.293545 0.672613 0.657818 -0.883817
H61   H     H_    0.334336 0.624588 0.663417 0.255190
H62   H     H_    0.285961 0.721254 0.699890 0.258851
H63   H     H_    0.267563 0.552344 0.643342 0.267080
H64   H     H_    0.243404 0.880338 0.607493 0.209763
H65   H     H_    0.286600 0.764848 0.570636 0.219437
C79   C     C_3   0.716267 0.328094 0.387151 -0.326448
C80   C     C_3   0.706440 0.172742 0.342075 -0.883713
H66   H     H_    0.665605 0.125014 0.336324 0.255108
H67   H     H_    0.714173 0.221452 0.300066 0.258746
H68   H     H_    0.732330 0.052243 0.356591 0.267054
H69   H     H_    0.756573 0.380250 0.392523 0.209770
H70   H     H_    0.713326 0.264614 0.429285 0.219349
N13   N     N_R   0.760344 0.209596 0.631556 0.275186
O29   O     O_R   0.790605 0.079744 0.618368 -0.310236
O30   O     O_R   0.737981 0.321667 0.590944 -0.338889
N14   N     N_R   0.239656 0.709575 0.368443 0.275186
O31   O     O_R   0.209395 0.579715 0.381631 -0.310240
O32   O     O_R   0.262019 0.821640 0.409056 -0.338915
C81   C     C_3   0.853303 0.268220 0.717360 -0.141955
C82   C     C_3   0.902324 0.296004 0.763233 -0.824572
H71   H     H_    0.894640 0.378141 0.800323 0.290722
H72   H     H_    0.919132 0.158318 0.778398 0.248511
H73   H     H_    0.931897 0.371396 0.744197 0.254731
H74   H     H_    0.861635 0.155469 0.689212 0.260574
H75   H     H_    0.848849 0.395637 0.689857 0.236663
C83   C     C_3   0.146697 0.768199 0.282638 -0.141955
C84   C     C_3   0.097676 0.795986 0.236765 -0.824564
H76   H     H_    0.105361 0.878130 0.199674 0.290720
H77   H     H_    0.080868 0.658301 0.221601 0.248517
H78   H     H_    0.068104 0.871373 0.255800 0.254730
H79   H     H_    0.138365 0.655441 0.310786 0.260575
H80   H     H_    0.151151 0.895611 0.310142 0.236662
N15   N     N_R   0.651954 0.114180 0.786116 0.256576
O33   O     O_R   0.607604 0.111828 0.750538 -0.438360
O34   O     O_R   0.650700 0.118350 0.840821 -0.383479
N16   N     N_R   0.348047 0.614209 0.213885 0.256576
O35   O     O_R   0.392397 0.611872 0.249462 -0.438338
O36   O     O_R   0.349301 0.618380 0.159180 -0.383478

loop_
_geom_bond_atom_site_label_1
_geom_bond_atom_site_label_2
_geom_bond_distance
_ccdc_geom_bond_type
C37   H15   1.084044 S    
C7    N13   1.477530 S    
C83   H79   1.094655 S    
C31   C33   1.405433 A    
C72   H47   1.109937 S    
C76   H57   1.108119 S    
C76   H56   1.110853 S    
C22   N16   1.476313 S    
C7    H1    1.106789 S    
C69   C70   1.527618 S    
O1    C3    1.318542 A    
C70   H43   1.110688 S    
O2    C4    1.318544 A    
C66   H33   1.110967 S    
C73   C74   1.527490 S    
C77   H65   1.112136 S    
O8    V2    1.980784 S    
N11   O26   1.301885 A    
O18   V4    1.966459 S    
C77   C78   1.527350 S    
O5    C3    1.324316 A    
C17   C23   1.494961 S    
C82   H72   1.109926 S    
C18   C24   1.494964 S    
C38   C40   1.405130 A    
O15   V3    1.993777 S    
C7    C9    1.580836 S    
C70   H42   1.109550 S    
C74   H51   1.110859 S    
C4    C27   1.449529 S    
C68   H37   1.110443 S    
C45   C55   1.404755 A    
C48   C50   1.421437 A    
C39   C60   1.493807 S    
C9    C17   1.580448 S    
C12   C24   1.215737 T    
C78   H62   1.108908 S    
C84   H78   1.110760 S    
O12   C60   1.322052 A    
N10   O23   1.299685 A    
C14   C22   1.585674 S    
C58   O17   1.320128 A    
C34   C36   1.419400 A    
C81   C82   1.530120 S    
N1    N3    1.333377 A    
C78   H61   1.109758 S    
C36   C38   1.406882 A    
O19   V3    2.196491 S    
C17   C19   1.560042 S    
O20   V3    1.756000 S    
C1    C50   1.492711 S    
C53   C77   1.517750 S    
C12   C57   1.449391 S    
C30   C67   1.527800 S    
C8    H2    1.106789 S    
C11   C23   1.215735 T    
C83   C84   1.530120 S    
C82   H73   1.110761 S    
C81   H74   1.094655 S    
C15   C17   1.567785 S    
C20   H8    1.109955 S    
N14   O31   1.299458 A    
C6    C14   1.610291 S    
C40   C59   1.493819 S    
C51   H19   1.084203 S    
C25   C27   1.215815 T    
C18   C20   1.560042 S    
C73   H54   1.108034 S    
C20   H12   1.112895 S    
C62   H23   1.110813 S    
C45   C47   1.408696 A    
N7    C43   1.359322 A    
O17   V3    1.966458 S    
C79   H70   1.112162 S    
C65   H34   1.110977 S    
O6    V2    1.976929 S    
C72   H48   1.110911 S    
C51   C53   1.407847 A    
C41   N5    1.359314 A    
C26   C28   1.215814 T    
C15   H9    1.100191 S    
C69   H45   1.107700 S    
C1    O8    1.310061 A    
C45   H17   1.084009 S    
C62   H22   1.098023 S    
C52   C54   1.407860 A    
C74   H52   1.108124 S    
C29   C31   1.413665 A    
C75   H59   1.108031 S    
C10   C18   1.580447 S    
C37   C39   1.405113 A    
C33   C35   1.419403 A    
C46   C56   1.404770 A    
C82   H71   1.106970 S    
C47   C49   1.421437 A    
N2    C44   1.357924 A    
C42   C56   1.491277 S    
C48   C75   1.517882 S    
C67   C68   1.530362 S    
O4    C2    1.310113 A    
O19   V4    1.756035 S    
C33   C43   1.491412 S    
N3    C41   1.357970 A    
O11   V4    1.972926 S    
C66   H32   1.110473 S    
O5    V1    1.976931 S    
C61   H24   1.106983 S    
N2    N4    1.333384 A    
C16   N10   1.472067 S    
C2    C49   1.492710 S    
C36   C71   1.518168 S    
N9    O22   1.297535 A    
C79   C80   1.527395 S    
C78   H63   1.110553 S    
C38   H16   1.084040 S    
O4    V2    1.993798 S    
C80   H68   1.110665 S    
C75   H60   1.112011 S    
N15   O33   1.300547 A    
C64   H27   1.098023 S    
C71   H50   1.107809 S    
C9    C81   1.566926 S    
C74   H53   1.110516 S    
C52   H20   1.084202 S    
N11   O25   1.299259 A    
C63   H30   1.109108 S    
O6    C4    1.324319 A    
C8    N14   1.477528 S    
O14   C58   1.324614 A    
C84   H76   1.106970 S    
C81   H75   1.112675 S    
C29   C65   1.527792 S    
C3    C28   1.449523 S    
O1    V2    1.966571 S    
C10   C83   1.566925 S    
C61   C62   1.536992 S    
C54   C56   1.420172 A    
O2    V1    1.966578 S    
N5    N7    1.333882 A    
C16   H10   1.100192 S    
C71   C72   1.527793 S    
C73   H55   1.112013 S    
C42   N6    1.359295 A    
N10   O24   1.297536 A    
C54   C79   1.517776 S    
N4    C42   1.357977 A    
C75   C76   1.527495 S    
O13   C57   1.324613 A    
C8    C10   1.580837 S    
C79   H69   1.107699 S    
O14   V4    1.976867 S    
C46   H18   1.084005 S    
C31   H13   1.080294 S    
C19   H11   1.112894 S    
C65   C66   1.530352 S    
C5    C15   1.618962 S    
C76   H58   1.110512 S    
N1    C43   1.357922 A    
C6    C16   1.618963 S    
C41   C55   1.491247 S    
C67   H40   1.111869 S    
C64   H26   1.107323 S    
C7    C13   1.582596 S    
C61   H25   1.109106 S    
O16   C60   1.326984 A    
O3    V1    1.993843 S    
C62   H21   1.107324 S    
C19   C21   1.566588 S    
O16   V4    1.993728 S    
N9    O21   1.299684 A    
C57   O18   1.320124 A    
C9    H3    1.115188 S    
C34   C44   1.491354 S    
C83   H80   1.112674 S    
O12   V3    1.972952 S    
C47   C73   1.517869 S    
C13   C25   1.501166 S    
C35   C37   1.406859 A    
N6    N8    1.333861 A    
O3    C1    1.310101 A    
C67   H39   1.110984 S    
N14   O32   1.301640 A    
C77   H64   1.107677 S    
C30   C32   1.413637 A    
C65   H35   1.111866 S    
C66   H31   1.110824 S    
C68   H38   1.110969 S    
O13   V3    1.976872 S    
C11   C58   1.449390 S    
N16   O36   1.302386 A    
C49   C51   1.405952 A    
C50   C52   1.405953 A    
O7    V1    1.980816 S    
C64   H28   1.110813 S    
C71   H49   1.112130 S    
C46   C48   1.408675 A    
C5    C13   1.610292 S    
C8    C14   1.582595 S    
N16   O35   1.300550 A    
C63   H29   1.106984 S    
C63   C64   1.536991 S    
C20   C22   1.566588 S    
C84   H77   1.109925 S    
C32   H14   1.080279 S    
C69   H44   1.112062 S    
N8    C44   1.359287 A    
C70   H41   1.109108 S    
C35   C69   1.518072 S    
C80   H66   1.109954 S    
C29   C39   1.422703 A    
O20   V4    2.196539 S    
C22   H6    1.103551 S    
N15   O34   1.302384 A    
C5    C61   1.592020 S    
N13   O29   1.299457 A    
O11   C59   1.322057 A    
C32   C34   1.405452 A    
C15   N9    1.472069 S    
C2    O7    1.310053 A    
C30   C40   1.422702 A    
C6    N12   1.488196 S    
C53   C55   1.420151 A    
C10   H4    1.115186 S    
O9    V2    1.756845 S    
C13   C21   1.585675 S    
C72   H46   1.109426 S    
O10   V1    1.756810 S    
C14   C26   1.501166 S    
O15   C59   1.326983 A    
C80   H67   1.109064 S    
C19   H7    1.109954 S    
C68   H36   1.110827 S    
N12   O28   1.301885 A    
C21   H5    1.103551 S    
C21   N15   1.476311 S    
C6    C63   1.592019 S    
C5    N11   1.488195 S    
C16   C18   1.567784 S    
N12   O27   1.299259 A    
N13   O30   1.301640 A    
