data_mof_unit_62285.cif
_audit_creation_date              2012-10-26T18:00:49-0400
_audit_creation_method            fapswitch 2.2
_symmetry_space_group_name_H-M    P1
_symmetry_Int_Tables_number       1
_space_group_crystal_system       triclinic
_cell_length_a                    30.186437
_cell_length_b                    30.679938
_cell_length_c                    21.479404
_cell_angle_alpha                 89.948773
_cell_angle_beta                  134.201104
_cell_angle_gamma                 90.126338
_cell_volume                      14260.8101109

loop_
_atom_site_label
_atom_site_type_symbol
_atom_type_description
_atom_site_fract_x
_atom_site_fract_y
_atom_site_fract_z
_atom_type_partial_charge
C1    C     C_R   0.308922 0.809466 0.118540 0.547435
C2    C     C_R   0.473787 0.670892 0.994267 -0.121157
C3    C     C_R   0.407524 0.152883 0.238678 0.380366
C4    C     C_R   0.059709 0.629050 0.677761 -0.101437
C5    C     C_R   0.939872 0.620367 0.303375 -0.103129
C6    C     C_R   0.561057 0.118425 0.700344 -0.106477
C7    C     C_R   0.439827 0.120249 0.303133 -0.104700
C8    C     C_R   0.091894 0.593908 0.682952 -0.044955
C9    C     C_R   0.908440 0.592824 0.314949 -0.042948
C10   C     C_R   0.591713 0.092846 0.685160 -0.044882
C11   C     C_R   0.408439 0.092817 0.314934 -0.043221
C12   C     C_R   0.156292 0.593672 0.748514 -0.039174
C13   C     C_R   0.020030 0.170777 0.994286 -0.110542
C14   C     C_R   0.845290 0.598975 0.259856 -0.049016
C15   C     C_R   0.654117 0.100979 0.736758 -0.043383
C16   C     C_R   0.345331 0.099076 0.260056 -0.049116
C17   C     C_3   0.198869 0.557443 0.808176 -0.198337
C18   C     C_3   0.789650 0.583336 0.240042 -0.138955
C19   C     C_3   0.708913 0.087833 0.752540 -0.178709
C20   C     C_3   0.289753 0.083582 0.240533 -0.138992
C21   C     C_3   0.233182 0.591164 0.881192 0.200003
C22   C     C_3   0.753967 0.618698 0.168383 0.190959
C23   C     C_3   0.744340 0.123481 0.823887 0.183456
C24   C     C_R   0.974852 0.170759 0.996471 -0.113445
C25   C     C_3   0.254076 0.118957 0.168901 0.191115
C26   C     C_R   0.940860 0.559451 0.381288 0.561104
C27   C     C_R   0.059301 0.559456 0.618712 0.555399
C28   C     C_R   0.440859 0.059450 0.381283 0.561609
C29   C     C_R   0.559213 0.059451 0.618760 0.564104
C30   C     C_R   0.440484 0.940734 0.380793 0.570045
C31   C     C_R   0.559452 0.940728 0.619191 0.570858
C32   C     C_R   0.940522 0.440722 0.380860 0.573264
C33   C     C_R   0.059539 0.440974 0.619358 0.567231
C34   C     C_R   0.164430 0.749849 0.000078 0.626754
C35   C     C_R   0.479610 0.829577 0.005259 -0.120919
C36   C     C_R   0.835619 0.749912 0.999962 0.636146
C37   C     C_R   0.664411 0.249847 0.000058 0.635541
C38   C     C_R   0.335581 0.249939 0.999904 0.634448
C39   C     C_R   0.595985 0.789699 0.006108 -0.125498
C40   C     C_R   0.407098 0.789865 0.999961 -0.127268
C41   C     C_R   0.095669 0.289628 0.005491 -0.120563
C42   C     C_R   0.906553 0.289781 0.998830 -0.126088
C43   C     C_R   0.615904 0.750170 0.999902 -0.007313
C44   C     C_R   0.383783 0.750219 0.999625 0.001081
C45   C     C_R   0.116015 0.250074 0.000139 -0.003706
C46   C     C_R   0.526940 0.829521 0.007392 -0.121099
C47   C     C_R   0.883806 0.250153 0.999676 -0.006158
C48   C     C_R   0.589401 0.710698 0.993335 -0.123863
C49   C     C_R   0.406737 0.710618 0.999460 -0.123553
C50   C     C_R   0.089960 0.210561 0.994470 -0.122558
C51   C     C_R   0.907414 0.210529 0.000878 -0.124353
C52   C     C_R   0.543921 0.710370 0.994977 0.021483
C53   C     C_R   0.452240 0.710332 0.997867 0.016981
C54   C     C_R   0.044499 0.210234 0.996165 0.021066
C55   C     C_R   0.952841 0.210219 0.999129 0.019200
C56   C     C_R   0.523122 0.750231 0.999751 0.062838
C57   C     C_R   0.978650 0.329502 0.003312 -0.119743
C58   C     C_R   0.476515 0.750243 0.999723 0.063141
C59   C     C_R   0.023223 0.250120 0.999973 0.062083
C60   C     C_R   0.976585 0.250136 0.999884 0.063192
C61   C     C_R   0.026066 0.329454 0.005628 -0.117512
C62   C     C_R   0.406206 0.844644 0.246099 -0.013249
C63   C     C_R   0.593647 0.844213 0.753230 -0.011636
C64   C     C_R   0.906346 0.343629 0.248302 -0.011380
C65   C     C_R   0.691033 0.809483 0.881431 0.549715
C66   C     C_R   0.153685 0.343149 0.748082 -0.013440
C67   C     C_R   0.341883 0.843537 0.183464 -0.042938
C68   C     C_R   0.657998 0.843560 0.816501 -0.043502
C69   C     C_R   0.842010 0.343560 0.183535 -0.043548
C70   C     C_R   0.157181 0.342623 0.815884 -0.036730
C71   C     C_R   0.309555 0.878769 0.177823 -0.093498
C72   C     C_R   0.690221 0.879201 0.822649 -0.095197
C73   C     C_R   0.810036 0.379654 0.176254 -0.094205
C74   C     C_R   0.126983 0.376237 0.818991 -0.109334
C75   C     C_R   0.341513 0.911133 0.242092 0.363160
C76   C     C_R   0.808934 0.309476 0.118562 0.547714
C77   C     C_R   0.658266 0.911542 0.758413 0.363189
C78   C     C_R   0.841991 0.411977 0.240601 0.363175
C79   C     C_R   0.094041 0.408650 0.754075 0.360396
C80   C     C_R   0.406300 0.908951 0.310960 0.018593
C81   C     C_R   0.593541 0.908960 0.689028 0.019313
C82   C     C_R   0.906470 0.408877 0.311222 0.021673
C83   C     C_R   0.092727 0.408336 0.686905 0.021455
C84   C     C_R   0.437970 0.877017 0.308524 -0.058320
C85   C     C_R   0.561866 0.876577 0.690848 -0.058483
C86   C     C_R   0.938144 0.375972 0.310812 -0.057027
C87   C     C_R   0.190991 0.309331 0.881526 0.547985
C88   C     C_R   0.124167 0.375075 0.687749 -0.076969
C89   C     C_3   0.487459 0.846421 0.378044 -0.213364
C90   C     C_3   0.512832 0.845758 0.621001 -0.214196
C91   C     C_3   0.985815 0.344924 0.381255 -0.222863
C92   C     C_3   0.140926 0.357630 0.641692 -0.213821
C93   C     C_R   0.335571 0.750085 0.999914 0.521349
C94   C     C_R   0.664327 0.750064 0.999951 0.516386
C95   C     C_R   0.835575 0.250075 0.999923 0.520663
C96   C     C_R   0.164384 0.250009 0.000068 0.521394
C97   C     C_3   0.452199 0.810604 0.309377 -0.016761
C98   C     C_R   0.548866 0.790072 0.004512 0.015553
C99   C     C_3   0.548099 0.809970 0.689590 -0.016552
C100  C     C_3   0.950554 0.309155 0.312521 -0.013006
C101  C     C_3   0.175505 0.321405 0.711229 -0.003686
C102  C     C_R   0.867958 0.748009 0.921220 0.312342
C103  C     C_R   0.132207 0.749013 0.078943 0.313947
C104  C     C_R   0.367856 0.248490 0.921093 0.302278
C105  C     C_R   0.632123 0.248512 0.078868 0.311881
C106  C     C_R   0.884048 0.749636 0.000128 0.002416
C107  C     C_R   0.116066 0.749441 0.999977 0.001859
C108  C     C_R   0.383974 0.249683 0.000033 0.003994
C109  C     C_R   0.454237 0.790158 0.001579 0.016073
C110  C     C_R   0.616014 0.249468 0.999931 0.004059
C111  C     C_R   0.946292 0.751024 0.079244 0.372491
C112  C     C_R   0.053828 0.749604 0.920818 0.363606
C113  C     C_R   0.446218 0.250658 0.079171 0.372961
C114  C     C_R   0.553768 0.250252 0.920779 0.373528
C115  C     C_R   0.993178 0.750381 0.080094 0.027007
C116  C     C_R   0.006955 0.749041 0.919999 0.027266
C117  C     C_R   0.493097 0.249989 0.080014 0.026373
C118  C     C_R   0.506880 0.249676 0.919929 0.027280
C119  C     C_R   0.976838 0.749265 0.000270 -0.113850
C120  C     C_R   0.048509 0.289988 0.003807 0.016525
C121  C     C_R   0.023309 0.749204 0.999858 -0.112993
C122  C     C_R   0.476749 0.249358 0.000172 -0.113461
C123  C     C_R   0.523224 0.249295 0.999772 -0.114383
C124  C     C_R   0.914052 0.748271 0.920773 -0.035621
C125  C     C_R   0.086110 0.749365 0.079383 -0.035498
C126  C     C_R   0.413951 0.248838 0.920651 -0.034424
C127  C     C_R   0.586020 0.248914 0.079298 -0.035998
C128  C     C_R   0.055980 0.750766 0.158695 0.429551
C129  C     C_R   0.944163 0.748285 0.841412 0.428769
C130  C     C_R   0.555894 0.249871 0.158623 0.428914
C131  C     C_R   0.953756 0.290066 0.000598 0.016167
C132  C     C_R   0.444078 0.249440 0.841318 0.427629
C133  C     C_R   0.101783 0.750070 0.158029 -0.042219
C134  C     C_R   0.898376 0.747720 0.842118 -0.041579
C135  C     C_R   0.601692 0.249134 0.157950 -0.041969
C136  C     C_R   0.398275 0.248824 0.841994 -0.047391
C137  C     C_R   0.187819 0.624618 0.813912 -0.028594
C138  C     C_R   0.814147 0.629576 0.196681 -0.062483
C139  C     C_R   0.685180 0.131744 0.799681 -0.023206
C140  C     C_R   0.314190 0.129685 0.196900 -0.062801
C141  C     C_R   0.189938 0.690578 0.881318 0.587991
C142  C     C_R   0.518991 0.670926 0.992143 -0.111470
C143  C     C_R   0.809158 0.690707 0.118370 0.583747
C144  C     C_R   0.690845 0.190738 0.881671 0.596225
C145  C     C_R   0.309159 0.190707 0.118370 0.585214
C146  C     C_R   0.156117 0.657632 0.813925 0.017181
C147  C     C_R   0.843286 0.657675 0.184218 0.018688
C148  C     C_R   0.656780 0.157749 0.815836 0.022500
C149  C     C_R   0.343287 0.157674 0.184214 0.018536
C150  C     C_R   0.091811 0.661291 0.742252 0.377112
C151  C     C_R   0.907568 0.653002 0.238921 0.380726
C152  C     C_R   0.593326 0.151024 0.764912 0.372367
Cu1   Cu    Cu3+1 0.280880 0.719080 0.061820 1.036761
Cu2   Cu    Cu3+1 0.455570 0.999980 0.500010 1.022100
Cu3   Cu    Cu3+1 0.044430 0.499980 0.499990 0.968774
Cu4   Cu    Cu3+1 0.955570 0.499980 0.500010 1.080196
Cu5   Cu    Cu3+1 0.719120 0.719080 0.938180 1.015969
Cu6   Cu    Cu3+1 0.780880 0.219080 0.061820 1.042990
Cu7   Cu    Cu3+1 0.219120 0.219080 0.938180 1.002266
Cu8   Cu    Cu3+1 0.219090 0.780890 0.938220 1.082963
Cu9   Cu    Cu3+1 0.780910 0.780890 0.061780 1.068728
Cu10  Cu    Cu3+1 0.719090 0.280890 0.938220 1.063588
Cu11  Cu    Cu3+1 0.280910 0.280890 0.061780 1.062942
Cu12  Cu    Cu3+1 0.544430 0.999980 0.499990 1.019632
F1    F     F_    0.807372 0.747441 0.844952 -0.617307
F2    F     F_    0.926544 0.747970 0.763480 -0.527111
F3    F     F_    0.573511 0.250312 0.236552 -0.527912
F4    F     F_    0.426463 0.249653 0.763388 -0.530715
F5    F     F_    0.059749 0.694443 0.737304 -0.539064
F6    F     F_    0.938725 0.679446 0.229587 -0.544743
F7    F     F_    0.562965 0.175480 0.777940 -0.548087
F8    F     F_    0.438639 0.179216 0.229123 -0.544504
F9    F     F_    0.309238 0.943809 0.237861 -0.616239
F10   F     F_    0.690504 0.944597 0.763170 -0.617615
F11   F     F_    0.809990 0.445530 0.234736 -0.618487
F12   F     F_    0.192808 0.749552 0.155171 -0.617779
F13   F     F_    0.065227 0.440597 0.758404 -0.610413
F14   F     F_    0.307271 0.248206 0.844839 -0.644523
F15   F     F_    0.692717 0.248516 0.155125 -0.618183
F16   F     F_    0.960694 0.751898 0.154965 -0.491075
F17   F     F_    0.039475 0.749212 0.845116 -0.496368
F18   F     F_    0.460610 0.251141 0.154893 -0.491275
F19   F     F_    0.539385 0.250527 0.845059 -0.492665
F20   F     F_    0.073598 0.751685 0.236613 -0.527536
H1    H     H_    0.616288 0.820130 0.010280 0.125854
H2    H     H_    0.850447 0.747025 0.780609 0.208786
H3    H     H_    0.649623 0.248924 0.219475 0.208532
H4    H     H_    0.350338 0.248522 0.780473 0.206058
H5    H     H_    0.009904 0.631115 0.624878 0.166655
H6    H     H_    0.989204 0.617164 0.344634 0.173600
H7    H     H_    0.512329 0.113674 0.661959 0.174667
H8    H     H_    0.489126 0.116960 0.344214 0.171879
H9    H     H_    0.175100 0.531497 0.812129 0.137783
H10   H     H_    0.777278 0.549267 0.215362 0.184385
H11   H     H_    0.723684 0.053917 0.777437 0.168493
H12   H     H_    0.389433 0.820346 0.000898 0.122158
H13   H     H_    0.277221 0.049517 0.215835 0.182838
H14   H     H_    0.225628 0.545298 0.793801 0.148781
H15   H     H_    0.793440 0.589633 0.294574 0.150031
H16   H     H_    0.702487 0.095167 0.695970 0.153238
H17   H     H_    0.293734 0.089941 0.295222 0.149795
H18   H     H_    0.605194 0.680240 0.988852 0.132846
H19   H     H_    0.388256 0.680125 0.998842 0.112220
H20   H     H_    0.106069 0.180087 0.990615 0.132706
H21   H     H_    0.889398 0.180020 0.001282 0.148276
H22   H     H_    0.534735 0.640107 0.988825 0.137813
H23   H     H_    0.115629 0.320083 0.008972 0.125426
H24   H     H_    0.455392 0.640047 0.992542 0.126681
H25   H     H_    0.036130 0.139940 0.991691 0.138669
H26   H     H_    0.956823 0.139910 0.995507 0.127941
H27   H     H_    0.463095 0.860431 0.007004 0.123158
H28   H     H_    0.546155 0.860333 0.010785 0.123361
H29   H     H_    0.961709 0.360367 0.004189 0.124653
H30   H     H_    0.044918 0.360283 0.008285 0.128031
H31   H     H_    0.259600 0.880119 0.126186 0.162819
H32   H     H_    0.740139 0.880900 0.874675 0.161473
H33   H     H_    0.760243 0.381742 0.123211 0.162548
H34   H     H_    0.888433 0.320276 0.998811 0.123799
H35   H     H_    0.128355 0.377151 0.870739 0.148492
H36   H     H_    0.533109 0.854635 0.402037 0.174413
H37   H     H_    0.466934 0.853496 0.596444 0.174568
H38   H     H_    0.032393 0.352064 0.407495 0.163346
H39   H     H_    0.099785 0.346279 0.575003 0.148524
H40   H     H_    0.487856 0.841992 0.429799 0.107911
H41   H     H_    0.512921 0.841670 0.569674 0.107784
H42   H     H_    0.984281 0.341326 0.431256 0.112365
H43   H     H_    0.172195 0.380017 0.646487 0.141263
H44   H     H_    0.254048 0.554271 0.978251 0.252639
H45   H     H_    0.433158 0.784794 0.321736 0.178155
H46   H     H_    0.183736 0.577334 0.912951 0.233805
H47   H     H_    0.692560 0.626225 0.036403 0.241916
H48   H     H_    0.727413 0.577450 0.071112 0.237432
H49   H     H_    0.828534 0.094611 0.918302 0.245636
H50   H     H_    0.776861 0.080918 0.922808 0.239698
H51   H     H_    0.192553 0.126487 0.036915 0.241881
H52   H     H_    0.227119 0.077615 0.071502 0.237125
H53   H     H_    0.296767 0.608118 0.875660 0.218391
H54   H     H_    0.313323 0.626407 0.963610 0.254225
H55   H     H_    0.764504 0.665258 0.247477 0.234184
H56   H     H_    0.567631 0.784511 0.677596 0.178066
H57   H     H_    0.717997 0.679941 0.143313 0.225405
H58   H     H_    0.727870 0.171644 0.742442 0.234690
H59   H     H_    0.776809 0.185869 0.847355 0.242681
H60   H     H_    0.264983 0.165538 0.248269 0.233228
H61   H     H_    0.218504 0.180317 0.144170 0.224593
H62   H     H_    0.455950 0.772792 0.234975 0.251781
H63   H     H_    0.498589 0.818465 0.271085 0.245967
H64   H     H_    0.543969 0.771595 0.763150 0.252074
H65   H     H_    0.500907 0.816921 0.726756 0.246607
H66   H     H_    0.955751 0.270029 0.240954 0.252182
H67   H     H_    0.929627 0.284159 0.323161 0.179021
H68   H     H_    0.000034 0.314922 0.278727 0.245623
H69   H     H_    0.171316 0.256269 0.726577 0.292782
H70   H     H_    0.101745 0.278260 0.643112 0.240705
H71   H     H_    0.226553 0.322107 0.755243 0.196970
H72   H     H_    0.149719 0.750272 0.219550 0.208334
N1    N     N_3   0.229691 0.582927 0.944959 -0.556365
N2    N     N_3   0.513910 0.791928 0.709058 -0.604382
N3    N     N_3   0.985651 0.290330 0.295243 -0.603611
N4    N     N_3   0.148185 0.278218 0.674938 -0.571958
N5    N     N_3   0.707298 0.601049 0.080090 -0.569450
N6    N     N_3   0.793542 0.106982 0.912497 -0.586629
N7    N     N_3   0.207206 0.101339 0.080610 -0.569249
N8    N     N_3   0.296646 0.599441 0.922687 -0.589578
N9    N     N_3   0.729670 0.653827 0.183720 -0.571596
N10   N     N_3   0.764760 0.160368 0.805638 -0.587787
N11   N     N_3   0.230042 0.154189 0.184472 -0.572968
N12   N     N_3   0.486063 0.793173 0.289081 -0.603354
O1    O     O_R   0.321150 0.768980 0.142380 -0.502981
O2    O     O_R   0.507570 0.954900 0.590190 -0.522578
O3    O     O_R   0.992430 0.454900 0.409810 -0.522585
O4    O     O_R   0.007570 0.454900 0.590190 -0.451835
O5    O     O_R   0.417320 0.954950 0.409780 -0.457282
O6    O     O_R   0.582680 0.954950 0.590220 -0.458175
O7    O     O_R   0.917320 0.454950 0.409780 -0.458497
O8    O     O_R   0.082680 0.454950 0.590220 -0.534196
O9    O     O_R   0.268980 0.821170 0.038000 -0.523264
O10   O     O_R   0.731020 0.821170 0.962000 -0.521425
O11   O     O_R   0.768980 0.321170 0.038000 -0.522820
O12   O     O_R   0.678850 0.768980 0.857620 -0.501625
O13   O     O_R   0.231020 0.321170 0.962000 -0.520197
O14   O     O_R   0.340930 0.723870 0.052190 -0.528089
O15   O     O_R   0.659070 0.723870 0.947810 -0.531095
O16   O     O_R   0.840930 0.223870 0.052190 -0.517732
O17   O     O_R   0.159070 0.223870 0.947810 -0.521156
O18   O     O_R   0.288760 0.776060 0.947810 -0.515969
O19   O     O_R   0.711240 0.776060 0.052190 -0.517098
O20   O     O_R   0.788760 0.276060 0.947810 -0.519616
O21   O     O_R   0.211240 0.276060 0.052190 -0.520651
O22   O     O_R   0.230990 0.678800 0.962040 -0.503688
O23   O     O_R   0.821150 0.268980 0.142380 -0.504894
O24   O     O_R   0.769010 0.678800 0.037960 -0.531201
O25   O     O_R   0.730990 0.178800 0.962040 -0.504616
O26   O     O_R   0.269010 0.178800 0.037960 -0.530119
O27   O     O_R   0.178820 0.731000 0.857660 -0.452375
O28   O     O_R   0.821180 0.731000 0.142340 -0.464345
O29   O     O_R   0.678820 0.231000 0.857660 -0.474996
O30   O     O_R   0.321180 0.231000 0.142340 -0.464757
O31   O     O_R   0.211210 0.723910 0.052230 -0.460937
O32   O     O_R   0.788790 0.723910 0.947770 -0.455396
O33   O     O_R   0.711210 0.223910 0.052230 -0.458758
O34   O     O_R   0.178850 0.268980 0.857620 -0.510338
O35   O     O_R   0.288790 0.223910 0.947770 -0.463292
O36   O     O_R   0.159040 0.776100 0.947850 -0.456762
O37   O     O_R   0.840960 0.776100 0.052150 -0.456199
O38   O     O_R   0.659040 0.276100 0.947850 -0.459429
O39   O     O_R   0.340960 0.276100 0.052150 -0.455199
O40   O     O_R   0.992480 0.545070 0.409820 -0.513846
O41   O     O_R   0.007520 0.545070 0.590180 -0.497542
O42   O     O_R   0.492480 0.045070 0.409820 -0.517622
O43   O     O_R   0.507520 0.045070 0.590180 -0.518166
O44   O     O_R   0.917370 0.545120 0.409780 -0.503073
O45   O     O_R   0.082630 0.545120 0.590220 -0.506328
O46   O     O_R   0.417370 0.045120 0.409780 -0.499673
O47   O     O_R   0.582630 0.045120 0.590220 -0.498507
O48   O     O_R   0.492430 0.954900 0.409810 -0.523270

loop_
_geom_bond_atom_site_label_1
_geom_bond_atom_site_label_2
_ccdc_geom_bond_type
C105  C110  A    
C107  C112  A    
C21   C137  S    
C89   H40   S    
H61   N11   S    
C19   H16   S    
Cu7   O17   S    
C151  F6    S    
C16   C20   S    
C20   H17   S    
Cu9   O10   S    
C93   O18   A    
C95   O20   A    
C76   O23   A    
C146  C150  A    
C130  F3    S    
Cu11  O13   S    
C70   C74   A    
C91   C100  S    
C35   C109  A    
Cu5   O15   S    
Cu6   O16   S    
C83   C88   A    
Cu4   O44   S    
C126  C136  A    
C59   C60   A    
C63   C85   A    
H53   N8    S    
C25   N11   S    
C9    C26   S    
Cu3   Cu4   S    
C15   C139  A    
C59   C120  A    
C3    C149  A    
C116  C121  A    
C36   C106  S    
C137  C146  A    
C25   C140  S    
C39   C98   A    
C99   N2    S    
C17   C21   S    
C36   O37   A    
C108  C113  A    
C41   H23   S    
Cu2   O5    S    
C19   C23   S    
C1    O9    A    
C78   C82   A    
Cu1   O22   S    
C85   C90   S    
C65   C68   S    
C96   O17   A    
C33   C83   S    
C99   H56   S    
C74   C79   A    
H57   N9    S    
C7    H8    S    
C2    H24   S    
C106  C111  A    
C13   C54   A    
Cu11  O30   S    
Cu3   O8    S    
C42   H34   S    
C2    C53   A    
Cu10  O11   S    
C57   C61   A    
C94   O19   A    
C33   O8    A    
C4    C150  A    
C5    C151  A    
C86   C91   S    
H69   N4    S    
C21   N1    S    
C66   C70   A    
C45   C50   A    
C49   C53   A    
C103  F12   S    
C51   C55   A    
C142  H22   S    
C41   C120  A    
C48   C52   A    
H52   N7    S    
C65   O10   A    
C41   C45   A    
C32   O3    A    
C103  C107  A    
Cu2   O2    S    
C31   O6    A    
C114  F19   S    
C77   F10   S    
C53   C58   A    
C26   O40   A    
C18   H10   S    
C134  H2    S    
C22   N9    S    
H65   N2    S    
C121  C125  A    
C129  F2    S    
Cu2   Cu12  S    
C101  H71   S    
C66   C88   A    
Cu12  O42   S    
C48   H18   S    
C43   C94   S    
C69   C76   S    
C63   C99   S    
C92   H43   S    
C6    H7    S    
C79   F13   S    
C42   C131  A    
C110  C114  A    
Cu8   O18   S    
C8    C12   A    
Cu12  O47   S    
Cu1   O31   S    
C100  N3    S    
C136  H4    S    
C61   C120  A    
C66   C101  S    
C16   C140  A    
C105  F15   S    
H62   N12   S    
C70   C87   S    
C135  H3    S    
C93   O14   A    
C54   C59   A    
C119  C121  A    
C139  C148  A    
C105  C127  A    
C13   H25   S    
C90   H37   S    
C115  C128  A    
Cu7   O34   S    
C147  C151  A    
C117  C122  A    
C5    C9    A    
C62   C97   S    
C123  C127  A    
H46   N1    S    
C132  C136  A    
C31   O2    A    
C114  C118  A    
C64   C69   A    
C91   H38   S    
C30   O5    A    
C113  C117  A    
C57   H29   S    
C115  C119  A    
C91   H42   S    
C78   F11   S    
C2    C142  A    
H64   N2    S    
Cu9   O28   S    
C90   C99   S    
C112  C116  A    
C62   C84   A    
C63   C68   A    
H51   N7    S    
Cu1   O14   S    
C18   C22   S    
C29   O47   A    
Cu6   O25   S    
C30   O48   A    
C51   H21   S    
C112  F17   S    
C32   C82   S    
C124  C134  A    
H60   N11   S    
Cu1   Cu8   S    
C71   H31   S    
C1    C67   S    
C56   C58   A    
H58   N10   S    
C46   C98   A    
C103  C125  A    
C118  C132  A    
C143  O24   A    
H50   N6    S    
C27   O45   A    
C28   O42   A    
C140  C149  A    
C81   C85   A    
C94   O15   A    
Cu4   O41   S    
C49   H19   S    
H66   N3    S    
H54   N8    S    
C130  C135  A    
C80   C84   A    
C100  H67   S    
C141  O22   A    
C15   C19   S    
C38   O35   A    
C50   C54   A    
C34   C107  S    
Cu12  O6    S    
C127  C135  A    
C3    C7    A    
C145  O26   A    
Cu3   O45   S    
C3    F8    S    
C36   O32   A    
C34   O36   A    
C20   C25   S    
C144  O29   A    
C14   C138  A    
C26   O44   A    
C12   C17   S    
C27   O41   A    
C69   C73   A    
C28   O46   A    
C144  C148  S    
C6    C152  A    
H47   N5    S    
C55   C60   A    
Cu5   O24   S    
Cu6   O23   S    
C102  C124  A    
C60   C131  A    
C64   C86   A    
Cu9   O37   S    
C148  C152  A    
C96   O21   A    
Cu8   O27   S    
C24   H26   S    
C145  O30   A    
C47   C51   A    
C82   C86   A    
C143  C147  S    
C9    C14   A    
C11   C16   A    
C21   N8    S    
C77   C81   A    
C144  O25   A    
C17   H14   S    
Cu7   O35   S    
Cu8   O36   S    
C37   C110  S    
Cu10  O29   S    
C141  C146  S    
C72   H32   S    
C33   O4    A    
C111  F16   S    
Cu5   Cu9   S    
C104  C108  A    
C76   O11   A    
C92   H39   S    
Cu8   O9    S    
C6    C10   A    
Cu3   O3    S    
C40   C109  A    
Cu4   O4    S    
C22   C138  S    
C32   O7    A    
C89   H36   S    
C79   C83   A    
Cu2   O46   S    
C10   C29   S    
C11   C28   S    
C67   C71   A    
C118  C123  A    
C38   C108  S    
C20   H13   S    
C129  C134  A    
C64   C100  S    
C75   C80   A    
C1    O1    A    
Cu3   O40   S    
C95   O16   A    
C65   O12   A    
C8    C27   S    
C29   O43   A    
C35   C46   A    
C145  C149  S    
H68   N3    S    
H49   N6    S    
Cu12  O48   S    
C44   C49   A    
C19   H11   S    
C75   F9    S    
C58   C109  A    
C14   C18   S    
C90   H41   S    
C17   H9    S    
C128  F20   S    
H59   N10   S    
C56   C98   A    
C4    C8    A    
C119  C124  A    
C24   C55   A    
C7    C11   A    
C62   C67   A    
C23   C139  S    
C5    H6    S    
C10   C15   A    
C25   N7    S    
C143  O28   A    
C141  O27   A    
C150  F5    S    
C22   N5    S    
C37   O33   A    
C101  N4    S    
H55   N9    S    
C35   H27   S    
Cu4   O7    S    
C44   C93   S    
C97   H45   S    
C34   O31   A    
C88   C92   S    
C74   H35   S    
C73   C78   A    
H70   N4    S    
C43   C48   A    
Cu6   O33   S    
C68   C72   A    
C30   C80   S    
Cu2   O43   S    
C84   C89   S    
C37   O38   A    
C133  H72   S    
C104  F14   S    
H48   N5    S    
C116  C129  A    
C152  F7    S    
H44   N1    S    
C39   C43   A    
C23   N6    S    
C52   C142  A    
C13   C24   A    
C89   C97   S    
C122  C126  A    
C87   O13   A    
C72   C77   A    
C97   N12   S    
C113  F18   S    
C40   C44   A    
C138  C147  A    
C73   H33   S    
C117  C130  A    
Cu11  O21   S    
H63   N12   S    
C92   C101  S    
C102  F1    S    
Cu7   Cu11  S    
Cu10  O38   S    
C61   H30   S    
C40   H12   S    
C125  C133  A    
C4    H5    S    
C57   C131  A    
Cu1   O1    S    
C132  F4    S    
C50   H20   S    
C23   N10   S    
C31   C81   S    
C128  C133  A    
Cu5   O12   S    
C71   C75   A    
C46   H28   S    
C102  C106  A    
C42   C47   A    
Cu5   O32   S    
Cu11  O39   S    
Cu7   O26   S    
Cu6   Cu10  S    
C39   H1    S    
C52   C56   A    
C104  C126  A    
C18   H15   S    
C87   O34   A    
C47   C95   S    
C12   C137  A    
C111  C115  A    
C38   O39   A    
C122  C123  A    
C45   C96   S    
Cu9   O19   S    
Cu10  O20   S    
