data_mof_unit_24416.cif
_audit_creation_date              2012-12-10T18:49:21-0500
_audit_creation_method            fapswitch 2.2
_symmetry_space_group_name_H-M    P1
_symmetry_Int_Tables_number       1
_space_group_crystal_system       triclinic
_cell_length_a                    9.94226
_cell_length_b                    10.607505
_cell_length_c                    13.632788
_cell_angle_alpha                 90.963544
_cell_angle_beta                  83.825058
_cell_angle_gamma                 89.951532
_cell_volume                      1429.20000362

loop_
_atom_site_label
_atom_site_type_symbol
_atom_type_description
_atom_site_fract_x
_atom_site_fract_y
_atom_site_fract_z
_atom_type_partial_charge
C1    C     C_R   0.500387 0.739243 0.499513 0.965382
C2    C     C_R   0.499851 0.260746 0.500390 1.041898
C3    C     C_R   0.500035 0.128358 0.500645 -0.338264
C4    C     C_R   0.501884 0.871728 0.501696 -0.367005
C5    C     C_R   0.476541 0.502320 0.685271 0.877740
C6    C     C_R   0.523467 0.498603 0.314701 0.956921
C7    C     C_R   0.938734 0.445768 0.423430 0.405103
C8    C     C_R   0.061337 0.556245 0.575640 0.424718
C9    C     C_R   0.082216 0.445175 0.423738 0.276182
C10   C     C_R   0.917801 0.555110 0.576113 0.268783
C11   C     C_1   0.540230 0.493451 0.211385 -0.107607
C12   C     C_1   0.459975 0.512813 0.788391 -0.111282
C13   C     C_2   0.555977 0.487290 0.019436 0.391141
C14   C     C_2   0.446420 0.527087 0.980067 0.407145
C15   C     C_1   0.449261 0.521387 0.875737 -0.052791
C16   C     C_1   0.551834 0.489492 0.123887 -0.040194
C17   C     C_R   0.544134 0.932720 0.413324 0.336964
C18   C     C_R   0.466137 0.067689 0.590074 0.381207
C19   C     C_R   0.536505 0.063825 0.411720 0.270985
C20   C     C_R   0.464335 0.937597 0.591034 0.282744
N1    N     N_R   0.142790 0.500030 0.500020 -0.217659
N2    N     N_R   0.857210 0.499970 0.499980 -0.220495
O1    O     O_R   0.385380 0.683250 0.500010 -0.619436
O2    O     O_R   0.614620 0.316750 0.499990 -0.641850
O3    O     O_R   0.614710 0.683220 0.500000 -0.660162
O4    O     O_R   0.385290 0.316780 0.500000 -0.625642
O5    O     O_R   0.368830 0.499990 0.640350 -0.560160
O6    O     O_R   0.631170 0.500010 0.359650 -0.567556
O7    O     O_R   0.598160 0.499960 0.640350 -0.600104
O8    O     O_R   0.401840 0.500040 0.359650 -0.583448
Zn1   Zn    Zn3+2 0.346870 0.500020 0.500000 1.010078
Zn2   Zn    Zn3+2 0.653130 0.499980 0.500000 0.972460
O9    O     O_3   0.882107 0.405579 0.340140 -0.545486
C21   C     C_3   0.884605 0.272577 0.332159 0.162439
H1    H     H_    0.805200 0.231608 0.385483 0.165897
H2    H     H_    0.983291 0.230534 0.345648 0.139823
C22   C     C_3   0.856824 0.234619 0.228122 -0.747798
H3    H     H_    0.935641 0.274732 0.173595 0.264013
H4    H     H_    0.858519 0.130483 0.219444 0.192907
H5    H     H_    0.756253 0.270552 0.213061 0.265358
O10   O     O_3   0.118671 0.604911 0.656111 -0.545587
C23   C     C_3   0.111916 0.738205 0.657437 0.139812
H6    H     H_    0.015135 0.776407 0.636037 0.129166
H7    H     H_    0.195020 0.776892 0.606150 0.170517
C24   C     C_3   0.127730 0.786475 0.761264 -0.706408
H8    H     H_    0.222388 0.748963 0.786292 0.260313
H9    H     H_    0.131621 0.891118 0.762297 0.226952
H10   H     H_    0.040493 0.755444 0.812926 0.254836
O11   O     O_3   0.158695 0.389441 0.344956 -0.707833
H11   H     H_    0.232719 0.343980 0.372040 0.371058
O12   O     O_3   0.841587 0.611750 0.654649 -0.709744
H12   H     H_    0.766952 0.656219 0.627538 0.363378
O13   O     O_3   0.333382 0.570734 0.039051 -0.756975
H13   H     H_    0.264126 0.595037 0.995548 0.342957
O14   O     O_3   0.668997 0.443656 0.960411 -0.776604
H14   H     H_    0.737790 0.418158 0.003913 0.340965
O15   O     O_3   0.584647 0.863277 0.328225 -0.602283
C25   C     C_3   0.727639 0.859869 0.314719 0.071765
H15   H     H_    0.768518 0.807622 0.375114 0.166599
H16   H     H_    0.771460 0.956378 0.312426 0.130254
C26   C     C_3   0.774116 0.792958 0.217461 -0.753514
H17   H     H_    0.734377 0.842752 0.155562 0.252108
H18   H     H_    0.886370 0.791924 0.205428 0.214408
H19   H     H_    0.737199 0.694281 0.218871 0.264559
O16   O     O_3   0.426187 0.135595 0.675873 -0.575169
C27   C     C_3   0.538832 0.152875 0.729712 0.119320
H20   H     H_    0.597172 0.236641 0.701806 0.145595
H21   H     H_    0.608266 0.069669 0.725207 0.148587
C28   C     C_3   0.488698 0.175331 0.837979 -0.723810
H22   H     H_    0.438999 0.088847 0.869014 0.262943
H23   H     H_    0.575137 0.199364 0.879998 0.224570
H24   H     H_    0.414369 0.253851 0.846002 0.251840
O17   O     O_3   0.561982 0.131379 0.325753 -0.790262
H25   H     H_    0.572701 0.072736 0.268171 0.372648
O18   O     O_3   0.428540 0.880038 0.680415 -0.747079
H26   H     H_    0.444232 0.788113 0.674312 0.317167

loop_
_geom_bond_atom_site_label_1
_geom_bond_atom_site_label_2
_ccdc_geom_bond_type
O1    Zn1   S    
C26   H19   S    
C27   H21   S    
O18   H26   S    
O2    Zn2   S    
C3    C19   A    
C22   H3    S    
C21   H1    S    
C22   H5    S    
C21   C22   S    
N1    Zn1   S    
O10   C23   S    
C18   C20   A    
C26   H17   S    
C12   C15   T    
C19   O17   S    
O14   H14   S    
C1    C4    S    
C25   C26   S    
C26   H18   S    
C8    N1    A    
C23   H7    S    
O16   C27   S    
O4    Zn1   S    
C2    O4    A    
C5    O5    A    
C13   C14   D    
C10   N2    A    
C18   O16   S    
C1    O3    A    
C7    O9    S    
C6    C11   S    
C9    N1    A    
O15   C25   S    
C28   H22   S    
N2    Zn2   S    
O3    Zn2   S    
C7    N2    A    
C4    C17   A    
C6    O8    A    
O13   H13   S    
O9    C21   S    
C1    O1    A    
O7    Zn2   S    
C21   H2    S    
C24   H9    S    
C2    O2    A    
O8    Zn1   S    
C22   H4    S    
C13   C16   S    
C27   C28   S    
C23   H6    S    
C10   O12   S    
C25   H16   S    
O12   H12   S    
C4    C20   A    
C5    O7    A    
C7    C9    A    
O6    Zn2   S    
C14   O13   S    
C9    O11   S    
C8    O10   S    
C3    C18   A    
C8    C10   A    
O11   H11   S    
O17   H25   S    
C24   H10   S    
C17   O15   S    
C27   H20   S    
C28   H23   S    
C14   C15   S    
C2    C3    S    
C17   C19   A    
C25   H15   S    
C24   H8    S    
O5    Zn1   S    
C11   C16   T    
C6    O6    A    
C20   O18   S    
C28   H24   S    
C13   O14   S    
C23   C24   S    
C5    C12   S    
