data_mof_unit_30034.cif
_audit_creation_date              2012-12-11T16:05:08-0500
_audit_creation_method            fapswitch 2.2
_symmetry_space_group_name_H-M    P1
_symmetry_Int_Tables_number       1
_space_group_crystal_system       triclinic
_cell_length_a                    10.600078
_cell_length_b                    10.603448
_cell_length_c                    16.855721
_cell_angle_alpha                 98.440611
_cell_angle_beta                  98.860922
_cell_angle_gamma                 61.941405
_cell_volume                      1645.90137769

loop_
_atom_site_label
_atom_site_type_symbol
_atom_type_description
_atom_site_fract_x
_atom_site_fract_y
_atom_site_fract_z
_atom_type_partial_charge
C1    C     C_R   0.350361 0.784643 0.402782 0.536050
C2    C     C_3   0.379250 0.742749 0.254587 -0.077598
C3    C     C_3   0.327799 0.849140 0.328624 0.040869
C4    C     C_R   0.366939 0.343745 0.359996 0.531160
C5    C     C_3   0.385249 0.943590 0.302774 -0.143113
C6    C     C_3   0.236175 0.028366 0.256163 -0.160771
C7    C     C_3   0.180008 0.932555 0.283782 -0.128493
C8    C     C_3   0.231383 0.826292 0.209363 -0.086614
C9    C     C_3   0.287845 0.921120 0.182407 0.053693
C10   C     C_3   0.457746 0.286745 0.780116 -0.155006
C11   C     C_3   0.375238 0.423273 0.734444 -0.097064
C12   C     C_3   0.673567 0.332393 0.233834 -0.144905
C13   C     C_3   0.338125 0.333132 0.663290 0.018368
C14   C     C_3   0.420803 0.197485 0.708247 -0.119914
C15   C     C_3   0.279432 0.233484 0.741996 -0.143480
C16   C     C_R   0.704023 0.417016 0.390633 0.563091
C17   C     C_3   0.196763 0.369822 0.695699 -0.103414
C18   C     C_3   0.234859 0.457071 0.768147 0.249890
C19   C     C_3   0.317402 0.322765 0.813303 0.060275
C20   C     C_1   0.766014 0.368601 0.715642 -0.033063
C21   C     C_1   0.811094 0.330781 0.782486 -0.037424
C22   C     C_1   0.338630 0.812515 0.709794 -0.038338
C23   C     C_3   0.740796 0.390143 0.308320 0.010214
C24   C     C_1   0.313527 0.838897 0.778620 -0.013553
C25   C     C_R   0.891584 0.310467 0.090661 0.544451
C26   C     C_R   0.292417 0.262292 0.122811 0.520206
C27   C     C_R   0.257024 0.959303 0.099495 0.546100
C28   C     C_R   0.356445 0.772630 0.627085 0.538077
C29   C     C_R   0.877750 0.302651 0.862388 0.544049
C30   C     C_R   0.308330 0.294797 0.892341 0.552753
C31   C     C_R   0.280488 0.883785 0.859191 0.581842
C32   C     C_R   0.367390 0.345401 0.585210 0.539778
C33   C     C_R   0.716721 0.411029 0.635486 0.553462
C34   C     C_3   0.892797 0.280837 0.289077 -0.128926
C35   C     C_1   0.326352 0.318552 0.277892 -0.068172
C36   C     C_1   0.307118 0.294100 0.206988 -0.074479
C37   C     C_3   0.827850 0.222454 0.213075 -0.154454
C38   C     C_3   0.507276 0.456904 0.081003 -0.086707
C39   C     C_3   0.896069 0.392051 0.241261 -0.143304
C40   C     C_3   0.743389 0.502229 0.261164 -0.085655
C41   C     C_3   0.680369 0.442221 0.185786 0.263717
C42   C     C_3   0.830688 0.334579 0.165857 0.062038
C43   C     C_3   0.436041 0.837712 0.227130 -0.081646
Cl1   Cl    Cl    0.113007 0.628410 0.809990 -0.567603
Cr1   Cr    Cr6+3 0.608340 0.611040 0.520430 1.025134
Cr2   Cr    Cr6+3 0.287650 0.601120 0.489350 1.032190
Cr3   Cr    Cr6+3 0.604040 0.287870 0.490280 1.023014
Cr4   Cr    Cr6+3 0.054020 0.052700 0.970850 1.055779
Cr5   Cr    Cr6+3 0.059230 0.375120 0.993390 1.061247
Cr6   Cr    Cr6+3 0.374950 0.061200 0.992340 1.028282
H1    H     H_    0.581938 0.309048 0.233220 0.121538
H2    H     H_    0.864359 0.107610 0.191819 0.131802
H3    H     H_    0.977406 0.219351 0.335645 0.134296
H4    H     H_    0.988277 0.415478 0.243434 0.124072
H5    H     H_    0.709522 0.616105 0.283480 0.117638
H6    H     H_    0.433775 0.624896 0.257323 0.127120
H7    H     H_    0.539141 0.801039 0.201378 0.158531
H8    H     H_    0.447620 0.991222 0.343243 0.139455
H9    H     H_    0.435259 0.443336 0.116573 0.140832
H10   H     H_    0.585660 0.351244 0.054288 0.124791
H11   H     H_    0.439411 0.521725 0.030560 0.165237
H12   H     H_    0.177545 0.146085 0.254082 0.096754
H13   H     H_    0.076399 0.968134 0.308687 0.125715
H14   H     H_    0.169248 0.776081 0.170978 0.142542
H15   H     H_    0.414328 0.502001 0.729356 0.114858
H16   H     H_    0.563317 0.254607 0.816324 0.130299
H17   H     H_    0.495510 0.090191 0.681774 0.150952
H18   H     H_    0.239841 0.155247 0.747385 0.122065
H19   H     H_    0.091231 0.402559 0.659405 0.155634
O1    O     O_R   0.751220 0.499230 0.435170 -0.506549
O2    O     O_R   0.412990 0.180750 0.091610 -0.525969
O3    O     O_R   0.366620 0.943130 0.065760 -0.493501
O4    O     O_R   0.477220 0.727600 0.436870 -0.523299
O5    O     O_R   0.160510 0.906330 0.879210 -0.441428
O6    O     O_R   0.930190 0.179050 0.889450 -0.493283
O7    O     O_R   0.909140 0.398170 0.896710 -0.480794
O8    O     O_R   0.186190 0.363460 0.918830 -0.458095
O9    O     O_R   0.401670 0.173200 0.913310 -0.520711
O10   O     O_R   0.356120 0.936130 0.900470 -0.499025
O11   O     O_3   0.162740 0.163010 0.985530 -0.310565
O12   O     O_R   0.297880 0.469080 0.560050 -0.491648
O13   O     O_R   0.258650 0.745120 0.411470 -0.512217
O14   O     O_R   0.297070 0.467240 0.395960 -0.493695
O15   O     O_R   0.488830 0.252610 0.387790 -0.525652
O16   O     O_R   0.724400 0.302390 0.420980 -0.487720
O17   O     O_R   0.752100 0.501210 0.612190 -0.487510
O18   O     O_R   0.478040 0.729440 0.600970 -0.511902
O19   O     O_R   0.259530 0.747110 0.588490 -0.491098
O20   O     O_3   0.575898 0.531509 0.128945 -0.579220
O21   O     O_R   0.489720 0.254590 0.564810 -0.522181
O22   O     O_R   0.725220 0.304230 0.585080 -0.482322
O23   O     O_3   0.500010 0.500010 0.500020 -0.299904
O24   O     O_R   0.171830 0.913880 0.057510 -0.504713
O25   O     O_R   0.940690 0.186050 0.054730 -0.536192
O26   O     O_R   0.920470 0.405720 0.075010 -0.503919
O27   O     O_R   0.196690 0.370460 0.084120 -0.503054

loop_
_geom_bond_atom_site_label_1
_geom_bond_atom_site_label_2
_ccdc_geom_bond_type
C41   O20   S    
C11   C18   S    
C17   H19   S    
C34   C37   S    
C41   C42   S    
C13   C32   S    
C35   C36   T    
C33   O17   A    
Cr6   O10   S    
C6    C9    S    
C7    C8    S    
C29   O7    A    
C15   C19   S    
C32   O12   A    
C38   O20   S    
Cr4   O25   S    
C5    H8    S    
Cr3   O16   S    
Cr1   O18   S    
C3    C7    S    
C33   O22   A    
C5    C6    S    
C39   H4    S    
Cr2   O23   S    
C23   C40   S    
C12   C37   S    
Cr1   O4    S    
C18   C19   S    
Cr3   O23   S    
C37   C42   S    
Cr1   O23   S    
Cr6   O3    S    
Cr2   O13   S    
C30   O8    A    
C32   O21   A    
C8    C9    S    
C4    O15   A    
C28   O19   A    
C14   H17   S    
C10   C19   S    
C38   H11   S    
C40   H5    S    
C5    C43   S    
C4    C35   S    
C25   O25   A    
C22   C28   S    
C13   C14   S    
C26   O2    A    
Cr4   O6    S    
Cr6   O9    S    
C39   C42   S    
Cr2   O19   S    
C10   H16   S    
C26   O27   A    
C9    C43   S    
Cr4   O24   S    
C34   C39   S    
Cr4   O5    S    
C16   O1    A    
C10   C14   S    
C39   C40   S    
C37   H2    S    
C31   O5    A    
C1    O13   A    
C21   C29   S    
C38   H9    S    
C1    C3    S    
Cr6   O2    S    
C12   C41   S    
C18   Cl1   S    
Cr2   O12   S    
C12   C23   S    
C2    C43   S    
C23   C34   S    
C28   O18   A    
C17   C18   S    
Cr5   O7    S    
Cr3   O15   S    
Cr5   O26   S    
C7    H13   S    
C8    H14   S    
C38   H10   S    
C20   C33   S    
C26   C36   S    
C40   C41   S    
C25   O26   A    
C16   C23   S    
C16   O16   A    
Cr3   O21   S    
C22   C24   T    
C27   O24   A    
C12   H1    S    
C9    C27   S    
C15   C17   S    
Cr1   O1    S    
Cr3   O22   S    
C2    C8    S    
C3    C5    S    
Cr6   O11   S    
C25   C42   S    
C31   O10   A    
C6    C7    S    
C29   O6    A    
Cr5   O11   S    
C13   C17   S    
C1    O4    A    
C6    H12   S    
C2    C3    S    
C24   C31   S    
C2    H6    S    
C11   C13   S    
Cr4   O11   S    
C4    O14   A    
C15   H18   S    
Cr5   O8    S    
Cr1   O17   S    
Cr5   O27   S    
C10   C11   S    
C43   H7    S    
Cr2   O14   S    
C30   O9    A    
C20   C21   T    
C34   H3    S    
C14   C15   S    
C19   C30   S    
C27   O3    A    
C11   H15   S    
