data_mof_unit_19617.cif
_audit_creation_date              2012-12-10T20:36:37-0500
_audit_creation_method            fapswitch 2.2
_symmetry_space_group_name_H-M    P1
_symmetry_Int_Tables_number       1
_space_group_crystal_system       triclinic
_cell_length_a                    10.556427
_cell_length_b                    10.769114
_cell_length_c                    10.014162
_cell_angle_alpha                 88.300026
_cell_angle_beta                  90.279347
_cell_angle_gamma                 98.594983
_cell_volume                      1125.16277302

loop_
_atom_site_label
_atom_site_type_symbol
_atom_type_description
_atom_site_fract_x
_atom_site_fract_y
_atom_site_fract_z
_atom_type_partial_charge
C1    C     C_R   0.501241 0.260075 0.501240 0.896742
C2    C     C_R   0.544185 0.936797 0.615865 0.167761
C3    C     C_3   0.479039 0.905475 0.747056 -0.450980
C4    C     C_R   0.256382 0.491469 0.500147 0.954424
C5    C     C_3   0.454705 0.039834 0.745498 0.220799
C6    C     C_R   0.401222 0.435552 0.071840 0.087871
C7    C     C_R   0.589169 0.583731 0.071314 0.307302
C8    C     C_R   0.591077 0.582535 0.924535 0.297927
C9    C     C_R   0.399582 0.438607 0.931137 0.018653
C10   C     C_3   0.349235 0.303436 0.926443 -0.356721
C11   C     C_3   0.355928 0.297610 0.077637 0.194561
C12   C     C_3   0.981196 0.613472 0.458564 -0.130225
C13   C     C_R   0.503536 0.739893 0.498431 0.935164
C14   C     C_R   0.742499 0.503472 0.499966 0.964971
C15   C     C_3   0.012349 0.380861 0.540104 0.404886
C16   C     C_3   0.936946 0.412655 0.415734 -0.165677
C17   C     C_3   0.877189 0.504556 0.499264 -0.110876
C18   C     C_3   0.951142 0.473044 0.623313 -0.194342
C19   C     C_3   0.058455 0.581157 0.582931 -0.196700
C20   C     C_3   0.044600 0.520981 0.375581 -0.083848
C21   C     C_3   0.119707 0.487854 0.500411 -0.126595
C22   C     C_R   0.531568 0.061692 0.618871 0.019076
C23   C     C_R   0.513216 0.128862 0.500752 -0.041807
C24   C     C_R   0.517755 0.069632 0.377879 -0.172765
C25   C     C_R   0.520318 0.941828 0.375733 -0.139329
C26   C     C_R   0.524156 0.873760 0.496274 -0.074164
H1    H     H_    0.884412 0.344188 0.346661 0.204586
H2    H     H_    0.084658 0.541512 0.273728 0.222283
H3    H     H_    0.510958 0.119442 0.283456 0.164397
H4    H     H_    0.509567 0.895850 0.281032 0.215178
H5    H     H_    0.391681 0.833908 0.742096 0.236118
H6    H     H_    0.134040 0.923438 0.626990 0.406355
H7    H     H_    0.772564 0.798891 0.331956 0.369587
H8    H     H_    0.810499 0.755575 0.649995 0.368825
H9    H     H_    0.261502 0.172780 0.337479 0.373200
H10   H     H_    0.795464 0.216593 0.660457 0.335183
H11   H     H_    0.547053 0.885158 0.826612 0.233002
H12   H     H_    0.501067 0.091210 0.831208 0.083123
H13   H     H_    0.250707 0.288262 0.884894 0.293613
H14   H     H_    0.419092 0.253192 0.878494 0.174946
H15   H     H_    0.429212 0.242122 0.116868 0.072987
H16   H     H_    0.911508 0.449607 0.724706 0.223027
H17   H     H_    0.110134 0.649953 0.652184 0.201312
H18   H     H_    0.964895 0.709131 0.425850 0.186710
N1    N     N_R   0.499140 0.499140 0.142800 -0.207118
N2    N     N_R   0.499140 0.499180 0.857150 -0.181761
O1    O     O_R   0.500020 0.316790 0.614690 -0.611456
O2    O     O_2   0.273351 0.176627 0.668625 -0.257855
O3    O     O_3   0.226766 0.942212 0.606604 -0.560362
O4    O     O_2   0.833401 0.700028 0.104710 -0.195332
O5    O     O_2   0.659505 0.828350 0.110953 -0.307317
O6    O     O_3   0.719913 0.715998 0.318437 -0.546008
O7    O     O_2   0.757014 0.807990 0.892122 -0.191687
O8    O     O_2   0.840271 0.613203 0.859758 -0.291046
O9    O     O_3   0.722513 0.715059 0.673345 -0.538309
O10   O     O_2   0.117549 0.352821 0.118012 -0.268406
O11   O     O_2   0.140218 0.130401 0.107429 -0.194070
O12   O     O_R   0.500000 0.316760 0.385350 -0.641551
O13   O     O_3   0.221556 0.249263 0.320052 -0.503316
O14   O     O_2   0.061693 0.143260 0.513515 -0.174206
O15   O     O_2   0.040783 0.216319 0.742195 -0.218568
O16   O     O_3   0.836040 0.163652 0.599186 -0.550932
O17   O     O_R   0.313960 0.499990 0.614650 -0.612652
O18   O     O_R   0.313940 0.499950 0.385310 -0.581790
O19   O     O_R   0.500000 0.683240 0.614650 -0.576884
O20   O     O_R   0.499980 0.683210 0.385310 -0.571976
O21   O     O_R   0.686060 0.500050 0.614690 -0.570541
O22   O     O_R   0.686040 0.500010 0.385350 -0.559306
O23   O     O_2   0.217921 0.019903 0.850068 -0.223314
S1    S     S_3+6 0.287922 0.047492 0.719742 0.050623
S2    S     S_3+6 0.700050 0.705172 0.153650 0.107458
S3    S     S_3+6 0.726289 0.679402 0.836556 0.101030
S4    S     S_3+6 0.202268 0.256481 0.153982 0.084143
S5    S     S_3+6 0.992928 0.221933 0.601012 0.094665
Zn1   Zn    Zn3+2 0.500010 0.500020 0.653130 1.046209
Zn2   Zn    Zn3+2 0.499990 0.499980 0.346870 1.061096

loop_
_geom_bond_atom_site_label_1
_geom_bond_atom_site_label_2
_ccdc_geom_bond_type
C15   C18   S    
C6    N1    A    
C6    C9    A    
O12   Zn2   S    
C7    C8    A    
C13   O19   A    
H7    O6    S    
C4    O17   A    
N1    Zn2   S    
C7    N1    A    
H9    O13   S    
C19   C21   S    
C9    N2    A    
C18   H16   S    
C7    S2    S    
C15   C16   S    
C10   H14   S    
C18   C19   S    
O11   S4    D    
C24   H3    S    
C5    C22   S    
C16   C17   S    
C12   C17   S    
C2    C22   A    
C14   O21   A    
C9    C10   S    
O13   S4    S    
O9    S3    S    
C16   H1    S    
H8    O9    S    
C5    H12   S    
C14   C17   S    
O5    S2    D    
H10   O16   S    
N2    Zn1   S    
C19   H17   S    
C13   O20   A    
C8    S3    S    
C24   C25   A    
C11   S4    S    
C6    C11   S    
C1    O1    A    
C20   H2    S    
C25   C26   A    
C10   H13   S    
O4    S2    D    
C5    S1    S    
C16   C20   S    
O20   Zn2   S    
C12   C20   S    
C17   C18   S    
O18   Zn2   S    
C2    C26   A    
C3    H5    S    
C1    C23   S    
O3    S1    S    
C13   C26   S    
O21   Zn1   S    
C25   H4    S    
O10   S4    D    
O2    S1    D    
C3    C5    S    
O15   S5    D    
O22   Zn2   S    
C4    O18   A    
O19   Zn1   S    
C2    C3    S    
O1    Zn1   S    
C12   H18   S    
O6    S2    S    
C1    O12   A    
C4    C21   S    
O17   Zn1   S    
C12   C19   S    
O14   S5    D    
C11   H15   S    
O23   S1    D    
C8    N2    A    
H6    O3    S    
C10   C11   S    
C23   C24   A    
C15   C21   S    
C15   S5    S    
O8    S3    D    
C20   C21   S    
C3    H11   S    
C14   O22   A    
C22   C23   A    
O16   S5    S    
O7    S3    D    
