data_mof_unit_40757.cif
_audit_creation_date              2012-12-11T15:49:17-0500
_audit_creation_method            fapswitch 2.2
_symmetry_space_group_name_H-M    P1
_symmetry_Int_Tables_number       1
_space_group_crystal_system       triclinic
_cell_length_a                    8.408512
_cell_length_b                    18.983435
_cell_length_c                    27.051867
_cell_angle_alpha                 95.471483
_cell_angle_beta                  91.736467
_cell_angle_gamma                 85.672334
_cell_volume                      4284.99376304

loop_
_atom_site_label
_atom_site_type_symbol
_atom_type_description
_atom_site_fract_x
_atom_site_fract_y
_atom_site_fract_z
_atom_type_partial_charge
Ba1   Ba    Ba6+2 0.854000 0.466860 0.523710 1.730795
Ba2   Ba    Ba6+2 0.335820 0.533080 0.476290 1.740445
C1    C     C_3   0.672028 0.211486 0.649993 -0.288679
C2    C     C_R   0.868245 0.547358 0.172823 0.684556
C3    C     C_2   0.719695 0.512988 0.268009 -0.002966
C4    C     C_3   0.173820 0.246276 0.654444 0.196386
C5    C     C_3   0.686754 0.517064 0.322437 0.115190
C6    C     C_1   0.972342 0.480747 0.338946 -0.074481
C7    C     C_2   0.998403 0.470153 0.289109 -0.146878
C8    C     C_2   0.865577 0.489073 0.250934 0.243595
C9    C     C_R   0.952779 0.483620 0.094273 -0.087667
C10   C     C_R   0.963957 0.420283 0.117741 -0.094256
C11   C     C_R   0.000427 0.356190 0.088693 -0.040082
C12   C     C_3   0.652020 0.285583 0.633006 0.383462
C13   C     C_R   0.901474 0.547300 0.121903 -0.013466
C14   C     C_2   0.838348 0.518346 0.354268 -0.262152
C15   C     C_2   0.342713 0.477824 0.640780 -0.362015
C16   C     C_3   0.125614 0.193438 0.690077 0.309915
C17   C     C_R   0.113035 0.422929 0.967968 -0.000128
C18   C     C_R   0.004321 0.546131 0.967557 0.042055
C19   C     C_R   0.083500 0.484712 0.942790 0.065818
C20   C     C_R   0.222748 0.369950 0.947049 -0.032217
C21   C     C_R   0.281887 0.370720 0.899176 0.405333
C22   C     C_R   0.229096 0.426866 0.869617 -0.125648
C23   C     C_3   0.495582 0.635754 0.627091 0.274988
C24   C     C_R   0.136510 0.485583 0.892945 -0.107525
C25   C     C_R   0.098675 0.545929 0.866949 -0.015989
C26   C     C_R   0.150549 0.547132 0.817790 0.624268
C27   C     C_R   0.267104 0.427986 0.818467 0.767416
C28   C     C_3   0.131521 0.309918 0.417846 0.201119
C29   C     C_2   0.442096 0.483717 0.730082 0.368504
C30   C     C_3   0.486254 0.484969 0.675566 -0.114203
C31   C     C_1   0.204020 0.508170 0.655392 0.057143
C32   C     C_2   0.161303 0.505117 0.702131 -0.080621
C33   C     C_2   0.284297 0.490867 0.742587 0.145874
C34   C     C_3   0.454773 0.663115 0.680312 -0.293379
C35   C     C_R   0.046584 0.419068 0.015738 -0.033770
C36   C     C_R   0.990331 0.483267 0.042968 0.026289
C37   C     C_R   0.969863 0.547117 0.019109 0.034011
C38   C     C_R   0.032215 0.354339 0.037827 0.364722
C39   C     C_R   0.884405 0.610091 0.098164 0.016757
C40   C     C_3   0.050715 0.241441 0.399848 0.309268
C41   C     C_R   0.965680 0.604956 0.940033 -0.066059
C42   C     C_R   0.011020 0.604581 0.890863 -0.016288
C43   C     C_R   0.917531 0.610100 0.048009 -0.077622
C44   C     C_R   0.393486 0.297571 0.519341 -0.238527
C45   C     C_3   0.103945 0.699772 0.341420 0.259976
C46   C     C_R   0.538513 0.275682 0.497092 0.014307
C47   C     C_R   0.603265 0.205864 0.500418 -0.123590
C48   C     C_R   0.515095 0.155890 0.521131 0.022515
C49   C     C_R   0.364989 0.178594 0.541362 -0.014050
C50   C     C_R   0.305783 0.249726 0.541100 0.017071
C51   C     C_R   0.559820 0.039280 0.559141 -0.077170
C52   C     C_3   0.993434 0.686453 0.592837 0.285964
C53   C     C_R   0.614948 0.967402 0.556258 -0.013137
C54   C     C_R   0.685796 0.934206 0.512801 0.096901
C55   C     C_R   0.697187 0.973869 0.472019 0.065047
C56   C     C_3   0.046574 0.726246 0.289577 0.375284
C57   C     C_R   0.644460 0.045763 0.475199 -0.012119
C58   C     C_R   0.575125 0.079584 0.518745 0.031807
C59   C     C_R   0.898296 0.832296 0.493139 0.413492
C60   C     C_R   0.932544 0.758027 0.481929 0.027342
C61   C     C_R   0.673871 0.735688 0.512917 0.020513
C62   C     C_R   0.632159 0.808473 0.519251 -0.168750
C63   C     C_R   0.741652 0.857611 0.508898 -0.075106
C64   C     C_3   0.976481 0.763988 0.613569 -0.316770
C65   C     C_R   0.821525 0.711484 0.493651 -0.373054
C66   C     C_3   0.557017 0.288737 0.370261 0.125534
C67   C     C_3   0.533300 0.725635 0.369285 0.146064
C68   C     C_3   0.641527 0.225735 0.337465 -0.312996
C69   C     C_2   0.468770 0.335911 0.335858 0.599901
C70   C     C_2   0.526304 0.190852 0.300558 0.556328
C71   C     C_2   0.715027 0.169182 0.367559 0.530169
C72   C     C_2   0.880875 0.705706 0.276125 0.544978
C73   C     C_2   0.702381 0.731258 0.385817 0.547002
C74   C     C_2   0.208044 0.315678 0.682707 0.587577
C75   C     C_2   0.159549 0.443645 0.271350 0.607092
C76   C     C_2   0.809406 0.533975 0.406898 0.586177
C77   C     C_3   0.447750 0.799706 0.360676 0.265307
C78   C     C_R   0.930613 0.422065 0.169211 0.705045
H1    H     H_    0.752651 0.290795 0.608312 0.102952
H2    H     H_    0.775622 0.206798 0.676082 0.140713
H3    H     H_    0.738385 0.246424 0.317011 0.147106
H4    H     H_    0.537327 0.291359 0.611977 -0.130127
H5    H     H_    0.691407 0.171820 0.617472 0.057756
H6    H     H_    0.385471 0.618318 0.607645 0.034755
H7    H     H_    0.586991 0.590413 0.627208 0.031276
H8    H     H_    0.375098 0.712556 0.680520 0.144512
H9    H     H_    0.391867 0.623682 0.698363 0.073007
H10   H     H_    0.565545 0.674461 0.702079 0.149615
H11   H     H_    0.563395 0.200243 0.668731 0.178500
H12   H     H_    0.032744 0.237698 0.358820 0.067931
H13   H     H_    0.233884 0.689691 0.342348 0.050625
H14   H     H_    0.056957 0.647809 0.346222 -0.010474
H15   H     H_    0.470975 0.709114 0.400976 0.008487
H16   H     H_    0.440692 0.831916 0.397211 0.063241
H17   H     H_    0.323700 0.793626 0.348628 0.099837
H18   H     H_    0.996377 0.306489 0.105106 0.185103
H19   H     H_    0.269819 0.328918 0.969373 0.184363
H20   H     H_    0.622478 0.525641 0.242247 0.121225
H21   H     H_    0.846205 0.660147 0.118525 0.159190
H22   H     H_    0.897193 0.651872 0.955285 0.089259
H23   H     H_    0.931502 0.243924 0.415828 0.018410
H24   H     H_    0.282775 0.222669 0.635375 -0.081153
H25   H     H_    0.977992 0.651247 0.871648 0.137772
H26   H     H_    0.037618 0.516240 0.712074 0.164202
H27   H     H_    0.905723 0.661035 0.033224 0.097182
H28   H     H_    0.355119 0.451438 0.603528 0.079915
H29   H     H_    0.516141 0.826897 0.533658 0.144199
H30   H     H_    0.603278 0.937758 0.588074 0.088097
H31   H     H_    0.506875 0.063600 0.593148 0.117972
H32   H     H_    0.721475 0.190267 0.486960 0.110667
H33   H     H_    0.747642 0.949117 0.437691 0.163127
H34   H     H_    0.872814 0.667035 0.586635 0.026277
H35   H     H_    0.035576 0.219216 0.716531 0.083452
H36   H     H_    0.655058 0.074368 0.443039 0.090335
H37   H     H_    0.293004 0.141057 0.556311 0.087081
H38   H     H_    0.853854 0.655405 0.489964 0.065424
H39   H     H_    0.344828 0.351748 0.517737 0.038702
H40   H     H_    0.070144 0.148725 0.668220 0.051136
H41   H     H_    0.253416 0.297329 0.431449 0.006518
H42   H     H_    0.068467 0.338730 0.449535 0.084417
H43   H     H_    0.398712 0.116657 0.407581 0.360639
H44   H     H_    0.359718 0.319092 0.317630 -0.040672
H45   H     H_    0.060706 0.681562 0.557855 0.023105
H46   H     H_    0.422987 0.167599 0.313562 0.054639
H47   H     H_    0.704110 0.174417 0.407096 -0.037070
H48   H     H_    0.488859 0.079317 0.707488 0.371890
H49   H     H_    0.125085 0.585530 0.268674 0.306349
H50   H     H_    0.817715 0.728178 0.245225 0.122791
H51   H     H_    0.042850 0.918383 0.335841 0.408753
H52   H     H_    0.779351 0.683558 0.388813 -0.091307
H53   H     H_    0.572602 0.763964 0.264906 0.357135
H54   H     H_    0.326053 0.334905 0.682272 -0.041786
H55   H     H_    0.245513 0.420989 0.296092 0.040475
H56   H     H_    0.922541 0.768741 0.650827 0.143907
H57   H     H_    0.818288 0.542023 0.783023 0.361926
H58   H     H_    0.589406 0.227463 0.917341 0.394275
H59   H     H_    0.957258 0.233908 0.926417 0.392358
H60   H     H_    0.854947 0.579467 0.427100 -0.070368
H61   H     H_    0.098303 0.998848 0.520002 0.383628
H62   H     H_    0.898217 0.795554 0.589132 0.061390
H63   H     H_    0.095452 0.786006 0.616829 0.146302
H64   H     H_    0.470902 0.267997 0.393776 -0.020589
N1    N     N_R   0.891995 0.486012 0.197086 -0.416274
N2    N     N_R   0.233309 0.488569 0.793846 -0.412967
O1    O     O_2   0.913240 0.537010 0.617740 -0.467675
O2    O     O_2   0.259277 0.744727 0.456731 -0.449070
O3    O     O_3   0.058045 0.749987 0.381147 -0.531783
O4    O     O_3   0.145240 0.536960 0.557560 -0.490247
O5    O     O_3   0.557280 0.416300 0.475860 -0.416176
O6    O     O_2   0.376710 0.670070 0.522470 -0.457419
O7    O     O_3   0.557148 0.690848 0.604735 -0.640048
O8    O     O_2   0.358247 0.561451 0.328425 -0.484052
O9    O     O_3   0.523301 0.674182 0.327719 -0.575763
O10   O     O_2   0.936197 0.366764 0.189109 -0.542218
O11   O     O_2   0.327124 0.374785 0.795417 -0.456253
O12   O     O_3   0.668688 0.329242 0.398202 -0.582436
O13   O     O_2   0.817310 0.602509 0.195552 -0.557210
O14   O     O_2   0.122977 0.600766 0.796387 -0.580218
O15   O     O_3   0.669960 0.410470 0.588880 -0.516394
O16   O     O_2   0.819549 0.445035 0.673250 -0.381926
O17   O     O_3   0.078518 0.648728 0.627685 -0.633639
O18   O     O_3   0.651674 0.336324 0.674423 -0.544148
O19   O     O_2   0.812980 0.329910 0.477500 -0.462781
O20   O     O_3   0.078660 0.374870 0.564770 -0.481777
O21   O     O_2   0.981486 0.251678 0.527336 -0.448229
O22   O     O_2   0.099776 0.139666 0.463320 -0.281641
O23   O     O_3   0.044559 0.257485 0.621116 -0.629786
O24   O     O_2   0.116285 0.102617 0.374664 -0.202864
O25   O     O_3   0.352791 0.165341 0.417446 -0.612137
O26   O     O_2   0.523970 0.389993 0.325325 -0.579064
O27   O     O_2   0.548010 0.188824 0.256014 -0.464911
O28   O     O_2   0.787617 0.116551 0.347460 -0.456051
O29   O     O_2   0.395835 0.213506 0.744695 -0.230488
O30   O     O_2   0.229262 0.121142 0.766724 -0.197995
O31   O     O_3   0.396130 0.095435 0.686927 -0.561134
O32   O     O_2   0.109175 0.709949 0.191480 -0.210600
O33   O     O_2   0.338756 0.697824 0.247995 -0.221918
O34   O     O_2   0.276450 0.462960 0.382230 -0.447447
O35   O     O_3   0.154846 0.595271 0.235199 -0.466727
O36   O     O_2   0.822544 0.658429 0.295089 -0.655192
O37   O     O_2   0.200218 0.838467 0.263670 -0.151208
O38   O     O_2   0.912766 0.847692 0.253678 -0.202916
O39   O     O_3   0.032252 0.868449 0.342226 -0.408504
O40   O     O_2   0.753991 0.788774 0.397548 -0.563987
O41   O     O_2   0.419168 0.920215 0.316613 -0.171595
O42   O     O_2   0.691092 0.877244 0.334411 -0.181889
O43   O     O_3   0.539759 0.813811 0.260214 -0.372111
O44   O     O_2   0.103417 0.350642 0.706390 -0.535199
O45   O     O_3   0.044470 0.462980 0.442430 -0.478336
O46   O     O_2   0.200509 0.448319 0.229019 -0.525423
O47   O     O_2   0.537805 0.521559 0.825312 -0.299557
O48   O     O_2   0.677067 0.417307 0.780768 -0.186332
O49   O     O_3   0.733216 0.542088 0.756919 -0.533841
O50   O     O_2   0.356232 0.247843 0.845588 -0.152752
O51   O     O_2   0.564752 0.332445 0.856313 -0.179936
O52   O     O_3   0.505384 0.263004 0.930661 -0.472033
O53   O     O_2   0.167372 0.226709 0.004110 -0.227953
O54   O     O_2   0.886007 0.233023 0.025108 -0.215528
O55   O     O_3   0.957280 0.282516 0.943366 -0.488865
O56   O     O_3   0.519740 0.589470 0.411120 -0.482290
O57   O     O_2   0.734096 0.493884 0.427913 -0.493420
O58   O     O_2   0.196391 0.858054 0.522682 -0.327949
O59   O     O_2   0.103882 0.898389 0.442796 -0.224649
O60   O     O_3   0.005662 0.970703 0.523862 -0.525886
O61   O     O_3   0.138068 0.349732 0.376884 -0.683475
O62   O     O_3   0.632420 0.583650 0.524140 -0.459255
O63   O     O_3   0.111040 0.625070 0.435230 -0.523551
P1    P     P_3+3 0.082480 0.557670 0.610090 1.008365
P2    P     P_3+3 0.635220 0.340300 0.462910 1.053187
P3    P     P_3+3 0.107146 0.282245 0.564376 0.962170
P4    P     P_3+3 0.107220 0.442270 0.389900 1.000816
P5    P     P_3+3 0.094802 0.718484 0.440193 1.072609
P6    P     P_3+3 0.656177 0.420833 0.653487 1.090633
P7    P     P_3+3 0.557522 0.671460 0.540268 0.970787
P8    P     P_3+3 0.523384 0.586183 0.346013 1.055554
S1    S     S_3+6 0.154722 0.159777 0.414638 -0.078086
S2    S     S_3+6 0.290974 0.156347 0.724447 -0.037921
S3    S     S_3+6 0.167310 0.683051 0.239822 0.004174
S4    S     S_3+6 0.048485 0.821916 0.286389 0.062848
S5    S     S_3+6 0.529562 0.854360 0.317984 0.080715
S6    S     S_3+6 0.598162 0.490026 0.775704 -0.026005
S7    S     S_3+6 0.430519 0.302442 0.880979 0.049788
S8    S     S_3+6 0.012056 0.271284 0.002610 -0.020679
S9    S     S_3+6 0.056044 0.890124 0.494820 -0.062143

loop_
_geom_bond_atom_site_label_1
_geom_bond_atom_site_label_2
_ccdc_geom_bond_type
C34   H9    S    
Ba2   O4    S    
C1    H2    S    
C53   C54   A    
H57   O49   S    
C76   O57   D    
O33   S3    D    
Ba1   P2    S    
Ba2   O56   S    
C12   H4    S    
C19   C24   A    
O51   S7    D    
C40   H23   S    
C71   O28   D    
H53   O43   S    
C42   H25   S    
C34   H8    S    
O55   S8    S    
O6    P7    D    
C24   C25   A    
C67   O9    S    
O5    P2    S    
C60   C65   A    
O4    P1    S    
O56   P8    S    
O32   S3    D    
O34   P4    D    
C17   C19   A    
C22   C24   A    
O21   P3    D    
Ba1   Ba2   S    
C35   C38   A    
C36   C37   A    
C55   C57   A    
C2    O13   D    
C1    H5    S    
C28   O61   S    
C54   C63   S    
C44   H39   S    
C44   C50   A    
C26   O14   D    
C54   C55   A    
C1    H11   S    
C32   C33   S    
C11   H18   S    
Ba1   O62   S    
H61   O60   S    
C11   C38   A    
C17   C35   A    
O20   P3    S    
O3    P5    S    
C30   P6    S    
C9    C13   A    
C25   C42   A    
O17   P1    S    
C45   O3    S    
C57   H36   S    
O30   S2    D    
C64   H62   S    
O60   S9    S    
C21   C22   A    
C28   H41   S    
Ba1   O5    S    
C4    H24   S    
C61   P7    S    
O1    P1    D    
C7    C8    S    
C40   H12   S    
C37   C43   A    
C51   H31   S    
O15   P6    S    
Ba1   O15   S    
C57   C58   A    
O62   P7    S    
O39   S4    S    
C60   P5    S    
C15   C31   D    
C68   C71   S    
O12   P2    S    
C66   O12   S    
C16   S2    S    
C51   C58   A    
C78   O10   D    
C44   C46   A    
O16   P6    D    
C51   C53   A    
O18   P6    S    
Ba2   O6    S    
O38   S4    D    
C4    C16   S    
C52   H45   S    
C61   C65   A    
C23   O7    S    
C49   C50   A    
C32   H26   S    
C28   H42   S    
C69   H44   S    
O59   S9    D    
C17   C20   A    
Ba2   O45   S    
C13   C39   A    
C6    P4    S    
H59   O55   S    
C15   H28   S    
C27   N2    Am   
C3    C5    S    
C18   C37   A    
C74   H54   S    
O43   S5    S    
C38   S8    S    
C55   H33   S    
C64   H63   S    
C23   C34   S    
C48   C49   A    
C71   H47   S    
O23   P3    S    
C70   H46   S    
C64   H56   S    
C33   N2    S    
C9    C36   A    
O52   S7    S    
C41   C42   A    
C35   C36   A    
C31   P1    S    
C29   C30   S    
C46   P2    S    
Ba1   O19   S    
O37   S4    D    
O35   S3    S    
C31   C32   D    
C6    C7    D    
Ba1   O4    S    
C7    C75   S    
C70   O27   D    
C18   C19   A    
O8    P8    D    
C22   C27   A    
C68   H3    S    
O53   S8    D    
O50   S7    D    
C1    C12   S    
C47   H32   S    
C72   O36   D    
H51   O39   S    
C66   C68   S    
C78   N1    Am   
C72   H50   S    
C53   H30   S    
C52   O17   S    
C29   S6    S    
C21   S7    S    
C67   C77   S    
C73   O40   D    
Ba2   O62   S    
O31   S2    S    
C67   C73   S    
O58   S9    D    
C16   H40   S    
C18   C41   A    
C73   H52   S    
C56   C72   S    
C77   S5    S    
C56   S4    S    
C3    H20   S    
C34   H10   S    
Ba2   O5    S    
H49   O35   S    
C5    C14   S    
Ba2   O63   S    
C20   H19   S    
C45   H13   S    
Ba1   P1    S    
Ba1   O1    S    
C75   O46   D    
O29   S2    D    
C77   H17   S    
C20   C21   A    
O19   P2    D    
C59   S9    S    
C67   H15   S    
C76   H60   S    
C16   H35   S    
C52   H34   S    
C66   H64   S    
C27   O11   D    
C9    C10   A    
H58   O52   S    
C4    C74   S    
C52   C64   S    
O41   S5    D    
C77   H16   S    
C26   N2    Am   
O63   P5    S    
Ba2   O34   S    
C48   C58   S    
C62   C63   A    
C2    C13   A    
C41   H22   S    
C3    C8    D    
O61   P4    S    
O45   P4    S    
C45   C56   S    
O49   S6    S    
C62   H29   S    
Ba1   O20   S    
C66   C69   S    
C46   C47   A    
C2    N1    Am   
C10   C78   A    
C29   C33   D    
C23   H6    S    
C49   H37   S    
C45   H14   S    
C39   H21   S    
C56   S3    S    
O9    P8    S    
C14   C76   S    
O54   S8    D    
C12   O18   S    
C59   C60   A    
C65   H38   S    
H43   O25   S    
O25   S1    S    
C74   O44   D    
C8    N1    S    
C61   C62   A    
C5    P8    S    
C23   H7    S    
C59   C63   A    
O47   S6    D    
C10   C11   A    
Ba2   P4    S    
C6    C14   D    
C47   C48   A    
Ba1   O45   S    
C25   C26   A    
C50   P3    S    
C15   C30   S    
C39   C43   A    
C69   O26   D    
C28   C40   S    
C68   C70   S    
H48   O31   S    
C75   H55   S    
C12   H1    S    
O22   S1    D    
O2    P5    D    
O7    P7    S    
C40   S1    S    
C43   H27   S    
O48   S6    D    
O24   S1    D    
C4    O23   S    
O42   S5    D    
