data_mof_unit_38995.cif
_audit_creation_date              2012-12-10T16:57:47-0500
_audit_creation_method            fapswitch 2.2
_symmetry_space_group_name_H-M    P1
_symmetry_Int_Tables_number       1
_space_group_crystal_system       triclinic
_cell_length_a                    7.807199
_cell_length_b                    8.560702
_cell_length_c                    19.032334
_cell_angle_alpha                 91.634793
_cell_angle_beta                  85.650904
_cell_angle_gamma                 93.066345
_cell_volume                      1266.16667307

loop_
_atom_site_label
_atom_site_type_symbol
_atom_type_description
_atom_site_fract_x
_atom_site_fract_y
_atom_site_fract_z
_atom_type_partial_charge
C1    C     C_R   0.545209 0.794436 0.498324 0.958572
C2    C     C_R   0.615159 0.656778 0.183941 -0.207471
C3    C     C_R   0.509224 0.581826 0.854546 0.027426
C4    C     C_R   0.477002 0.591928 0.148341 0.026702
C5    C     C_R   0.644461 0.643399 0.808446 0.212406
C6    C     C_R   0.344712 0.499856 0.184553 0.212410
C7    C     C_R   0.640900 0.609136 0.736581 -0.251655
C8    C     C_R   0.357526 0.471735 0.255688 -0.250710
C9    C     C_R   0.506346 0.515464 0.710471 -0.086587
C10   C     C_R   0.498289 0.533153 0.290703 -0.085788
C11   C     C_R   0.486639 0.608292 0.072226 0.298070
C12   C     C_R   0.454809 0.205566 0.501595 0.964475
C13   C     C_R   0.505285 0.608145 0.930413 0.299098
C14   C     C_3   0.231685 0.341261 0.731484 -0.876256
C15   C     C_3   0.775132 0.708640 0.291450 -0.865442
C16   C     C_3   0.788543 0.749675 0.833921 -0.880805
C17   C     C_3   0.194091 0.425353 0.148538 -0.872942
C18   C     C_3   0.977237 0.231884 0.409071 -0.698391
C19   C     C_3   0.025423 0.772103 0.588125 -0.697755
C20   C     C_2   0.569329 0.957601 0.497521 -0.391726
C21   C     C_2   0.430771 0.042387 0.502158 -0.387805
C22   C     C_R   0.501217 0.499081 0.634491 0.873107
C23   C     C_R   0.499393 0.505901 0.365690 0.871607
C24   C     C_R   0.373679 0.450372 0.756799 0.185617
C25   C     C_R   0.627319 0.629702 0.255045 0.182395
C26   C     C_R   0.376443 0.485483 0.828547 -0.204084
H1    H     H_    0.275487 0.435587 0.864729 0.161034
H2    H     H_    0.725718 0.775462 0.338908 0.237361
H3    H     H_    0.862834 0.619855 0.306624 0.247587
H4    H     H_    0.852138 0.792319 0.256638 0.226854
H5    H     H_    0.871036 0.800838 0.789342 0.229775
H6    H     H_    0.734836 0.847769 0.866455 0.244806
H7    H     H_    0.871904 0.682821 0.865489 0.259097
H8    H     H_    0.110762 0.348633 0.184462 0.229846
H9    H     H_    0.113285 0.517391 0.130906 0.256461
H10   H     H_    0.240773 0.352255 0.102623 0.248279
H11   H     H_    0.021744 0.460398 0.378146 0.210642
H12   H     H_    0.715071 0.728209 0.155627 0.158447
H13   H     H_    0.061508 0.182129 0.365382 0.200411
H14   H     H_    0.842624 0.222676 0.393782 0.241910
H15   H     H_    0.988554 0.163032 0.456972 0.227839
H16   H     H_    0.976470 0.545905 0.621685 0.211699
H17   H     H_    0.940129 0.826702 0.630070 0.196515
H18   H     H_    0.018803 0.837783 0.538962 0.228279
H19   H     H_    0.158705 0.780143 0.604943 0.242811
H20   H     H_    0.740638 0.659957 0.700397 0.160643
H21   H     H_    0.258380 0.399586 0.283972 0.154194
H22   H     H_    0.700692 0.007419 0.493342 0.176510
H23   H     H_    0.299450 0.992578 0.506265 0.175616
H24   H     H_    0.287138 0.247599 0.696629 0.231838
H25   H     H_    0.155014 0.283996 0.776075 0.233200
H26   H     H_    0.142499 0.407270 0.702424 0.250032
N1    N     N_R   0.648210 0.590443 0.964736 -0.165084
N2    N     N_R   0.344413 0.630227 0.037981 -0.168014
N3    N     N_R   0.639172 0.591269 0.034570 -0.173685
N4    N     N_R   0.353438 0.629329 0.968064 -0.176391
N5    N     N_2   0.950330 0.457950 0.481240 0.032098
N6    N     N_2   0.049670 0.542050 0.518760 0.031572
N7    N     N_2   0.031092 0.393366 0.421658 -0.183804
N8    N     N_2   0.968732 0.610629 0.577318 -0.185978
O1    O     O_R   0.389250 0.738570 0.504600 -0.618078
O2    O     O_R   0.610750 0.261430 0.495400 -0.618118
O3    O     O_R   0.678400 0.711620 0.492580 -0.612078
O4    O     O_R   0.321600 0.288380 0.507420 -0.609911
O5    O     O_R   0.355380 0.513500 0.607880 -0.621223
O6    O     O_R   0.644620 0.486500 0.392120 -0.623123
O7    O     O_R   0.644530 0.486550 0.595850 -0.614403
O8    O     O_R   0.355470 0.513450 0.404150 -0.612034
Zn1   Zn    Zn3+2 0.306930 0.517990 0.508030 0.962487
Zn2   Zn    Zn3+2 0.693070 0.482010 0.491970 0.959615

loop_
_geom_bond_atom_site_label_1
_geom_bond_atom_site_label_2
_ccdc_geom_bond_type
C23   O8    A    
C2    C4    A    
C18   H13   S    
C19   H19   S    
C22   O5    A    
C17   H10   S    
N5    Zn2   S    
C16   H6    S    
C3    C26   A    
C12   O2    A    
C2    H12   S    
C14   H25   S    
C3    C13   S    
O3    Zn2   S    
C1    C20   S    
C13   N4    A    
O1    Zn1   S    
O7    Zn2   S    
C21   H23   S    
N5    N6    D    
C8    H21   S    
C5    C7    A    
N6    Zn1   S    
C16   H7    S    
C14   H24   S    
O4    Zn1   S    
C20   C21   D    
C4    C11   S    
O2    Zn2   S    
C15   H2    S    
C20   H22   S    
C11   N2    A    
O6    Zn2   S    
O5    Zn1   S    
C1    O3    A    
C10   C25   A    
C4    C6    A    
C22   O7    A    
C24   C26   A    
C15   H3    S    
C2    C25   A    
C13   N1    A    
N1    N3    A    
C26   H1    S    
C10   C23   S    
N2    N4    A    
C9    C22   S    
N5    N7    S    
C15   C25   S    
C17   H8    S    
H16   N8    S    
C6    C17   S    
C7    H20   S    
C18   N7    S    
C11   N3    A    
C19   H18   S    
C23   O6    A    
C19   N8    S    
C8    C10   A    
C15   H4    S    
C18   H15   S    
C14   C24   S    
C7    C9    A    
C12   O4    A    
C18   H14   S    
C5    C16   S    
C6    C8    A    
C17   H9    S    
C3    C5    A    
N6    N8    S    
C12   C21   S    
C9    C24   A    
C14   H26   S    
H11   N7    S    
C19   H17   S    
O8    Zn1   S    
C16   H5    S    
C1    O1    A    
