data_mof_unit_8858.cif
_audit_creation_date              2012-12-11T15:21:39-0500
_audit_creation_method            fapswitch 2.2
_symmetry_space_group_name_H-M    P1
_symmetry_Int_Tables_number       1
_space_group_crystal_system       triclinic
_cell_length_a                    19.150732
_cell_length_b                    7.128381
_cell_length_c                    17.803188
_cell_angle_alpha                 89.994831
_cell_angle_beta                  109.253514
_cell_angle_gamma                 90.004266
_cell_volume                      2294.44526969

loop_
_atom_site_label
_atom_site_type_symbol
_atom_type_description
_atom_site_fract_x
_atom_site_fract_y
_atom_site_fract_z
_atom_type_partial_charge
O1    O     O_R   0.562310 0.505770 0.439670 -0.548219
O2    O     O_R   0.437690 0.005770 0.560330 -0.548215
O3    O     O_R   0.411650 0.169150 0.405330 -0.537701
O4    O     O_R   0.588350 0.669150 0.594670 -0.537602
C1    C     C_R   0.384807 0.346078 0.382307 0.631046
C2    C     C_R   0.615190 0.846080 0.617698 0.631604
O5    O     O_R   0.560140 0.175610 0.430010 -0.538152
O6    O     O_R   0.439860 0.675610 0.569990 -0.538069
O7    O     O_R   0.587240 0.012100 0.585200 -0.538367
O8    O     O_R   0.412760 0.512100 0.414800 -0.538374
C3    C     C_R   0.582920 0.345141 0.416940 0.702199
C4    C     C_R   0.417068 0.845109 0.583042 0.701980
O9    O     O_3   0.508720 0.341420 0.550890 -0.374798
O10   O     O_3   0.491280 0.841420 0.449110 -0.374958
V1    V     V_3+5 0.498380 0.063930 0.490560 1.378808
V2    V     V_3+5 0.501620 0.563930 0.509440 1.379066
C5    C     C_R   0.186718 0.759101 0.881825 -0.050030
C6    C     C_R   0.813460 0.258658 0.118376 -0.050042
C7    C     C_R   0.136660 0.912913 0.872319 -0.153078
C8    C     C_R   0.863332 0.412828 0.127666 -0.153348
C9    C     C_R   0.135409 0.053651 0.816853 -0.157879
C10   C     C_R   0.864379 0.553941 0.182893 -0.157847
C11   C     C_R   0.180561 0.043044 0.769188 0.086127
C12   C     C_R   0.819183 0.543441 0.230505 0.085854
C13   C     C_R   0.228707 0.889349 0.776282 0.033972
C14   C     C_R   0.771280 0.389322 0.223690 0.034090
C15   C     C_R   0.232554 0.746970 0.833058 0.061155
C16   C     C_R   0.767676 0.246463 0.167195 0.060883
C17   C     C_R   0.177924 0.185058 0.714109 -0.172287
C18   C     C_R   0.821527 0.686009 0.285243 -0.172214
C19   C     C_R   0.221433 0.174406 0.665091 -0.144333
C20   C     C_R   0.777960 0.675528 0.334197 -0.144911
C21   C     C_R   0.269252 0.020797 0.669706 0.064935
C22   C     C_R   0.730409 0.521477 0.329893 0.064538
C23   C     C_R   0.273840 0.879681 0.727006 0.040310
C24   C     C_R   0.726135 0.379724 0.272951 0.040636
C25   C     C_R   0.323410 0.728878 0.735199 0.103391
C26   C     C_R   0.676863 0.228374 0.265094 0.103358
C27   C     C_R   0.327775 0.589878 0.792005 -0.206047
C28   C     C_R   0.672777 0.088811 0.208606 -0.206350
C29   C     C_R   0.283598 0.599043 0.840497 -0.161386
C30   C     C_R   0.716918 0.097994 0.160077 -0.161913
C31   C     C_R   0.313213 0.006921 0.619332 -0.028871
C32   C     C_R   0.686414 0.507771 0.380233 -0.029181
C33   C     C_R   0.365718 0.858636 0.630499 -0.144052
C34   C     C_R   0.634248 0.358758 0.369453 -0.143932
C35   C     C_R   0.369078 0.720296 0.687795 -0.233645
C36   C     C_R   0.631212 0.219778 0.312514 -0.233759
H1    H     H_    0.097720 0.171073 0.809438 0.154778
H2    H     H_    0.901917 0.671649 0.190141 0.155572
H3    H     H_    0.141962 0.305316 0.708805 0.140681
H4    H     H_    0.857279 0.806606 0.290297 0.141059
H5    H     H_    0.217818 0.289465 0.624342 0.159846
H6    H     H_    0.781325 0.791045 0.374654 0.159893
H7    H     H_    0.408154 0.605677 0.696191 0.129215
H8    H     H_    0.592394 0.104632 0.304397 0.129193
H9    H     H_    0.365966 0.473651 0.799437 0.125690
H10   H     H_    0.634830 0.972128 0.201448 0.125779
H11   H     H_    0.290884 0.489159 0.884146 0.169567
H12   H     H_    0.709860 0.987636 0.116683 0.169801
C37   C     C_3   0.752680 0.802441 0.837055 -0.297845
C38   C     C_3   0.247342 0.302694 0.162931 -0.297863
H13   H     H_    0.774750 0.662777 0.861536 0.140755
H14   H     H_    0.225308 0.163039 0.138404 0.140779
H15   H     H_    0.739660 0.879602 0.885128 0.140935
H16   H     H_    0.260347 0.380035 0.114884 0.141247
C39   C     C_3   0.680404 0.773514 0.765125 -0.336036
C40   C     C_3   0.319623 0.273778 0.234855 -0.336016
H17   H     H_    0.632722 0.834175 0.779366 0.126549
H18   H     H_    0.367288 0.334651 0.220640 0.126587
H19   H     H_    0.669590 0.620743 0.754577 0.142334
H20   H     H_    0.330482 0.121008 0.245347 0.142316
H21   H     H_    0.849089 0.661855 0.764141 0.148643
H22   H     H_    0.150937 0.161629 0.235783 0.148662
H23   H     H_    0.743153 0.627605 0.657100 0.161484
H24   H     H_    0.256894 0.127283 0.342781 0.161535
C41   C     C_3   0.826060 0.803018 0.743094 -0.316190
C42   C     C_3   0.173947 0.302779 0.256882 -0.315648
C43   C     C_3   0.778501 0.105520 0.779754 -0.338341
C44   C     C_3   0.221440 0.605523 0.220329 -0.338346
C45   C     C_3   0.812011 0.912810 0.812300 0.099502
C46   C     C_3   0.187980 0.412815 0.187713 0.099214
H25   H     H_    0.818588 0.187433 0.759664 0.146500
H26   H     H_    0.181328 0.687261 0.240435 0.146582
H27   H     H_    0.767213 0.187716 0.827663 0.128759
H28   H     H_    0.232726 0.687890 0.172457 0.128806
C47   C     C_3   0.686786 0.867409 0.689151 0.088414
C48   C     C_3   0.313206 0.367399 0.310860 0.088444
C49   C     C_3   0.753527 0.779234 0.671279 -0.295053
C50   C     C_3   0.246485 0.278940 0.328689 -0.295155
C51   C     C_3   0.705826 0.079729 0.709321 -0.283027
C52   C     C_3   0.294109 0.579725 0.290768 -0.282933
H29   H     H_    0.659942 0.148771 0.724272 0.140536
H30   H     H_    0.339981 0.648974 0.275859 0.140560
H31   H     H_    0.711530 0.153641 0.656546 0.148425
H32   H     H_    0.288375 0.653430 0.343569 0.148423
H33   H     H_    0.867935 0.878198 0.723409 0.136298
H34   H     H_    0.132062 0.377806 0.276595 0.136372
H35   H     H_    0.760298 0.849130 0.618304 0.175643
H36   H     H_    0.239700 0.348568 0.381709 0.175052
O11   O     O_R   0.087220 0.271820 0.085230 -0.539917
O12   O     O_R   0.912780 0.771820 0.914770 -0.539918
O13   O     O_R   0.939860 0.595540 0.069990 -0.524088
O14   O     O_R   0.060140 0.095540 0.930010 -0.524142
C53   C     C_R   0.916456 0.426154 0.082272 0.688122
C54   C     C_R   0.083538 0.926177 0.917718 0.687981
O15   O     O_R   0.088340 0.601930 0.094680 -0.547070
O16   O     O_R   0.911660 0.101930 0.905320 -0.547090
O17   O     O_R   0.062310 0.765410 0.939660 -0.536992
O18   O     O_R   0.937690 0.265410 0.060340 -0.536988
C55   C     C_R   0.116270 0.431948 0.117419 0.659917
C56   C     C_R   0.883724 0.931949 0.882588 0.659783
O19   O     O_3   0.991270 0.429630 0.949130 -0.369912
O20   O     O_3   0.008730 0.929630 0.050870 -0.369820
V3    V     V_3+5 0.001620 0.707150 0.009440 1.445254
V4    V     V_3+5 0.998380 0.207150 0.990560 1.445190
C57   C     C_2   0.193267 0.618063 0.945300 0.365274
H37   H     H_    0.200516 0.664438 0.005478 0.016998
O21   O     O_2   0.186555 0.450699 0.930054 -0.546237
C58   C     C_2   0.806989 0.117392 0.055017 0.365453
H38   H     H_    0.799538 0.163544 0.994761 0.016986
O22   O     O_2   0.814000 0.950141 0.070436 -0.546418
C59   C     C_2   0.299187 0.137801 0.551229 0.308518
H39   H     H_    0.341769 0.232918 0.546688 0.074438
O23   O     O_2   0.238416 0.141187 0.499876 -0.545709
C60   C     C_2   0.700052 0.639805 0.447888 0.309416
H40   H     H_    0.657303 0.735083 0.451868 0.074553
O24   O     O_2   0.760692 0.644067 0.499445 -0.545946

loop_
_geom_bond_atom_site_label_1
_geom_bond_atom_site_label_2
_ccdc_geom_bond_type
C26   C28   A    
C53   O18   A    
C44   C52   S    
C60   H40   S    
C47   C51   S    
O12   C56   A    
O1    C3    A    
C44   H26   S    
O2    C4    A    
C2    O7    A    
O14   C54   A    
O20   V3    S    
C59   H39   S    
C27   C29   A    
C42   C50   S    
O5    C3    A    
C41   C49   S    
C49   H35   S    
C11   C17   A    
C23   C25   A    
C12   C14   A    
C57   O21   D    
C59   O23   D    
C39   H19   S    
C27   H9    S    
C52   H32   S    
C50   H36   S    
C37   H13   S    
C42   C46   S    
C44   H28   S    
O12   V3    S    
C5    C7    A    
O14   V4    S    
C1    C48   S    
C48   C52   S    
C32   C34   A    
C42   H34   S    
C38   H14   S    
C19   C21   A    
C41   H33   S    
C25   C35   A    
C5    C15   A    
C43   C51   S    
C5    C57   S    
C10   H2    S    
O19   V4    S    
O5    V1    S    
C38   C46   S    
O6    V2    S    
O15   C55   A    
C20   H6    S    
C14   C16   A    
C58   O22   D    
C33   C35   A    
C25   C27   A    
C34   C36   A    
C28   H10   S    
C38   H16   S    
C21   C31   A    
C22   C32   A    
C37   C39   S    
C29   H11   S    
C44   C46   S    
C30   H12   S    
C43   C45   S    
O17   V3    S    
C2    C47   S    
O16   C56   A    
C40   H20   S    
C39   H17   S    
C20   C22   A    
O4    V2    S    
O13   V3    S    
C18   C20   A    
C51   H29   S    
C15   C29   A    
C28   C30   A    
C45   C56   S    
C41   C45   S    
O6    C4    A    
C32   C60   S    
C52   H30   S    
C6    C16   A    
O13   C53   A    
O1    V2    S    
C19   H5    S    
O2    V1    S    
C31   C33   A    
O15   V3    S    
C13   C23   A    
C9    H1    S    
C14   C24   A    
C8    C10   A    
C47   C49   S    
C40   C48   S    
C10   C12   A    
O4    C2    A    
C13   C15   A    
C31   C59   S    
C24   C26   A    
O18   V4    S    
C43   H27   S    
O3    V1    S    
C58   H38   S    
C35   H7    S    
C8    C53   S    
C17   H3    S    
C36   H8    S    
C18   H4    S    
C60   O24   D    
C7    C9    A    
C26   C36   A    
C48   C50   S    
C4    C33   S    
O3    C1    A    
O11   C55   A    
C39   C47   S    
C38   C40   S    
C46   C55   S    
O16   V4    S    
C9    C11   A    
O7    V1    S    
C1    O8    A    
C17   C19   A    
O8    V2    S    
C57   H37   S    
C43   H25   S    
C16   C30   A    
C21   C23   A    
C22   C24   A    
C6    C8    A    
C11   C13   A    
C12   C18   A    
H23   C49   S    
C51   H31   S    
C7    C54   S    
C37   H15   S    
C40   H18   S    
H22   C42   S    
O9    V2    S    
O11   V4    S    
H21   C41   S    
O10   V1    S    
C3    C34   S    
C37   C45   S    
H24   C50   S    
C6    C58   S    
C54   O17   A    
