data_mof_unit_59593.cif
_audit_creation_date              2012-12-10T20:28:46-0500
_audit_creation_method            fapswitch 2.2
_symmetry_space_group_name_H-M    P1
_symmetry_Int_Tables_number       1
_space_group_crystal_system       triclinic
_cell_length_a                    10.704098
_cell_length_b                    10.71534
_cell_length_c                    9.946592
_cell_angle_alpha                 87.827871
_cell_angle_beta                  86.880134
_cell_angle_gamma                 91.540646
_cell_volume                      1137.86607775

loop_
_atom_site_label
_atom_site_type_symbol
_atom_type_description
_atom_site_fract_x
_atom_site_fract_y
_atom_site_fract_z
_atom_type_partial_charge
C1    C     C_R   0.503804 0.260413 0.502059 0.899747
C2    C     C_R   0.582707 0.946740 0.384551 0.390775
C3    C     C_R   0.531358 0.873184 0.496762 -0.254210
C4    C     C_R   0.260079 0.510318 0.503169 0.881630
C5    C     C_R   0.507899 0.931372 0.618388 0.089613
C6    C     C_3   0.402194 0.913691 0.722287 -0.435957
C7    C     C_3   0.402823 0.054760 0.728447 -0.357517
C8    C     C_R   0.444668 0.403559 0.078743 0.089154
C9    C     C_R   0.573588 0.581411 0.063408 -0.000792
C10   C     C_R   0.571706 0.583488 0.920228 -0.109077
C11   C     C_R   0.444032 0.403523 0.936574 0.211317
C12   C     C_R   0.051149 0.487436 0.625233 0.048339
C13   C     C_3   0.308451 0.366862 0.946869 0.218144
C14   C     C_3   0.312332 0.361064 0.099170 -0.405707
C15   C     C_R   0.508621 0.740173 0.497480 0.916352
C16   C     C_R   0.739308 0.490308 0.497114 0.862424
C17   C     C_R   0.082380 0.513911 0.756455 -0.268340
C18   C     C_R   0.003713 0.469938 0.866538 0.469892
C19   C     C_R   0.903519 0.388074 0.846241 -0.218043
C20   C     C_R   0.867837 0.370725 0.716138 -0.200620
C21   C     C_R   0.931353 0.438917 0.608083 0.102885
C22   C     C_R   0.125901 0.523910 0.509160 -0.157163
C23   C     C_R   0.069268 0.554404 0.389608 -0.104648
C24   C     C_R   0.941566 0.539044 0.384391 -0.131922
C25   C     C_R   0.872629 0.478934 0.491851 -0.148770
C26   C     C_R   0.507856 0.058291 0.623443 0.099657
C27   C     C_R   0.527256 0.130400 0.505177 -0.183697
C28   C     C_R   0.577205 0.075969 0.389266 -0.268825
H1    H     H_    0.123412 0.592416 0.301742 0.232155
H2    H     H_    0.159256 0.578425 0.771959 0.188318
H3    H     H_    0.845221 0.348633 0.930472 0.165064
H4    H     H_    0.783141 0.316217 0.702154 0.174052
H5    H     H_    0.896227 0.575419 0.297923 0.254945
H6    H     H_    0.606736 0.133562 0.300737 0.211800
H7    H     H_    0.315949 0.873679 0.681059 0.202113
H8    H     H_    0.192796 0.236514 0.902995 0.357231
H9    H     H_    0.928212 0.378438 0.151267 0.360959
H10   H     H_    0.795917 0.793604 0.344318 0.341455
H11   H     H_    0.431588 0.866448 0.816423 0.239191
H12   H     H_    0.316537 0.097010 0.691859 0.223228
H13   H     H_    0.434580 0.087776 0.825800 0.261900
H14   H     H_    0.635381 0.645034 0.109503 0.257915
H15   H     H_    0.628153 0.652704 0.860618 0.184066
H16   H     H_    0.251888 0.441334 0.906020 0.151832
H17   H     H_    0.254295 0.431301 0.149745 0.258943
H18   H     H_    0.303042 0.264981 0.145567 0.222931
N1    N     N_R   0.499160 0.499140 0.142800 -0.122780
N2    N     N_R   0.499160 0.499180 0.857150 -0.151050
O1    O     O_R   0.500020 0.316790 0.614690 -0.602106
O2    O     O_2   0.132925 0.609658 0.032768 -0.333384
O3    O     O_2   0.904205 0.607800 0.054950 -0.303507
O4    O     O_3   0.016574 0.408372 0.138681 -0.606194
O5    O     O_2   0.549279 0.848608 0.148769 -0.296735
O6    O     O_2   0.735845 0.982816 0.162355 -0.289712
O7    O     O_3   0.737483 0.762369 0.278543 -0.548388
O8    O     O_R   0.500000 0.316760 0.385350 -0.623866
O9    O     O_R   0.316770 0.500020 0.614690 -0.622773
O10   O     O_R   0.316760 0.499980 0.385350 -0.616747
O11   O     O_R   0.500000 0.683240 0.614650 -0.629584
O12   O     O_R   0.499980 0.683210 0.385310 -0.541790
O13   O     O_R   0.683240 0.500020 0.614650 -0.620540
O14   O     O_R   0.683230 0.499980 0.385310 -0.597118
O15   O     O_3   0.285009 0.249997 0.894711 -0.771249
S1    S     S_3+6 0.016192 0.529504 0.026106 -0.053631
S2    S     S_3+6 0.651956 0.885920 0.237505 0.023081
Zn1   Zn    Zn3+2 0.500010 0.500020 0.653130 0.968536
Zn2   Zn    Zn3+2 0.499990 0.499980 0.346870 1.016800

loop_
_geom_bond_atom_site_label_1
_geom_bond_atom_site_label_2
_ccdc_geom_bond_type
C4    O9    A    
C12   C17   A    
C2    C28   A    
C23   C24   A    
C9    N1    A    
C6    C7    S    
O3    S1    D    
H8    O15   S    
O2    S1    D    
C15   O12   A    
C19   C20   A    
C13   O15   S    
O9    Zn1   S    
C7    H12   S    
C2    S2    S    
C19   H3    S    
C2    C3    A    
C9    H14   S    
C8    N1    A    
C28   H6    S    
C14   H18   S    
O6    S2    D    
C13   C14   S    
C24   C25   A    
C10   N2    A    
C17   H2    S    
C11   C13   S    
C18   S1    S    
C11   N2    A    
C7    C26   S    
C16   O14   A    
O14   Zn2   S    
C8    C11   A    
C23   H1    S    
C9    C10   A    
N1    Zn2   S    
O7    S2    S    
C1    O8    A    
C20   H4    S    
C17   C18   A    
C14   H17   S    
C7    H13   S    
O11   Zn1   S    
C26   C27   A    
C5    C6    S    
C16   O13   A    
O13   Zn1   S    
C5    C26   A    
O8    Zn2   S    
C12   C22   A    
O10   Zn2   S    
C16   C25   S    
O5    S2    D    
C20   C21   A    
C21   C25   A    
C18   C19   A    
O4    S1    S    
C4    O10   A    
C27   C28   A    
C1    C27   S    
H9    O4    S    
C4    C22   S    
C6    H11   S    
C3    C15   S    
C8    C14   S    
N2    Zn1   S    
C10   H15   S    
C22   C23   A    
C15   O11   A    
C12   C21   A    
C13   H16   S    
C6    H7    S    
H10   O7    S    
C24   H5    S    
O12   Zn2   S    
O1    Zn1   S    
C3    C5    A    
C1    O1    A    
