data_mof_unit_36178.cif
_audit_creation_date              2012-12-11T17:43:59-0500
_audit_creation_method            fapswitch 2.2
_symmetry_space_group_name_H-M    P1
_symmetry_Int_Tables_number       1
_space_group_crystal_system       triclinic
_cell_length_a                    20.407623
_cell_length_b                    22.686454
_cell_length_c                    6.973321
_cell_angle_alpha                 89.989771
_cell_angle_beta                  87.444856
_cell_angle_gamma                 90.304798
_cell_volume                      3225.22870298

loop_
_atom_site_label
_atom_site_type_symbol
_atom_type_description
_atom_site_fract_x
_atom_site_fract_y
_atom_site_fract_z
_atom_type_partial_charge
O1    O     O_R   0.751270 0.447300 0.600030 -0.542056
O2    O     O_R   0.248730 0.947300 0.399970 -0.540297
O3    O     O_R   0.613530 0.440160 0.952150 -0.540211
O4    O     O_R   0.386470 0.940160 0.047850 -0.534910
O5    O     O_R   0.613050 0.552700 0.122560 -0.534313
O6    O     O_R   0.386950 0.052700 0.877440 -0.533794
C1    C     C_R   0.591596 0.425795 0.786744 0.687665
C2    C     C_R   0.407245 0.925253 0.213592 0.697732
O7    O     O_R   0.750780 0.440350 0.929820 -0.557048
O8    O     O_R   0.249220 0.940350 0.070180 -0.553039
O9    O     O_R   0.751280 0.552900 0.100070 -0.520076
O10   O     O_R   0.248720 0.052900 0.899930 -0.548062
C3    C     C_R   0.773728 0.426241 0.758662 0.675864
C4    C     C_R   0.226291 0.926188 0.241264 0.684587
O11   O     O_R   0.613040 0.447100 0.622520 -0.536268
O12   O     O_R   0.386960 0.947100 0.377480 -0.537484
O13   O     O_3   0.682160 0.536920 0.777780 -0.353090
O14   O     O_3   0.317840 0.036920 0.222220 -0.374560
V1    V     V_3+5 0.682160 0.493150 0.052630 1.474451
V2    V     V_3+5 0.317840 0.993150 0.947370 1.446788
O15   O     O_R   0.750790 0.559840 0.429870 -0.539430
O16   O     O_R   0.249210 0.059840 0.570130 -0.523706
C5    C     C_R   0.778772 0.568677 0.261123 0.768953
C6    C     C_R   0.223499 0.071793 0.739502 0.776000
O17   O     O_R   0.613540 0.559650 0.452200 -0.524301
O18   O     O_R   0.386460 0.059650 0.547800 -0.527232
C7    C     C_R   0.594077 0.576552 0.285569 0.722317
C8    C     C_R   0.406114 0.076627 0.714083 0.713115
V3    V     V_3+5 0.682160 0.506850 0.552630 1.506772
V4    V     V_3+5 0.317840 0.006850 0.447370 1.487446
O19   O     O_3   0.682150 0.463080 0.277610 -0.382165
O20   O     O_3   0.317850 0.963080 0.722390 -0.375994
C9    C     C_R   0.579558 0.868009 0.158450 -0.036683
C10   C     C_R   0.418158 0.364537 0.829132 -0.035555
C11   C     C_R   0.463358 0.885509 0.210720 -0.143753
C12   C     C_R   0.535224 0.385037 0.788478 -0.147936
C13   C     C_R   0.478261 0.600138 0.334796 -0.179709
C14   C     C_R   0.522759 0.097788 0.748922 -0.172444
C15   C     C_R   0.423657 0.636768 0.335757 0.010226
C16   C     C_R   0.576118 0.135000 0.778244 0.011077
C17   C     C_R   0.432067 0.696576 0.290413 -0.191023
C18   C     C_R   0.566602 0.196121 0.782610 -0.191003
C19   C     C_R   0.494750 0.721341 0.244916 0.089650
C20   C     C_R   0.505011 0.221292 0.747930 0.095531
C21   C     C_R   0.550370 0.682949 0.238856 0.005704
C22   C     C_R   0.451786 0.183064 0.706364 0.015424
C23   C     C_R   0.503980 0.783663 0.213476 0.090587
C24   C     C_R   0.494601 0.283488 0.759651 0.082236
C25   C     C_R   0.567498 0.805896 0.160205 -0.063604
C26   C     C_R   0.429535 0.305315 0.767438 -0.065349
C27   C     C_R   0.618105 0.765653 0.115166 -0.084370
C28   C     C_R   0.378917 0.268783 0.698807 -0.063854
C29   C     C_R   0.612380 0.707391 0.181686 -0.093792
C30   C     C_R   0.392309 0.209055 0.653265 -0.133380
C31   C     C_R   0.452277 0.824961 0.234687 -0.239164
C32   C     C_R   0.546805 0.324778 0.761311 -0.241083
C33   C     C_R   0.527341 0.907613 0.176511 0.323116
C34   C     C_R   0.470812 0.404929 0.832945 0.330286
C35   C     C_R   0.541123 0.621434 0.285610 -0.111837
C36   C     C_R   0.460632 0.120397 0.716042 -0.102232
H1    H     H_    0.402297 0.811934 0.268403 0.115998
H2    H     H_    0.597110 0.311492 0.734444 0.119334
H3    H     H_    0.471907 0.553834 0.370144 0.163875
H4    H     H_    0.529118 0.050399 0.754755 0.170106
H5    H     H_    0.388301 0.722711 0.291178 0.147984
H6    H     H_    0.607683 0.223257 0.819573 0.148649
C37   C     C_R   0.170165 0.883985 0.253392 -0.040110
C38   C     C_R   0.830416 0.384872 0.745927 -0.038091
C39   C     C_R   0.159172 0.844603 0.101569 -0.205268
C40   C     C_R   0.842817 0.346207 0.898471 -0.204772
C41   C     C_R   0.104675 0.806550 0.108511 -0.129230
C42   C     C_R   0.897869 0.309146 0.890350 -0.131089
C43   C     C_R   0.059245 0.807894 0.266517 0.433835
C44   C     C_R   0.942565 0.310771 0.730372 0.430719
C45   C     C_R   0.069880 0.847581 0.416424 -0.153703
C46   C     C_R   0.930498 0.349750 0.579772 -0.154451
C47   C     C_R   0.125120 0.884610 0.411686 -0.183837
C48   C     C_R   0.874745 0.385728 0.585762 -0.180496
C49   C     C_R   0.913886 0.680136 0.403184 -0.163800
C50   C     C_R   0.092271 0.186540 0.599158 -0.183021
C51   C     C_R   0.861431 0.638482 0.420850 -0.142305
C52   C     C_R   0.144034 0.144525 0.581424 -0.036017
C53   C     C_R   0.951859 0.684015 0.227006 0.354314
C54   C     C_R   0.053005 0.189536 0.773448 0.349355
N1    N     N_2   0.002000 0.771371 0.279486 -0.277357
N2    N     N_2   0.000573 0.275562 0.716366 -0.273183
N3    N     N_2   0.007932 0.722201 0.199689 -0.225359
N4    N     N_2   0.996296 0.226747 0.799626 -0.225397
C55   C     C_R   0.840248 0.607119 0.256857 -0.116332
C56   C     C_R   0.163674 0.111897 0.744416 -0.110561
H7    H     H_    0.035321 0.849452 0.538718 0.139491
H8    H     H_    0.964405 0.351965 0.455962 0.138620
H9    H     H_    0.131674 0.914803 0.529700 0.141208
H10   H     H_    0.867263 0.415364 0.467005 0.141142
C57   C     C_R   0.882664 0.607496 0.094465 -0.212626
C58   C     C_R   0.120691 0.112222 0.905719 -0.267161
C59   C     C_R   0.938905 0.643782 0.080371 0.364038
C60   C     C_R   0.065086 0.148856 0.919450 0.369809
H11   H     H_    0.874922 0.575887 0.984453 0.134613
H12   H     H_    0.127108 0.079947 0.014516 0.143188
H13   H     H_    0.097440 0.777017 0.989261 0.153864
H14   H     H_    0.906137 0.280239 0.010351 0.155547
H15   H     H_    0.192805 0.843197 0.977063 0.143833
H16   H     H_    0.809888 0.344624 0.024551 0.143268
O21   O     O_3   0.541363 0.967474 0.165744 -0.616478
H17   H     H_    0.501749 0.991149 0.196247 0.288636
O22   O     O_3   0.457224 0.462800 0.884074 -0.610599
H18   H     H_    0.497338 0.487393 0.874509 0.286800
C61   C     C_2   0.932915 0.714700 0.573558 0.881403
O23   O     O_2   0.891645 0.742952 0.666167 -0.516840
O24   O     O_R   0.998436 0.716330 0.624368 -0.629931
H19   H     H_    0.005594 0.743169 0.737896 0.314180
C62   C     C_2   0.075482 0.222241 0.429449 0.880981
O25   O     O_2   0.117846 0.251757 0.344500 -0.504626
O26   O     O_R   0.010999 0.223116 0.369590 -0.632933
H20   H     H_    0.005448 0.250481 0.256525 0.313584
O27   O     O_3   0.983196 0.639601 0.925816 -0.614174
H21   H     H_    0.968055 0.608874 0.836579 0.305815
O28   O     O_3   0.020309 0.144394 0.072961 -0.613065
H22   H     H_    0.034983 0.113724 0.162633 0.307037
C63   C     C_2   0.674962 0.783098 0.985158 0.865112
O29   O     O_2   0.664907 0.801832 0.824723 -0.517176
O30   O     O_R   0.739107 0.780128 0.047225 -0.606609
H23   H     H_    0.772883 0.793623 0.945321 0.346911
C64   C     C_2   0.316796 0.295502 0.637166 0.848341
O31   O     O_2   0.263936 0.276850 0.701480 -0.496407
O32   O     O_R   0.319249 0.342525 0.507377 -0.644422
H24   H     H_    0.274031 0.357258 0.477320 0.324775
C65   C     C_2   0.646761 0.893160 0.166043 0.879569
O33   O     O_2   0.683710 0.875459 0.286597 -0.520466
O34   O     O_R   0.667167 0.937766 0.038386 -0.607350
H25   H     H_    0.713781 0.951299 0.058567 0.311020
C66   C     C_2   0.352869 0.383191 0.910625 0.867450
O35   O     O_2   0.331034 0.431753 0.873096 -0.497180
O36   O     O_R   0.316699 0.344976 0.032538 -0.638975
H26   H     H_    0.273131 0.362294 0.078968 0.326212
C67   C     C_2   0.357387 0.612080 0.385181 0.820236
O37   O     O_2   0.309079 0.643810 0.386611 -0.545889
O38   O     O_R   0.349960 0.552260 0.430550 -0.633496
H27   H     H_    0.302596 0.540771 0.461747 0.333368
C68   C     C_2   0.641780 0.109626 0.808962 0.817128
O39   O     O_2   0.687683 0.141663 0.848339 -0.550387
O40   O     O_R   0.651621 0.048895 0.790686 -0.624849
H28   H     H_    0.698691 0.037238 0.811086 0.329960
C69   C     C_2   0.673461 0.679846 0.233137 0.781382
O41   O     O_2   0.713962 0.665523 0.108035 -0.520928
O42   O     O_R   0.687221 0.677265 0.427069 -0.627810
H29   H     H_    0.735240 0.671179 0.447105 0.320922
C70   C     C_2   0.353380 0.180151 0.506079 0.798154
O43   O     O_2   0.294456 0.173339 0.533121 -0.530833
O44   O     O_R   0.384241 0.163552 0.331487 -0.644825
H30   H     H_    0.352171 0.147985 0.236650 0.321812
C71   C     C_2   0.839489 0.617341 0.613697 0.784290
O45   O     O_2   0.811003 0.649910 0.729019 -0.497250
O46   O     O_R   0.847757 0.557632 0.655363 -0.682769
H31   H     H_    0.816528 0.543461 0.762386 0.289949
C72   C     C_2   0.165200 0.123507 0.387931 0.813820
O47   O     O_2   0.194303 0.155929 0.272577 -0.498534
O48   O     O_R   0.154217 0.064219 0.344148 -0.691799
H32   H     H_    0.185447 0.049303 0.238651 0.288414

loop_
_geom_bond_atom_site_label_1
_geom_bond_atom_site_label_2
_ccdc_geom_bond_type
C53   N3    S    
C15   C67   S    
C72   O47   D    
C43   C45   A    
C1    C12   S    
C33   O21   S    
O24   H19   S    
C37   C47   A    
O4    C2    A    
V1    O19   S    
C69   O41   D    
O30   H23   S    
C23   C25   A    
C66   O36   S    
C65   O34   S    
C67   O38   S    
O9    V1    S    
C44   C46   A    
O16   C6    A    
C23   C31   A    
C46   C48   A    
C62   O25   D    
O3    C1    A    
C70   O44   S    
O13   V3    S    
C40   H16   S    
C4    C37   S    
C57   H11   S    
C9    C25   A    
O26   H20   S    
C31   H1    S    
C41   C43   A    
C51   C71   S    
C34   O22   S    
O9    C5    A    
C39   C41   A    
O7    C3    A    
C61   O24   S    
C13   H3    S    
O5    C7    A    
C68   O39   D    
O7    V1    S    
O6    C8    A    
O42   H29   S    
O8    V2    S    
C49   C53   A    
C58   C60   A    
C26   C28   A    
O44   H30   S    
C5    C55   S    
O3    V1    S    
O14   V4    S    
C71   O46   S    
O36   H26   S    
O14   V2    S    
C50   C54   A    
C51   C55   A    
N1    N3    D    
C41   H13   S    
C67   O37   D    
C21   C29   A    
C2    O12   A    
C16   C68   S    
C38   C48   A    
C17   C19   A    
O10   V2    S    
C18   C20   A    
O1    V3    S    
C69   O42   S    
C28   C30   A    
O11   V3    S    
C30   C70   S    
C14   H4    S    
C8    C36   S    
O17   V3    S    
C13   C15   A    
C10   C26   A    
C49   C61   S    
C12   C34   A    
C11   C31   A    
V4    O20   S    
C60   O28   S    
C42   C44   A    
O8    C4    A    
C49   C51   A    
C52   C72   S    
C17   H5    S    
C1    O11   A    
C20   C22   A    
C10   C66   S    
C25   C27   A    
O15   V3    S    
C37   C39   A    
C2    C11   S    
C55   C57   A    
C12   C32   A    
C45   C47   A    
O48   H32   S    
O38   H27   S    
C22   C30   A    
C29   C69   S    
C44   N2    S    
O28   H22   S    
C64   O32   S    
C24   C26   A    
C19   C21   A    
C43   N1    S    
C63   O29   D    
C13   C35   A    
C46   H8    S    
C14   C36   A    
C50   C52   A    
O18   V4    S    
C19   C23   A    
O15   C5    A    
C64   O31   D    
C27   C63   S    
C32   H2    S    
O1    C3    A    
O22   H18   S    
O32   H24   S    
C18   H6    S    
C65   O33   D    
V2    O20   S    
C9    C65   S    
C24   C32   A    
C21   C35   A    
C9    C33   A    
O16   V4    S    
C22   C36   A    
C39   H15   S    
C54   N4    S    
C16   C18   A    
C6    C56   S    
C28   C64   S    
C57   C59   A    
C56   C58   A    
O5    V1    S    
C45   H7    S    
O17   C7    A    
O6    V2    S    
O21   H17   S    
O10   C6    A    
O18   C8    A    
C52   C56   A    
O2    V4    S    
C11   C33   A    
C54   C60   A    
C68   O40   S    
O40   H28   S    
V3    O19   S    
C7    C35   S    
C70   O43   D    
C14   C16   A    
C66   O35   D    
C42   H14   S    
C48   H10   S    
C58   H12   S    
C47   H9    S    
O13   V1    S    
N2    N4    D    
C59   O27   S    
O2    C4    A    
C63   O30   S    
O4    V2    S    
C20   C24   A    
C50   C62   S    
C15   C17   A    
C72   O48   S    
C53   C59   A    
C61   O23   D    
O46   H31   S    
C10   C34   A    
C38   C40   A    
C40   C42   A    
C27   C29   A    
C71   O45   D    
O27   H21   S    
O12   V4    S    
O34   H25   S    
C62   O26   S    
C3    C38   S    
