data_mof_unit_23948.cif
_audit_creation_date              2012-12-10T17:42:16-0500
_audit_creation_method            fapswitch 2.2
_symmetry_space_group_name_H-M    P1
_symmetry_Int_Tables_number       1
_space_group_crystal_system       triclinic
_cell_length_a                    15.069911
_cell_length_b                    13.683679
_cell_length_c                    10.737157
_cell_angle_alpha                 89.905566
_cell_angle_beta                  90.052335
_cell_angle_gamma                 89.980438
_cell_volume                      2214.12467567

loop_
_atom_site_label
_atom_site_type_symbol
_atom_type_description
_atom_site_fract_x
_atom_site_fract_y
_atom_site_fract_z
_atom_type_partial_charge
C1    C     C_R   0.328455 0.500010 0.499159 0.832176
C2    C     C_3   0.587733 0.547050 0.926287 -0.515417
C3    C     C_R   0.814546 0.588154 0.479849 -0.258536
C4    C     C_R   0.768300 0.499799 0.493111 -0.069256
C5    C     C_R   0.814693 0.411118 0.501082 -0.263971
C6    C     C_R   0.907076 0.410337 0.498605 0.105360
C7    C     C_R   0.953480 0.499456 0.487627 0.065023
C8    C     C_R   0.906976 0.588611 0.477267 0.107416
C9    C     C_R   0.953795 0.322085 0.508433 -0.215376
C10   C     C_R   0.046288 0.322128 0.509241 -0.212978
C11   C     C_R   0.092947 0.410430 0.500292 0.103792
C12   C     C_R   0.500067 0.499945 0.259640 0.902773
C13   C     C_R   0.046488 0.499515 0.488622 0.061854
C14   C     C_R   0.092920 0.588742 0.479402 0.107438
C15   C     C_R   0.046192 0.676816 0.467163 -0.223593
C16   C     C_R   0.953667 0.676749 0.466046 -0.221132
C17   C     C_R   0.185320 0.411252 0.503751 -0.253974
C18   C     C_R   0.231648 0.499949 0.496019 -0.072228
C19   C     C_R   0.185323 0.588367 0.483385 -0.265083
C20   C     C_R   0.442184 0.793196 0.575192 -0.003105
C21   C     C_R   0.441922 0.206673 0.574800 -0.007855
C22   C     C_R   0.557444 0.793345 0.424329 -0.006151
C23   C     C_R   0.557866 0.206815 0.425037 -0.003957
C24   C     C_R   0.558548 0.896445 0.422099 -0.012295
C25   C     C_R   0.558720 0.103740 0.422401 -0.007703
C26   C     C_R   0.671518 0.499974 0.497976 0.831236
C27   C     C_R   0.499474 0.948177 0.499240 0.088541
C28   C     C_R   0.499474 0.051853 0.499253 0.089942
C29   C     C_R   0.440585 0.896291 0.576660 -0.003879
C30   C     C_R   0.440442 0.103584 0.576454 -0.005315
C31   C     C_R   0.617155 0.948827 0.345136 -0.208644
C32   C     C_R   0.617236 0.051550 0.345268 -0.219053
C33   C     C_R   0.381740 0.051227 0.653301 -0.213238
C34   C     C_R   0.381849 0.948502 0.653460 -0.213619
C35   C     C_R   0.500126 0.499764 0.740284 0.832817
C36   C     C_3   0.417372 0.555420 0.071543 0.279899
C37   C     C_3   0.498728 0.391575 0.070916 0.310420
C38   C     C_3   0.418344 0.554636 0.927322 -0.457445
C39   C     C_3   0.496604 0.392778 0.927860 -0.441308
C40   C     C_3   0.588754 0.551240 0.073022 0.721928
C41   C     C_3   0.500933 0.499905 0.121279 -0.081746
C42   C     C_3   0.500806 0.499140 0.877985 -0.025289
Cu1   Cu    Cu3+1 0.499990 0.597420 0.500010 0.941742
Cu2   Cu    Cu3+1 0.499990 0.402580 0.500010 0.951972
H1    H     H_    0.421330 0.632401 0.104840 0.054358
H2    H     H_    0.561470 0.355119 0.101168 0.096313
H3    H     H_    0.081316 0.253262 0.517815 0.141076
H4    H     H_    0.221004 0.342784 0.513010 0.154736
H5    H     H_    0.221044 0.656922 0.476266 0.151997
H6    H     H_    0.081186 0.745726 0.459419 0.140805
H7    H     H_    0.918635 0.745618 0.457565 0.141216
H8    H     H_    0.397425 0.752153 0.634243 0.123274
H9    H     H_    0.396963 0.247607 0.633537 0.123144
H10   H     H_    0.602486 0.752431 0.365710 0.159078
H11   H     H_    0.603110 0.247878 0.366742 0.124754
H12   H     H_    0.663119 0.910398 0.285181 0.137430
H13   H     H_    0.663167 0.090152 0.285232 0.133732
H14   H     H_    0.335857 0.089696 0.713429 0.134310
H15   H     H_    0.336038 0.909916 0.713696 0.131559
H16   H     H_    0.357146 0.518802 0.891319 0.197895
H17   H     H_    0.434963 0.356904 0.893367 0.202158
H18   H     H_    0.416798 0.630692 0.891046 0.129658
H19   H     H_    0.553713 0.349443 0.892100 0.148886
H20   H     H_    0.599574 0.617854 0.879714 0.174632
H21   H     H_    0.644057 0.501136 0.893453 0.170491
H22   H     H_    0.778758 0.656674 0.472231 0.153014
H23   H     H_    0.779063 0.342663 0.510402 0.157074
H24   H     H_    0.918806 0.253190 0.516486 0.141747
N1    N     N_R   0.499930 0.743810 0.499950 -0.185443
N2    N     N_R   0.499930 0.256190 0.499950 -0.181126
O1    O     O_R   0.370250 0.582280 0.500040 -0.602128
O2    O     O_R   0.370250 0.417720 0.500040 -0.585336
O3    O     O_R   0.499970 0.582270 0.317700 -0.578314
O4    O     O_R   0.499970 0.417730 0.317700 -0.559409
O5    O     O_R   0.629730 0.582260 0.499980 -0.588992
O6    O     O_R   0.629730 0.417740 0.499980 -0.594957
O7    O     O_R   0.500000 0.582270 0.682320 -0.590537
O8    O     O_R   0.500000 0.417730 0.682320 -0.595449
O9    O     O_3   0.338944 0.509281 0.115698 -0.516426
C43   C     C_3   0.270498 0.578118 0.135109 0.055732
H25   H     H_    0.262385 0.627579 0.053311 0.123171
H26   H     H_    0.285185 0.622282 0.219600 0.142552
C44   C     C_3   0.183449 0.524135 0.155143 -0.742312
H27   H     H_    0.190159 0.471319 0.233126 0.263363
H28   H     H_    0.129976 0.577079 0.177694 0.194885
H29   H     H_    0.165036 0.483688 0.069342 0.239722
O10   O     O_3   0.423307 0.340985 0.117826 -0.503557
C45   C     C_3   0.438407 0.239007 0.121733 0.088391
H30   H     H_    0.499548 0.220820 0.175042 0.125436
H31   H     H_    0.444050 0.208991 0.025848 0.122195
C46   C     C_3   0.360803 0.189809 0.186944 -0.743717
H32   H     H_    0.298337 0.204457 0.135208 0.241724
H33   H     H_    0.372038 0.109655 0.191207 0.186583
H34   H     H_    0.354405 0.218294 0.283379 0.255717
O11   O     O_3   0.597576 0.646198 0.129964 -0.611044
C47   C     C_3   0.569797 0.730107 0.063238 0.017628
H35   H     H_    0.533822 0.778003 0.129594 0.169122
H36   H     H_    0.522423 0.716697 0.986938 0.128017
C48   C     C_3   0.650278 0.786810 0.016744 -0.846635
H37   H     H_    0.688878 0.742901 0.949079 0.234404
H38   H     H_    0.628203 0.855310 0.970578 0.217195
H39   H     H_    0.694110 0.805693 0.096308 0.240027
O12   O     O_3   0.660730 0.491950 0.115695 -0.635984
C49   C     C_3   0.743407 0.541091 0.112447 0.132580
H40   H     H_    0.747767 0.594203 0.190557 0.188811
H41   H     H_    0.753927 0.580025 0.022605 0.142674
C50   C     C_3   0.817574 0.466844 0.129095 -0.841813
H42   H     H_    0.816510 0.413520 0.051243 0.246279
H43   H     H_    0.882741 0.504719 0.130049 0.210409
H44   H     H_    0.809062 0.427093 0.218547 0.261040

loop_
_geom_bond_atom_site_label_1
_geom_bond_atom_site_label_2
_ccdc_geom_bond_type
Cu1   O3    S    
O10   C45   S    
C33   H14   S    
C12   O4    A    
C27   C29   A    
O11   C47   S    
C17   H4    S    
C5    H23   S    
C2    H21   S    
C6    C9    A    
C49   H41   S    
C7    C8    A    
C22   H10   S    
C25   C28   A    
C1    C18   S    
C1    O1    A    
C38   C42   S    
C5    C6    A    
C15   C16   A    
C47   C48   S    
C18   C19   A    
C15   H6    S    
Cu2   O6    S    
C35   C42   S    
O12   C49   S    
C44   H27   S    
C47   H36   S    
C26   O6    A    
C50   H42   S    
C24   C27   A    
Cu2   N2    S    
C13   C14   A    
C31   H12   S    
C9    C10   A    
C22   N1    A    
C25   C32   A    
C8    C16   A    
C12   O3    A    
C50   H43   S    
C23   N2    A    
C36   C41   S    
C32   H13   S    
C43   C44   S    
C49   H40   S    
C2    H20   S    
C33   C34   A    
C39   C42   S    
C20   C29   A    
Cu1   O5    S    
C39   H17   S    
C1    O2    A    
C43   H26   S    
C3    C8    A    
C46   H32   S    
C43   H25   S    
C29   C34   A    
C35   O7    A    
Cu1   Cu2   S    
C12   C41   S    
C46   H33   S    
C19   H5    S    
C48   H37   S    
C45   C46   S    
C47   H35   S    
C48   H39   S    
C17   C18   A    
C36   H1    S    
Cu2   O4    S    
C38   H16   S    
C40   C41   S    
C48   H38   S    
C45   H31   S    
C34   H15   S    
C50   H44   S    
C22   C24   A    
C20   N1    A    
C3    H22   S    
C40   O11   S    
C3    C4    A    
C10   H3    S    
C36   C38   S    
C11   C17   A    
C16   H7    S    
Cu1   O1    S    
C30   C33   A    
C44   H28   S    
C14   C19   A    
C37   O10   S    
C31   C32   A    
C4    C5    A    
C36   O9    S    
C46   H34   S    
C4    C26   S    
C23   H11   S    
C6    C7    A    
Cu1   O7    S    
C39   H19   S    
C21   C30   A    
C35   O8    A    
C21   N2    A    
C20   H8    S    
Cu2   O8    S    
C24   C31   A    
C37   C39   S    
C40   O12   S    
C21   H9    S    
C11   C13   A    
C2    C42   S    
C28   C30   A    
Cu2   O2    S    
C23   C25   A    
C37   C41   S    
C9    H24   S    
C10   C11   A    
O9    C43   S    
C2    C40   S    
C7    C13   A    
C44   H29   S    
C45   H30   S    
C26   O5    A    
C27   C28   A    
C14   C15   A    
C37   H2    S    
Cu1   N1    S    
C49   C50   S    
C38   H18   S    
