data_mof_unit_59478.cif
_audit_creation_date              2012-12-11T14:17:42-0500
_audit_creation_method            fapswitch 2.2
_symmetry_space_group_name_H-M    P1
_symmetry_Int_Tables_number       1
_space_group_crystal_system       triclinic
_cell_length_a                    6.948167
_cell_length_b                    13.6521
_cell_length_c                    20.469342
_cell_angle_alpha                 102.276386
_cell_angle_beta                  90.271628
_cell_angle_gamma                 90.7488
_cell_volume                      1897.04419614

loop_
_atom_site_label
_atom_site_type_symbol
_atom_type_description
_atom_site_fract_x
_atom_site_fract_y
_atom_site_fract_z
_atom_type_partial_charge
O1    O     O_R   0.506860 0.599390 0.449240 -0.539403
O2    O     O_R   0.180220 0.594600 0.586780 -0.542487
O3    O     O_R   0.004500 0.400610 0.550760 -0.539723
C1    C     C_R   0.349685 0.612521 0.614543 0.701147
O4    O     O_R   0.177490 0.611290 0.451970 -0.541672
O5    O     O_R   0.001750 0.417420 0.414990 -0.540531
C2    C     C_R   0.346667 0.637227 0.434680 0.695721
O6    O     O_R   0.509610 0.582580 0.585010 -0.538780
O7    O     O_3   0.337420 0.436370 0.488020 -0.374605
V1    V     V_3+5 0.064680 0.511800 0.502220 1.430300
O8    O     O_R   0.671710 0.405400 0.413220 -0.548207
C3    C     C_R   0.839378 0.384092 0.386506 0.736972
O9    O     O_R   0.674440 0.388710 0.548030 -0.542570
C4    C     C_R   0.842736 0.362186 0.564450 0.703068
V2    V     V_3+5 0.564010 0.488200 0.497780 1.426609
O10   O     O_3   0.841140 0.563630 0.511980 -0.371014
C5    C     C_R   0.851225 0.110046 0.607865 -0.151914
H1    H     H_    0.844202 0.162796 0.516491 0.103349
H2    H     H_    0.855447 0.982732 0.686560 0.125249
H3    H     H_    0.850073 0.032121 0.581763 0.113270
C6    C     C_R   0.849696 0.284486 0.603093 -0.031705
C7    C     C_R   0.864154 0.310381 0.925009 -0.128957
C8    C     C_R   0.861441 0.386056 0.889604 -0.095747
C9    C     C_R   0.858551 0.363054 0.820206 -0.151264
C10   C     C_R   0.858088 0.262313 0.783693 0.071894
C11   C     C_R   0.859949 0.183276 0.820038 0.020032
C12   C     C_R   0.855779 0.238190 0.712166 0.073145
C13   C     C_R   0.854758 0.136236 0.678028 0.130950
C14   C     C_R   0.856484 0.060422 0.713601 -0.234934
C15   C     C_R   0.858856 0.081814 0.783082 -0.083482
C16   C     C_R   0.853903 0.311781 0.672841 -0.211021
C17   C     C_R   0.848109 0.183924 0.570597 -0.177396
C18   C     C_R   0.863392 0.209890 0.891622 -0.094861
H4    H     H_    0.854362 0.390963 0.694272 0.106888
H5    H     H_    0.867202 0.330390 0.979188 0.122028
H6    H     H_    0.856785 0.426627 0.796928 0.123568
H7    H     H_    0.862040 0.463614 0.916245 0.127630
C19   C     C_2   0.004680 0.289216 0.285285 -0.131905
C20   C     C_2   0.841378 0.315840 0.319670 -0.310008
H8    H     H_    0.141745 0.317992 0.307595 0.134366
H9    H     H_    0.702731 0.287634 0.299042 0.126382
C21   C     C_2   0.013819 0.221274 0.217683 -0.126898
C22   C     C_2   0.859161 0.183352 0.180279 -0.298039
H10   H     H_    0.156767 0.202606 0.198054 0.133613
H11   H     H_    0.715037 0.201296 0.198427 0.126888
C23   C     C_2   0.212120 0.770378 0.788942 -0.124439
C24   C     C_2   0.360776 0.828596 0.816728 -0.285627
H12   H     H_    0.082822 0.766252 0.817791 0.179813
H13   H     H_    0.487074 0.836424 0.787274 0.157080
C25   C     C_2   0.211204 0.715027 0.717837 -0.175301
C26   C     C_2   0.365025 0.668468 0.685025 -0.201992
H14   H     H_    0.072965 0.709559 0.692254 0.164413
C27   C     C_R   0.396659 0.886968 0.386957 -0.159757
H15   H     H_    0.392978 0.836880 0.479426 0.104560
H16   H     H_    0.419644 0.011918 0.304400 0.121526
H17   H     H_    0.416434 0.964802 0.412033 0.113420
C28   C     C_R   0.357615 0.713810 0.394468 -0.032782
C29   C     C_R   0.329716 0.685563 0.071153 -0.208424
C30   C     C_R   0.314686 0.609195 0.106443 0.021390
C31   C     C_R   0.324561 0.631542 0.176275 -0.199769
C32   C     C_R   0.349879 0.731579 0.212640 0.066000
C33   C     C_R   0.365477 0.809194 0.175875 0.067154
C34   C     C_R   0.359904 0.757234 0.284166 0.080904
C35   C     C_R   0.385511 0.859513 0.316901 0.140861
C36   C     C_R   0.400211 0.933881 0.279690 -0.203510
C37   C     C_R   0.390355 0.909350 0.210401 -0.191750
C38   C     C_R   0.345836 0.685216 0.324667 -0.213457
C39   C     C_R   0.383181 0.814500 0.425448 -0.174215
C40   C     C_R   0.355135 0.785080 0.105059 -0.083432
H18   H     H_    0.326690 0.606291 0.303889 0.095339
H19   H     H_    0.321127 0.667612 0.016964 0.110463
H20   H     H_    0.311669 0.569064 0.200524 0.112358
H21   H     H_    0.402578 0.970012 0.184058 0.114697
O11   O     O_R   0.203230 0.917310 0.915020 -0.530072
O12   O     O_R   0.535500 0.888690 0.048040 -0.543975
O13   O     O_R   0.711080 0.082610 0.085000 -0.548124
C41   C     C_R   0.366324 0.862649 0.065268 0.683964
O14   O     O_R   0.532630 0.905370 0.913230 -0.528444
O15   O     O_R   0.708190 0.099410 0.949230 -0.538375
C42   C     C_R   0.363792 0.886029 0.886235 0.752075
O16   O     O_R   0.206120 0.900510 0.050790 -0.542983
O17   O     O_3   0.375360 0.063570 0.011990 -0.376293
V3    V     V_3+5 0.648170 0.988200 0.997780 1.472499
O18   O     O_R   0.038240 0.111390 0.951940 -0.537042
C43   C     C_R   0.870102 0.136157 0.933939 0.714212
O19   O     O_R   0.041120 0.094710 0.086750 -0.543556
C44   C     C_R   0.872894 0.115776 0.113502 0.736219
V4    V     V_3+5 0.148810 0.011930 0.002180 1.469319
O20   O     O_3   0.871750 0.936430 0.988010 -0.361592
C45   C     C_1   0.545684 0.661001 0.719457 0.332033
N1    N     N_1   0.689853 0.654586 0.746712 -0.388640
C46   C     C_1   0.288111 0.506897 0.070678 0.284490
N2    N     N_1   0.266756 0.424763 0.041948 -0.366973
C47   C     C_1   0.858522 0.994876 0.812531 0.271471
N3    N     N_1   0.857886 0.923980 0.834921 -0.331682

loop_
_geom_bond_atom_site_label_1
_geom_bond_atom_site_label_2
_ccdc_geom_bond_type
O15   V3    S    
C40   C41   S    
C1    O6    A    
C24   H13   S    
C7    H5    S    
C6    C16   A    
C9    H6    S    
C4    C6    S    
C13   C14   A    
C19   C21   S    
C26   C45   S    
O5    C3    A    
C19   C20   D    
C27   C35   A    
O14   C42   A    
C29   H19   S    
H15   C39   S    
C31   H20   S    
V2    O10   S    
C5    H3    S    
C32   C34   A    
C27   C39   A    
C18   C43   S    
O8    V2    S    
O14   V3    S    
C25   H14   S    
C8    C9    A    
O1    V2    S    
O7    V1    S    
C30   C31   A    
O11   C42   A    
O9    C4    A    
C32   C33   A    
C21   H10   S    
C24   C42   S    
C28   C38   A    
O13   V3    S    
H16   C36   S    
C23   H12   S    
V3    O20   S    
C6    C17   A    
C34   C38   A    
C33   C37   A    
C1    C26   S    
C12   C16   A    
C9    C10   A    
C20   H9    S    
O4    C2    A    
O19   C44   A    
C29   C30   A    
C8    H7    S    
C37   H21   S    
C33   C40   A    
C31   C32   A    
O2    C1    A    
C14   C15   A    
C22   H11   S    
C11   C18   A    
C41   O16   A    
C25   C26   D    
C16   H4    S    
O18   C43   A    
O12   C41   A    
O13   C44   A    
O3    C4    A    
C11   C15   A    
O6    V2    S    
O9    V2    S    
H1    C17   S    
C21   C22   D    
C28   C39   A    
O2    V1    S    
O15   C43   A    
C27   H17   S    
C7    C18   A    
C23   C24   D    
O1    C2    A    
C5    C13   A    
O18   V4    S    
O5    V1    S    
O8    C3    A    
C29   C40   A    
C10   C12   A    
C23   C25   S    
C38   H18   S    
C22   C44   S    
C35   C36   A    
C3    C20   S    
C10   C11   A    
O4    V1    S    
C15   C47   S    
O3    V1    S    
V1    O10   S    
C19   H8    S    
O12   V3    S    
C45   N1    T    
O17   V4    S    
C46   N2    T    
O19   V4    S    
C30   C46   S    
C36   C37   A    
O7    V2    S    
C47   N3    T    
O16   V4    S    
C34   C35   A    
V4    O20   S    
O17   V3    S    
C12   C13   A    
C5    C17   A    
C7    C8    A    
O11   V4    S    
C2    C28   S    
H2    C14   S    
