data_mof_unit_5620.cif
_audit_creation_date              2012-12-10T20:49:48-0500
_audit_creation_method            fapswitch 2.2
_symmetry_space_group_name_H-M    P1
_symmetry_Int_Tables_number       1
_space_group_crystal_system       triclinic
_cell_length_a                    8.106697
_cell_length_b                    8.93502
_cell_length_c                    16.858141
_cell_angle_alpha                 89.990094
_cell_angle_beta                  85.325253
_cell_angle_gamma                 89.995803
_cell_volume                      1217.03204628

loop_
_atom_site_label
_atom_site_type_symbol
_atom_type_description
_atom_site_fract_x
_atom_site_fract_y
_atom_site_fract_z
_atom_type_partial_charge
C1    C     C_R   0.499993 0.782021 0.500015 0.941902
C2    C     C_R   0.401531 0.598472 0.227235 -0.208254
C3    C     C_R   0.590428 0.378736 0.854100 -0.163483
C4    C     C_R   0.409572 0.621263 0.145900 -0.163483
C5    C     C_R   0.449673 0.424031 0.901107 0.210638
C6    C     C_R   0.550327 0.575967 0.098893 0.210638
C7    C     C_R   0.311917 0.481976 0.866816 -0.135772
C8    C     C_R   0.688083 0.518023 0.133184 -0.135772
C9    C     C_R   0.318890 0.502851 0.784986 -0.208761
C10   C     C_R   0.681110 0.497148 0.215014 -0.208761
C11   C     C_2   0.460800 0.439160 0.986165 -0.181607
C12   C     C_R   0.500007 0.217979 0.499984 0.941902
C13   C     C_2   0.539200 0.560838 0.013835 -0.181607
C14   C     C_2   0.611186 0.682812 0.961392 0.448811
C15   C     C_2   0.388813 0.317186 0.038608 0.448811
C16   C     C_1   0.499993 0.934816 0.500004 -0.187422
C17   C     C_1   0.500007 0.065184 0.499996 -0.187422
C18   C     C_R   0.477564 0.494610 0.653260 0.865283
C19   C     C_R   0.522436 0.505390 0.346740 0.865282
C20   C     C_R   0.464648 0.467666 0.738252 -0.037429
C21   C     C_R   0.535352 0.532334 0.261748 -0.037429
C22   C     C_R   0.598469 0.401528 0.772765 -0.208254
H1    H     H_    0.203741 0.518520 0.903730 0.147206
H2    H     H_    0.399140 0.318600 0.102315 0.077223
H3    H     H_    0.796258 0.481478 0.096270 0.147206
H4    H     H_    0.302553 0.664804 0.118951 0.154190
H5    H     H_    0.697447 0.335195 0.881049 0.154190
H6    H     H_    0.710379 0.370097 0.737143 0.167588
H7    H     H_    0.289621 0.629902 0.262857 0.167588
H8    H     H_    0.786142 0.448102 0.241222 0.162127
H9    H     H_    0.213858 0.551898 0.758778 0.162127
H10   H     H_    0.600860 0.681399 0.897685 0.077222
N1    N     N_1   0.926360 0.500000 0.499990 -0.034566
N2    N     N_1   0.073640 0.500000 0.500010 -0.034566
O1    O     O_R   0.363150 0.714660 0.500000 -0.615129
O2    O     O_2   0.316979 0.212061 0.010474 -0.539730
O3    O     O_R   0.636850 0.285340 0.500000 -0.615129
O4    O     O_R   0.636850 0.714660 0.500000 -0.611399
O5    O     O_R   0.363150 0.285340 0.500000 -0.611399
O6    O     O_R   0.346950 0.500000 0.615800 -0.619264
O7    O     O_R   0.653050 0.500000 0.384200 -0.619264
O8    O     O_R   0.620700 0.500000 0.615800 -0.622991
O9    O     O_R   0.379300 0.500000 0.384200 -0.622991
O10   O     O_2   0.683021 0.787938 0.989526 -0.539730
Zn1   Zn    Zn3+2 0.317220 0.500000 0.500010 0.990840
Zn2   Zn    Zn3+2 0.682780 0.500000 0.499990 0.990840

loop_
_geom_bond_atom_site_label_1
_geom_bond_atom_site_label_2
_ccdc_geom_bond_type
C12   C17   S    
C2    C4    A    
O7    Zn2   S    
C8    H3    S    
C11   C13   D    
C10   H8    S    
C9    C20   A    
C4    H4    S    
O5    Zn1   S    
C12   O5    A    
C3    H5    S    
N1    N2    T    
N2    Zn1   S    
C22   H6    S    
C13   C14   S    
C6    C13   S    
N1    Zn2   S    
O9    Zn1   S    
C1    O4    A    
C2    C21   A    
C2    H7    S    
C7    H1    S    
C4    C6    A    
C15   H2    S    
C19   C21   S    
C19   O9    A    
C5    C11   S    
C5    C7    A    
C18   O8    A    
C10   C21   A    
O6    Zn1   S    
O4    Zn2   S    
C9    H9    S    
O1    Zn1   S    
C7    C9    A    
C15   O2    D    
C1    O1    A    
C18   C20   S    
C14   O10   D    
O8    Zn2   S    
C14   H10   S    
C12   O3    A    
C1    C16   S    
C18   O6    A    
C3    C22   A    
C6    C8    A    
O3    Zn2   S    
C11   C15   S    
C8    C10   A    
C19   O7    A    
C20   C22   A    
C16   C17   T    
C3    C5    A    
