data_mof_unit_45648.cif
_audit_creation_date              2012-12-10T19:46:26-0500
_audit_creation_method            fapswitch 2.2
_symmetry_space_group_name_H-M    P1
_symmetry_Int_Tables_number       1
_space_group_crystal_system       triclinic
_cell_length_a                    10.849723
_cell_length_b                    10.852009
_cell_length_c                    10.423789
_cell_angle_alpha                 90.696431
_cell_angle_beta                  90.342652
_cell_angle_gamma                 89.887375
_cell_volume                      1227.19557268

loop_
_atom_site_label
_atom_site_type_symbol
_atom_type_description
_atom_site_fract_x
_atom_site_fract_y
_atom_site_fract_z
_atom_type_partial_charge
C1    C     C_R   0.496846 0.261522 0.498935 0.799485
C2    C     C_R   0.503154 0.738478 0.501064 0.799486
C3    C     C_R   0.872025 0.493667 0.501598 -0.066604
C4    C     C_R   0.127975 0.506332 0.498402 -0.066604
C5    C     C_R   0.940175 0.455451 0.610045 0.017141
C6    C     C_R   0.059825 0.544547 0.389955 0.017140
C7    C     C_R   0.267041 0.215642 0.129541 -0.161198
C8    C     C_R   0.732955 0.784354 0.870459 -0.161196
C9    C     C_R   0.299928 0.165792 0.249156 0.025714
C10   C     C_R   0.700069 0.834205 0.750845 0.025717
C11   C     C_R   0.420215 0.115010 0.264396 0.039143
C12   C     C_R   0.579785 0.884991 0.735604 0.039142
C13   C     C_R   0.501699 0.113825 0.159997 -0.159437
C14   C     C_R   0.498302 0.886180 0.840004 -0.159441
C15   C     C_R   0.466456 0.163113 0.042402 -0.139679
C16   C     C_R   0.533545 0.836893 0.957600 -0.139680
C17   C     C_R   0.349544 0.214194 0.027328 -0.144888
C18   C     C_R   0.650453 0.785806 0.972673 -0.144891
C19   C     C_R   0.469930 0.931864 0.390100 -0.209286
C20   C     C_R   0.530070 0.068136 0.609900 -0.209289
C21   C     C_R   0.504432 0.871988 0.502838 -0.041729
C22   C     C_R   0.495568 0.128012 0.497162 -0.041731
C23   C     C_R   0.261538 0.504137 0.499416 0.810482
C24   C     C_R   0.738462 0.495863 0.500584 0.810483
C25   C     C_R   0.536578 0.940844 0.614001 0.056628
C26   C     C_R   0.463422 0.059156 0.385999 0.056627
C27   C     C_1   0.500016 0.500012 0.071935 0.090213
C28   C     C_1   0.499983 0.499988 0.928065 0.090212
C29   C     C_R   0.225011 0.761492 0.167056 -0.127811
C30   C     C_R   0.774990 0.238505 0.832942 -0.127812
C31   C     C_R   0.174907 0.711779 0.278416 -0.111399
C32   C     C_R   0.825094 0.288219 0.721583 -0.111400
C33   C     C_R   0.116887 0.596179 0.273655 0.127909
C34   C     C_R   0.883113 0.403819 0.726344 0.127910
C35   C     C_R   0.109459 0.531434 0.156414 -0.134266
C36   C     C_R   0.890541 0.468564 0.843586 -0.134267
C37   C     C_R   0.161552 0.580474 0.045865 -0.154546
C38   C     C_R   0.838448 0.419522 0.954134 -0.154546
C39   C     C_R   0.219003 0.695577 0.051099 -0.109152
C40   C     C_R   0.780998 0.304419 0.948900 -0.109152
C41   C     C_R   0.932430 0.536519 0.392687 -0.219830
C42   C     C_R   0.067570 0.463480 0.607313 -0.219830
Cu1   Cu    Cu3+1 0.500000 0.500000 0.625300 0.988427
Cu2   Cu    Cu3+1 0.500000 0.500000 0.374700 0.988427
H1    H     H_    0.258270 0.733920 0.965159 0.133414
H2    H     H_    0.741730 0.266076 0.034840 0.133412
H3    H     H_    0.593028 0.074352 0.169877 0.142745
H4    H     H_    0.406976 0.925657 0.830125 0.142748
H5    H     H_    0.529719 0.161305 0.962579 0.132442
H6    H     H_    0.470284 0.838704 0.037424 0.132443
H7    H     H_    0.445417 0.879275 0.304736 0.142179
H8    H     H_    0.554582 0.120725 0.695264 0.142180
H9    H     H_    0.267742 0.851463 0.170315 0.122503
H10   H     H_    0.732259 0.148533 0.829684 0.122504
H11   H     H_    0.180144 0.763596 0.367763 0.123329
H12   H     H_    0.819856 0.236402 0.632235 0.123328
H13   H     H_    0.063502 0.443091 0.150972 0.147476
H14   H     H_    0.936497 0.556906 0.849028 0.147476
H15   H     H_    0.156761 0.529598 0.956011 0.129921
H16   H     H_    0.843239 0.470398 0.043989 0.129921
H17   H     H_    0.880072 0.567690 0.310175 0.154262
H18   H     H_    0.119928 0.432309 0.689825 0.154262
H19   H     H_    0.322403 0.252273 0.935867 0.141888
H20   H     H_    0.677593 0.747727 0.064134 0.141889
H21   H     H_    0.176184 0.253940 0.113748 0.163702
H22   H     H_    0.823810 0.746053 0.886252 0.163703
N1    N     N_1   0.500010 0.499990 0.186410 -0.140521
N2    N     N_1   0.499990 0.500010 0.813590 -0.140522
O1    O     O_R   0.499990 0.319650 0.605810 -0.585479
O2    O     O_R   0.500010 0.680350 0.394190 -0.585479
O3    O     O_R   0.499990 0.319640 0.394190 -0.575518
O4    O     O_R   0.500010 0.680360 0.605810 -0.575518
O5    O     O_R   0.319640 0.500010 0.605810 -0.589645
O6    O     O_R   0.680360 0.499990 0.394190 -0.589645
O7    O     O_R   0.319650 0.500010 0.394190 -0.562208
O8    O     O_R   0.680350 0.499990 0.605810 -0.562208
C43   C     C_2   0.205929 0.166759 0.353065 0.795953
O9    O     O_2   0.219484 0.104055 0.448764 -0.609351
O10   O     O_R   0.099465 0.238622 0.340108 -0.782549
H23   H     H_    0.042267 0.231784 0.416264 0.340145
C44   C     C_2   0.794068 0.833236 0.646936 0.795952
O11   O     O_2   0.780515 0.895939 0.551236 -0.609352
O12   O     O_R   0.900532 0.761373 0.659894 -0.782550
H24   H     H_    0.957731 0.768211 0.583738 0.340146

loop_
_geom_bond_atom_site_label_1
_geom_bond_atom_site_label_2
_ccdc_geom_bond_type
Cu1   O5    S    
C38   C40   A    
C5    C42   A    
C8    H22   S    
Cu1   O4    S    
C41   H17   S    
C18   H20   S    
C44   O11   D    
C28   N2    T    
C43   O9    D    
C40   H2    S    
C30   H10   S    
C1    O3    A    
C4    C42   A    
C19   C21   A    
C16   H6    S    
C36   H14   S    
C20   C25   A    
Cu2   O3    S    
C15   C17   A    
C19   C26   A    
Cu1   N2    S    
C7    C17   A    
C6    C41   A    
C31   C33   A    
Cu2   O2    S    
C42   H18   S    
C39   H1    S    
C1    C22   S    
Cu1   O1    S    
C3    C24   S    
C23   O5    A    
C2    O4    A    
C44   O12   S    
C43   O10   S    
C4    C6    A    
C23   O7    A    
C13   H3    S    
C4    C23   S    
C24   O8    A    
C14   H4    S    
C11   C26   S    
C8    C18   A    
C32   C34   A    
Cu2   O7    S    
Cu1   Cu2   S    
C7    H21   S    
O12   H24   S    
C29   C31   A    
C5    C34   S    
C29   C39   A    
C2    C21   S    
C30   C40   A    
C16   C18   A    
C9    C43   S    
Cu2   O6    S    
C9    C11   A    
C37   H15   S    
C10   C12   A    
C38   H16   S    
C8    C10   A    
C12   C14   A    
C13   C15   A    
C14   C16   A    
Cu1   O8    S    
C7    C9    A    
C21   C25   A    
C3    C41   A    
C35   C37   A    
C20   C22   A    
C3    C5    A    
C10   C44   S    
C6    C33   S    
C12   C25   S    
C35   H13   S    
C36   C38   A    
C37   C39   A    
C17   H19   S    
C30   C32   A    
C11   C13   A    
C24   O6    A    
C29   H9    S    
C33   C35   A    
C34   C36   A    
C15   H5    S    
C1    O1    A    
C27   N1    T    
O10   H23   S    
C19   H7    S    
C20   H8    S    
C22   C26   A    
C27   C28   S    
Cu2   N1    S    
C31   H11   S    
C2    O2    A    
C32   H12   S    
