data_mof_unit_41906.cif
_audit_creation_date              2012-12-11T16:22:22-0500
_audit_creation_method            fapswitch 2.2
_symmetry_space_group_name_H-M    P1
_symmetry_Int_Tables_number       1
_space_group_crystal_system       triclinic
_cell_length_a                    19.633299
_cell_length_b                    6.92236
_cell_length_c                    17.823153
_cell_angle_alpha                 89.77833
_cell_angle_beta                  107.830337
_cell_angle_gamma                 90.166268
_cell_volume                      2305.95122095

loop_
_atom_site_label
_atom_site_type_symbol
_atom_type_description
_atom_site_fract_x
_atom_site_fract_y
_atom_site_fract_z
_atom_type_partial_charge
O1    O     O_R   0.561700 0.369960 0.440190 -0.542566
O2    O     O_R   0.061700 0.630040 0.940190 -0.540127
O3    O     O_R   0.413790 0.033680 0.407460 -0.533734
O4    O     O_R   0.913790 0.966320 0.907460 -0.532549
O5    O     O_R   0.438300 0.869760 0.559810 -0.536236
O6    O     O_R   0.938300 0.130240 0.059810 -0.539656
C1    C     C_R   0.387626 0.202232 0.384431 0.694613
C2    C     C_R   0.885224 0.798481 0.887880 0.669468
O7    O     O_R   0.559630 0.039830 0.430710 -0.546668
O8    O     O_R   0.059630 0.960170 0.930710 -0.543162
O9    O     O_R   0.585190 0.875950 0.583220 -0.550978
O10   O     O_R   0.085190 0.124050 0.083220 -0.550012
C3    C     C_R   0.581253 0.209428 0.415780 0.680979
C4    C     C_R   0.080737 0.791305 0.915221 0.687520
O11   O     O_R   0.414810 0.363770 0.416780 -0.531513
O12   O     O_R   0.914810 0.636230 0.916780 -0.538731
O13   O     O_3   0.508210 0.205480 0.550010 -0.378550
O14   O     O_3   0.008210 0.794520 0.050010 -0.376565
V1    V     V_3+5 0.498480 0.928140 0.490720 1.418251
V2    V     V_3+5 0.998480 0.071860 0.990720 1.412400
O15   O     O_R   0.586210 0.546600 0.592540 -0.540631
O16   O     O_R   0.086210 0.453400 0.092540 -0.541623
C5    C     C_R   0.613234 0.713414 0.615834 0.610169
C6    C     C_R   0.114388 0.286641 0.114382 0.611107
O17   O     O_R   0.440370 0.540460 0.569290 -0.543688
O18   O     O_R   0.940370 0.459540 0.069290 -0.551153
C7    C     C_R   0.418432 0.709017 0.584066 0.720549
C8    C     C_R   0.919468 0.290353 0.085146 0.707967
V3    V     V_3+5 0.501520 0.428910 0.509280 1.417091
V4    V     V_3+5 0.001520 0.571090 0.009280 1.398523
O19   O     O_3   0.491790 0.701440 0.449990 -0.363807
O20   O     O_3   0.991790 0.298560 0.949990 -0.359510
C9    C     C_R   0.282158 0.907888 0.676412 0.417670
C10   C     C_R   0.778424 0.103650 0.173916 0.429396
C11   C     C_R   0.331480 0.893964 0.634047 -0.221867
C12   C     C_R   0.828333 0.113318 0.131715 -0.254155
C13   C     C_R   0.368021 0.720752 0.631618 -0.128435
C14   C     C_R   0.870346 0.278922 0.134088 -0.105376
C15   C     C_R   0.355087 0.560690 0.673964 -0.153129
C16   C     C_R   0.863658 0.433635 0.182052 -0.169532
C17   C     C_R   0.307914 0.574805 0.718886 -0.189916
C18   C     C_R   0.817125 0.421099 0.227791 -0.187874
C19   C     C_R   0.271182 0.748107 0.721643 -0.028824
C20   C     C_R   0.774563 0.255545 0.225330 -0.007308
C21   C     C_R   0.177366 0.603855 0.775397 -0.166882
C22   C     C_R   0.686775 0.407149 0.285426 -0.179616
C23   C     C_R   0.131700 0.613958 0.822109 -0.158623
C24   C     C_R   0.640682 0.396463 0.331705 -0.159911
C25   C     C_R   0.129024 0.781397 0.865476 -0.039761
C26   C     C_R   0.630779 0.221238 0.367358 -0.044888
C27   C     C_R   0.174091 0.937177 0.862226 -0.198520
C28   C     C_R   0.669871 0.058656 0.357644 -0.201448
H1    H     H_    0.174133 0.066935 0.896015 0.119203
H2    H     H_    0.664660 0.922490 0.385547 0.121553
C29   C     C_R   0.221255 0.924964 0.817255 -0.115265
C30   C     C_R   0.717582 0.070872 0.313376 -0.091704
C31   C     C_R   0.222586 0.759588 0.771908 0.093433
C32   C     C_R   0.725703 0.244223 0.275284 0.107180
C33   C     C_2   0.723624 0.866537 0.700018 -0.258676
C34   C     C_2   0.208112 0.121779 0.219663 -0.292015
C35   C     C_2   0.680070 0.710286 0.684689 0.265594
C36   C     C_2   0.182478 0.288352 0.181853 0.284888
C37   C     C_2   0.797222 0.866328 0.758379 0.354245
C38   C     C_2   0.268428 0.108858 0.296461 0.335210
C39   C     C_2   0.811270 0.794201 0.832506 0.253540
C40   C     C_2   0.329949 0.211509 0.308315 0.271012
O21   O     O_3   0.247302 0.082401 0.674154 -0.590447
C41   C     C_3   0.174283 0.065559 0.629251 0.043559
H3    H     H_    0.141616 0.066961 0.670278 0.147473
H4    H     H_    0.160989 0.930866 0.593272 0.115300
C42   C     C_3   0.153242 0.239179 0.573713 -0.292061
H5    H     H_    0.168840 0.375173 0.607602 0.201678
H6    H     H_    0.182198 0.232699 0.529087 0.194601
C43   C     C_3   0.072789 0.242300 0.531882 -0.845166
H7    H     H_    0.055656 0.107315 0.497815 0.234406
H8    H     H_    0.059285 0.366795 0.490581 0.236024
H9    H     H_    0.043073 0.257190 0.575516 0.232886
O22   O     O_3   0.735403 0.941734 0.167310 -0.590234
C44   C     C_3   0.681749 0.940419 0.093147 0.039596
H10   H     H_    0.666086 0.787541 0.078687 0.156574
H11   H     H_    0.700474 0.997487 0.044301 0.098065
C45   C     C_3   0.615425 0.051546 0.096402 -0.305763
H12   H     H_    0.596047 0.990396 0.143937 0.204182
H13   H     H_    0.629271 0.206066 0.109619 0.196678
C46   C     C_3   0.555900 0.038189 0.017926 -0.839451
H14   H     H_    0.574009 0.101581 0.969914 0.230218
H15   H     H_    0.508306 0.119133 0.021394 0.233661
H16   H     H_    0.540257 0.885060 0.003781 0.230810
O23   O     O_3   0.706631 0.538401 0.724708 -0.551346
C47   C     C_3   0.655382 0.412271 0.741050 0.195186
H17   H     H_    0.686224 0.310953 0.787415 0.126999
H18   H     H_    0.630271 0.316962 0.690181 0.122510
C48   C     C_3   0.598842 0.510354 0.772476 -0.345118
H19   H     H_    0.625345 0.603397 0.823410 0.230440
H20   H     H_    0.562178 0.602836 0.727008 0.166030
C49   C     C_3   0.553065 0.359909 0.797627 -0.857718
H21   H     H_    0.523579 0.270160 0.746350 0.234759
H22   H     H_    0.513594 0.433648 0.820876 0.238618
H23   H     H_    0.586981 0.264782 0.844499 0.223133
O24   O     O_3   0.213991 0.461142 0.215921 -0.554347
C50   C     C_3   0.220435 0.608261 0.162332 0.174714
H24   H     H_    0.262062 0.709464 0.197255 0.152314
H25   H     H_    0.170845 0.695075 0.142356 0.111666
C51   C     C_3   0.243374 0.541841 0.090852 -0.357710
H26   H     H_    0.286619 0.433758 0.108746 0.223547
H27   H     H_    0.197800 0.474493 0.045499 0.173181
C52   C     C_3   0.269301 0.712947 0.052508 -0.840082
H28   H     H_    0.227277 0.825939 0.035428 0.221317
H29   H     H_    0.281715 0.663975 0.998881 0.245136
H30   H     H_    0.318450 0.776422 0.093967 0.221373
O25   O     O_3   0.851107 0.961524 0.737791 -0.583699
C53   C     C_3   0.880532 0.832971 0.694729 0.060168
H31   H     H_    0.841643 0.807864 0.635281 0.132613
H32   H     H_    0.894713 0.691666 0.726019 0.111242
C54   C     C_3   0.948880 0.921675 0.685279 -0.279460
H33   H     H_    0.935865 0.060403 0.652426 0.197250
H34   H     H_    0.987120 0.952022 0.744463 0.196083
C55   C     C_3   0.984379 0.786227 0.641074 -0.842838
H35   H     H_    0.999106 0.647805 0.673692 0.233755
H36   H     H_    0.033766 0.854471 0.635358 0.229518
H37   H     H_    0.947638 0.756469 0.581109 0.232599
O26   O     O_3   0.266974 0.977021 0.355680 -0.590867
C56   C     C_3   0.197463 0.915787 0.352199 0.068325
H38   H     H_    0.160194 0.040796 0.344218 0.119632
H39   H     H_    0.177230 0.810203 0.303522 0.147708
C57   C     C_3   0.201398 0.814729 0.429816 -0.264743
H40   H     H_    0.240880 0.694927 0.440589 0.205294
H41   H     H_    0.219800 0.919635 0.478905 0.187146
C58   C     C_3   0.128928 0.732859 0.428825 -0.865309
H42   H     H_    0.088317 0.849515 0.417471 0.231215
H43   H     H_    0.133560 0.665901 0.486873 0.230656
H44   H     H_    0.111138 0.620708 0.382464 0.239288
O27   O     O_3   0.756226 0.712359 0.855983 -0.552867
C59   C     C_3   0.753268 0.787070 0.928808 0.055633
H45   H     H_    0.698328 0.842151 0.920258 0.121997
H46   H     H_    0.789290 0.912988 0.950965 0.045305
C60   C     C_3   0.769919 0.627315 0.991423 -0.291594
H47   H     H_    0.819554 0.553692 0.991029 0.212186
H48   H     H_    0.778966 0.691754 0.050499 0.158483
C61   C     C_3   0.710303 0.477159 0.977584 -0.751955
H49   H     H_    0.657858 0.547453 0.970054 0.214287
H50   H     H_    0.721522 0.378297 0.029043 0.212561
H51   H     H_    0.707775 0.389904 0.924812 0.241891
O28   O     O_3   0.340672 0.327970 0.249656 -0.564236
C62   C     C_3   0.396643 0.254869 0.223177 0.036868
H52   H     H_    0.372163 0.183658 0.165337 0.129001
H53   H     H_    0.431551 0.145189 0.262763 0.080988
C63   C     C_3   0.443777 0.423113 0.213138 -0.276727
H54   H     H_    0.409856 0.542849 0.180324 0.204866
H55   H     H_    0.474971 0.477987 0.272209 0.189097
C64   C     C_3   0.494906 0.361373 0.168324 -0.850524
H56   H     H_    0.527886 0.237125 0.198302 0.240566
H57   H     H_    0.530900 0.483430 0.165577 0.234767
H58   H     H_    0.464135 0.319598 0.107266 0.231116
H59   H     H_    0.339661 0.019294 0.601201 0.142463
H60   H     H_    0.832650 0.992505 0.095221 0.120056
H61   H     H_    0.382345 0.425091 0.673516 0.145526
H62   H     H_    0.895253 0.563583 0.185195 0.135539
H63   H     H_    0.301109 0.450035 0.752733 0.157169
H64   H     H_    0.815122 0.540844 0.265959 0.141127
H65   H     H_    0.176737 0.474235 0.741467 0.122373
H66   H     H_    0.691138 0.542693 0.256681 0.130789
H67   H     H_    0.097599 0.491441 0.823304 0.122206
H68   H     H_    0.611606 0.524866 0.338127 0.125245
H69   H     H_    0.256858 0.045230 0.818223 0.142835
H70   H     H_    0.748654 0.944342 0.309760 0.140347
H71   H     H_    0.708716 0.994269 0.663070 0.110336
H72   H     H_    0.179650 0.989829 0.197792 0.073134

loop_
_geom_bond_atom_site_label_1
_geom_bond_atom_site_label_2
_ccdc_geom_bond_type
V4    O20   S    
C37   C39   D    
C50   H24   S    
C52   H29   S    
O25   C53   S    
C61   H51   S    
O4    C2    A    
V1    O19   S    
C59   C60   S    
C51   H27   S    
C62   H52   S    
C56   H38   S    
C23   C25   A    
C46   H14   S    
C60   H48   S    
C21   C31   A    
C34   H72   S    
C43   H8    S    
C16   H62   S    
C11   C13   A    
C63   H55   S    
O5    V1    S    
O3    C1    A    
C41   C42   S    
C56   H39   S    
C4    C25   S    
C40   O28   S    
O12   V4    S    
C54   H33   S    
C49   H23   S    
O13   V3    S    
C34   C36   D    
C64   H58   S    
O7    C3    A    
C55   H35   S    
C53   H31   S    
C21   H65   S    
C9    C11   A    
C17   H63   S    
O7    V1    S    
O6    C8    A    
O8    V2    S    
C41   H3    S    
C54   H34   S    
C43   H9    S    
C49   H22   S    
C26   C28   A    
C52   H28   S    
C63   C64   S    
O3    V1    S    
O14   V4    S    
C27   C29   A    
C58   H44   S    
C23   H67   S    
C28   H2    S    
C16   C18   A    
C15   H61   S    
C2    C39   S    
C2    O12   A    
O5    C7    A    
C22   C32   A    
C17   C19   A    
C18   C20   A    
C53   H32   S    
C51   H26   S    
C62   H53   S    
C35   O23   S    
O11   V3    S    
C21   C23   A    
O15   C5    A    
O17   V3    S    
C13   C15   A    
C60   C61   S    
C22   C24   A    
C33   C35   D    
C43   H7    S    
C46   H15   S    
O21   C41   S    
C9    C19   A    
C53   C54   S    
C10   C20   A    
C61   H49   S    
C15   C17   A    
O8    C4    A    
C20   C32   S    
C42   H6    S    
O22   C44   S    
C56   C57   S    
C59   H46   S    
C1    O11   A    
C57   C58   S    
C25   C27   A    
O15   V3    S    
C44   H10   S    
C27   H1    S    
C55   H37   S    
C38   C40   D    
C42   C43   S    
C47   H18   S    
C8    C14   S    
C64   H56   S    
C54   C55   S    
O9    V1    S    
C49   H21   S    
O10   V2    S    
O1    V3    S    
C48   H19   S    
C63   H54   S    
C57   H41   S    
C24   C26   A    
C36   O24   S    
O18   V4    S    
C48   C49   S    
C45   H13   S    
C29   C31   A    
O27   C59   S    
C52   H30   S    
O16   C6    A    
O1    C3    A    
C29   H69   S    
C62   C63   S    
C33   H71   S    
C12   H60   S    
C47   C48   S    
C44   H11   S    
C58   H42   S    
V2    O20   S    
C46   H16   S    
C6    C36   S    
O16   V4    S    
C33   C37   S    
C18   H64   S    
C11   H59   S    
O28   C62   S    
C44   C45   S    
C59   H45   S    
C24   H68   S    
O17   C7    A    
C45   C46   S    
O6    V2    S    
C60   H47   S    
O10   C6    A    
O18   C8    A    
C50   H25   S    
C34   C38   S    
O2    V4    S    
C12   C14   A    
O26   C56   S    
C42   H5    S    
V3    O19   S    
C9    O21   S    
C10   O22   S    
C1    C40   S    
C14   C16   A    
C47   H17   S    
C48   H20   S    
C7    C13   S    
C57   H40   S    
C38   O26   S    
O9    C5    A    
O24   C50   S    
O13   V1    S    
C10   C12   A    
C30   C32   A    
O14   V2    S    
C64   H57   S    
C37   O25   S    
O2    C4    A    
C55   H36   S    
C19   C31   S    
C3    C26   S    
O4    V2    S    
C5    C35   S    
C41   H4    S    
C45   H12   S    
C22   H66   S    
C30   H70   S    
C50   C51   S    
C61   H50   S    
O23   C47   S    
C51   C52   S    
C39   O27   S    
C28   C30   A    
C58   H43   S    
