data_mof_unit_16405.cif
_audit_creation_date              2012-12-11T14:21:14-0500
_audit_creation_method            fapswitch 2.2
_symmetry_space_group_name_H-M    P1
_symmetry_Int_Tables_number       1
_space_group_crystal_system       triclinic
_cell_length_a                    22.186717
_cell_length_b                    7.223664
_cell_length_c                    15.242566
_cell_angle_alpha                 90.451164
_cell_angle_beta                  109.440182
_cell_angle_gamma                 90.036455
_cell_volume                      2303.55962212

loop_
_atom_site_label
_atom_site_type_symbol
_atom_type_description
_atom_site_fract_x
_atom_site_fract_y
_atom_site_fract_z
_atom_type_partial_charge
O1    O     O_R   0.584770 0.505770 0.002090 -0.515068
O2    O     O_R   0.415230 0.005770 0.997910 -0.528968
O3    O     O_R   0.467060 0.173340 0.861950 -0.525153
O4    O     O_R   0.532940 0.673340 0.138050 -0.521154
C1    C     C_R   0.449299 0.342591 0.827233 0.746934
C2    C     C_R   0.548198 0.845569 0.173922 0.761996
O5    O     O_R   0.587510 0.175890 0.993210 -0.545282
O6    O     O_R   0.412490 0.675890 0.006790 -0.548479
O7    O     O_R   0.536540 0.008150 0.130100 -0.539056
O8    O     O_R   0.463460 0.508150 0.869900 -0.531137
C3    C     C_R   0.612100 0.344138 0.995966 0.780607
C4    C     C_R   0.387654 0.845085 0.004358 0.779518
O9    O     O_3   0.483140 0.340040 0.044760 -0.387456
O10   O     O_3   0.516860 0.840040 0.955240 -0.373240
V1    V     V_3+5 0.503130 0.064190 0.991700 1.518814
V2    V     V_3+5 0.496870 0.564190 0.008300 1.529364
C5    C     C_2   0.223975 0.766030 0.039121 0.123772
C6    C     C_2   0.785292 0.241820 0.011802 0.146823
C7    C     C_2   0.177261 0.881068 0.988578 -0.322301
C8    C     C_2   0.824566 0.389628 0.019570 -0.352899
H1    H     H_    0.184694 0.959451 0.932442 0.134738
H2    H     H_    0.810538 0.520042 0.043266 0.126054
C9    C     C_2   0.280581 0.728134 0.009584 0.154282
C10   C     C_2   0.727958 0.266828 0.041714 0.166920
C11   C     C_2   0.324789 0.863118 0.019154 -0.338735
C12   C     C_2   0.675163 0.348386 0.982858 -0.333184
H3    H     H_    0.315110 0.996793 0.044420 0.117807
H4    H     H_    0.676207 0.398954 0.916462 0.108298
C13   C     C_R   0.937794 0.873781 0.721656 -0.162220
C14   C     C_R   0.057667 0.379190 0.278571 -0.137552
C15   C     C_R   0.580924 0.863466 0.275881 -0.225220
C16   C     C_R   0.415827 0.347626 0.725222 -0.208814
C17   C     C_R   0.942951 0.702858 0.585505 -0.232074
C18   C     C_R   0.049839 0.215300 0.413779 -0.235005
C19   C     C_R   0.972337 0.759332 0.678637 -0.039844
C20   C     C_R   0.022075 0.266762 0.320189 -0.045244
C21   C     C_R   0.877583 0.940936 0.666713 0.051006
C22   C     C_R   0.115173 0.458186 0.337532 0.056293
C23   C     C_R   0.843322 0.840380 0.584228 0.062755
C24   C     C_R   0.149004 0.366476 0.421826 0.036853
C25   C     C_R   0.877909 0.738116 0.537955 0.060629
C26   C     C_R   0.114591 0.251861 0.463317 0.077144
C27   C     C_R   0.775755 0.840257 0.546829 0.016368
C28   C     C_R   0.216747 0.370793 0.460296 0.007954
C29   C     C_R   0.743370 0.789353 0.453417 0.042994
C30   C     C_R   0.248705 0.302592 0.550166 0.067326
C31   C     C_R   0.781310 0.720601 0.402036 -0.199264
C32   C     C_R   0.212862 0.194724 0.591948 -0.155533
C33   C     C_R   0.846359 0.678165 0.445034 0.129573
C34   C     C_R   0.146698 0.168447 0.550379 0.122670
C35   C     C_R   0.740474 0.883650 0.603793 -0.183318
C36   C     C_R   0.252806 0.401527 0.402520 -0.199892
C37   C     C_R   0.677035 0.936864 0.567949 0.129352
C38   C     C_R   0.317877 0.363030 0.431509 0.125738
C39   C     C_R   0.643071 0.910320 0.470654 0.034010
C40   C     C_R   0.352983 0.358073 0.529605 -0.000055
C41   C     C_R   0.675276 0.818866 0.414936 -0.005097
C42   C     C_R   0.316730 0.329108 0.590604 -0.001976
C43   C     C_R   0.579184 0.971426 0.425093 0.091996
C44   C     C_R   0.421251 0.389176 0.568034 0.064722
C45   C     C_R   0.558032 0.990692 0.327879 -0.010437
C46   C     C_R   0.451736 0.378885 0.666574 0.026194
C47   C     C_R   0.637584 0.763912 0.322660 -0.069707
C48   C     C_R   0.348759 0.331518 0.688698 -0.051178
H5    H     H_    0.970856 0.626060 0.551679 0.171872
H6    H     H_    0.021754 0.132810 0.444700 0.170470
H7    H     H_    0.761907 0.698228 0.328150 0.139899
H8    H     H_    0.236776 0.116859 0.653886 0.137290
H9    H     H_    0.764031 0.887103 0.678337 0.126381
H10   H     H_    0.228298 0.424593 0.329655 0.142954
O11   O     O_R   0.036450 0.233070 0.130130 -0.528472
O12   O     O_R   0.963550 0.733070 0.869870 -0.533227
O13   O     O_R   0.912470 0.560570 0.006790 -0.551450
O14   O     O_R   0.087530 0.060570 0.993210 -0.545770
C49   C     C_R   0.887493 0.391920 0.003998 0.777745
C50   C     C_R   0.112822 0.891993 0.998125 0.792782
O15   O     O_R   0.032920 0.562940 0.138050 -0.549796
O16   O     O_R   0.967080 0.062940 0.861950 -0.554278
O17   O     O_R   0.084790 0.730500 0.002090 -0.526215
O18   O     O_R   0.915210 0.230500 0.997910 -0.529342
C51   C     C_R   0.040338 0.393930 0.175147 0.734960
C52   C     C_R   0.957796 0.892733 0.824900 0.737514
O19   O     O_3   0.016820 0.396170 0.955260 -0.379362
O20   O     O_3   0.983180 0.896170 0.044740 -0.381076
V3    V     V_3+5 0.996880 0.672090 0.008300 1.430119
V4    V     V_3+5 0.003120 0.172090 0.991700 1.437983
C53   C     C_3   0.220871 0.675379 0.126821 -0.305972
C54   C     C_3   0.283499 0.697186 0.207953 -0.782227
H11   H     H_    0.319485 0.597130 0.201619 0.240101
H12   H     H_    0.303367 0.837664 0.209544 0.238928
H13   H     H_    0.275320 0.673644 0.274863 0.215587
H14   H     H_    0.183540 0.742334 0.148965 0.153701
H15   H     H_    0.208484 0.526690 0.113126 0.170685
C55   C     C_3   0.798044 0.056905 0.972503 -0.284382
C56   C     C_3   0.742307 0.919556 0.946768 -0.780636
H16   H     H_    0.735274 0.859972 0.009070 0.240110
H17   H     H_    0.697549 0.987165 0.903462 0.241666
H18   H     H_    0.753304 0.801983 0.907339 0.203883
H19   H     H_    0.808900 0.083269 0.907521 0.156901
H20   H     H_    0.840152 0.990079 0.023601 0.213595
C57   C     C_2   0.040977 0.711349 0.725044 0.728213
O21   O     O_2   0.070453 0.770935 0.802577 -0.579259
O22   O     O_R   0.073302 0.605625 0.677697 -0.678796
H21   H     H_    0.120329 0.590164 0.714694 0.307663
C58   C     C_2   0.954466 0.210443 0.271920 0.712602
O23   O     O_2   0.930891 0.217154 0.187561 -0.569971
O24   O     O_R   0.916850 0.152285 0.324227 -0.683997
H22   H     H_    0.871153 0.124352 0.284503 0.290017
C59   C     C_3   0.857252 0.136300 0.685551 -0.361855
C60   C     C_3   0.835120 0.256371 0.598161 -0.701244
H23   H     H_    0.871173 0.254057 0.562089 0.229874
H24   H     H_    0.788347 0.209282 0.549357 0.239907
H25   H     H_    0.829330 0.401723 0.618259 0.210498
H26   H     H_    0.820585 0.134469 0.720114 0.153592
H27   H     H_    0.898424 0.212995 0.733321 0.205003
C61   C     C_3   0.135176 0.650570 0.317968 -0.369280
C62   C     C_3   0.087652 0.797413 0.325940 -0.681042
H28   H     H_    0.039123 0.771325 0.275781 0.236253
H29   H     H_    0.085089 0.799120 0.397490 0.217735
H30   H     H_    0.103869 0.935638 0.311270 0.209952
H31   H     H_    0.182063 0.692490 0.368532 0.188666
H32   H     H_    0.139545 0.653117 0.248173 0.170276
C63   C     C_3   0.529286 0.984538 0.472933 -0.368351
C64   C     C_3   0.464604 0.897477 0.417363 -0.787433
H33   H     H_    0.437058 0.983515 0.358856 0.236492
H34   H     H_    0.471144 0.763253 0.386224 0.246239
H35   H     H_    0.435286 0.881155 0.463326 0.228783
H36   H     H_    0.545107 0.909694 0.538804 0.215068
H37   H     H_    0.523056 0.129793 0.488500 0.201593
C65   C     C_3   0.456537 0.456032 0.502693 -0.386954
C66   C     C_3   0.525041 0.526154 0.540973 -0.727926
H38   H     H_    0.526545 0.642949 0.588328 0.248175
H39   H     H_    0.558774 0.415043 0.574879 0.228539
H40   H     H_    0.541202 0.574197 0.483562 0.246508
H41   H     H_    0.458525 0.347236 0.453901 0.204729
H42   H     H_    0.427465 0.569492 0.462065 0.191382
C67   C     C_3   0.285603 0.538736 0.969955 -0.287567
C68   C     C_3   0.322944 0.403622 0.044906 -0.741344
H43   H     H_    0.341715 0.290241 0.012386 0.227308
H44   H     H_    0.364401 0.471382 0.097421 0.237616
H45   H     H_    0.291299 0.343397 0.080295 0.204071
H46   H     H_    0.236952 0.481434 0.934430 0.174122
H47   H     H_    0.308360 0.550478 0.915732 0.209626
C69   C     C_3   0.734564 0.231515 0.142720 -0.316751
C70   C     C_3   0.740172 0.027466 0.168506 -0.768407
H48   H     H_    0.744377 0.013967 0.242838 0.211832
H49   H     H_    0.696658 0.951045 0.126078 0.245633
H50   H     H_    0.783574 0.966299 0.159326 0.230056
H51   H     H_    0.777436 0.306573 0.188146 0.175987
H52   H     H_    0.693180 0.287312 0.159188 0.189205
C71   C     C_3   0.879903 0.570581 0.388955 -0.356105
C72   C     C_3   0.918870 0.697531 0.348681 -0.706858
H53   H     H_    0.953662 0.781295 0.404076 0.236095
H54   H     H_    0.945528 0.613155 0.312818 0.214298
H55   H     H_    0.886302 0.790943 0.296865 0.234000
H56   H     H_    0.910603 0.460874 0.431831 0.196742
H57   H     H_    0.844334 0.496221 0.330115 0.187523
C73   C     C_3   0.112610 0.048184 0.600601 -0.373136
C74   C     C_3   0.075054 0.167187 0.647467 -0.658798
H58   H     H_    0.041451 0.260636 0.596926 0.238102
H59   H     H_    0.046964 0.078205 0.678385 0.215025
H60   H     H_    0.108733 0.250732 0.704203 0.240946
H61   H     H_    0.080883 0.945533 0.552393 0.179464
H62   H     H_    0.147379 0.964861 0.655513 0.199623
C75   C     C_2   0.652667 0.591177 0.281533 0.754454
O25   O     O_2   0.656448 0.590908 0.203374 -0.594032
O26   O     O_R   0.665193 0.430109 0.334867 -0.648192
H63   H     H_    0.675099 0.319761 0.300680 0.280772
C76   C     C_2   0.312478 0.340235 0.754576 0.683057
O27   O     O_2   0.272104 0.460304 0.745909 -0.571589
O28   O     O_R   0.322120 0.205074 0.822929 -0.673050
H64   H     H_    0.289348 0.211897 0.855858 0.279483
C77   C     C_2   0.508909 0.133425 0.284164 0.777159
O29   O     O_2   0.516553 0.291898 0.314782 -0.562399
O30   O     O_R   0.453040 0.086012 0.211642 -0.677402
H65   H     H_    0.423628 0.195620 0.189235 0.280987
C78   C     C_2   0.521141 0.406971 0.714095 0.722371
O31   O     O_2   0.541092 0.556712 0.750243 -0.565851
O32   O     O_R   0.562602 0.258018 0.724767 -0.682758
H66   H     H_    0.608495 0.293535 0.760470 0.272765
C79   C     C_3   0.653877 0.033897 0.639251 -0.380096
C80   C     C_3   0.642870 0.892427 0.706751 -0.697961
H67   H     H_    0.616913 0.769988 0.669198 0.237820
H68   H     H_    0.689314 0.842278 0.754037 0.206856
H69   H     H_    0.615776 0.953111 0.749035 0.263075
H70   H     H_    0.691090 0.133610 0.680257 0.176282
H71   H     H_    0.612576 0.123919 0.609059 0.200054
C81   C     C_3   0.344698 0.295467 0.357283 -0.363681
C82   C     C_3   0.297490 0.201009 0.271407 -0.799313
H72   H     H_    0.270533 0.089890 0.292356 0.242739
H73   H     H_    0.263737 0.300942 0.226128 0.225050
H74   H     H_    0.324716 0.140407 0.229082 0.221003
H75   H     H_    0.368450 0.409680 0.333113 0.187664
H76   H     H_    0.378335 0.185015 0.389937 0.196895

loop_
_geom_bond_atom_site_label_1
_geom_bond_atom_site_label_2
_ccdc_geom_bond_type
O28   H64   S    
C75   O25   D    
C39   C43   A    
C62   H28   S    
C76   O28   S    
C76   O27   D    
C15   C45   A    
C56   H16   S    
O1    C3    A    
C50   O17   A    
C67   H46   S    
C66   H40   S    
O2    C4    A    
C18   H6    S    
C46   C78   S    
O12   V3    S    
C79   H71   S    
C56   H18   S    
C17   H5    S    
C63   C64   S    
C23   C25   A    
C79   C80   S    
C34   C73   S    
O5    C3    A    
C58   O24   S    
C29   C41   A    
C57   O21   D    
O14   C50   A    
C6    C10   S    
C71   H57   S    
C7    C50   S    
C7    H1    S    
C10   C12   D    
C62   H29   S    
C70   H48   S    
C61   C62   S    
C14   C22   A    
C44   C46   A    
O6    V2    S    
C29   C31   A    
C25   C33   A    
C48   C76   S    
C82   H73   S    
C80   H67   S    
C69   H52   S    
C17   C19   A    
C60   H23   S    
C65   H41   S    
C36   C38   A    
C78   O32   S    
C18   C26   A    
O18   V4    S    
O24   H22   S    
C72   H55   S    
O15   C51   A    
C49   O18   A    
C21   C59   S    
C73   H62   S    
C1    C16   S    
O16   V4    S    
C37   C39   A    
C2    C15   S    
C67   H47   S    
C71   C72   S    
O15   V3    S    
C75   O26   S    
C38   C81   S    
C53   H14   S    
C63   H37   S    
C42   C48   A    
O13   C49   A    
C13   C52   S    
C55   C56   S    
C2    O7    A    
C31   H7    S    
C70   H49   S    
C28   C30   A    
C41   C47   A    
C60   H24   S    
C77   O30   S    
C43   C63   S    
C38   C40   A    
C43   C45   A    
C61   H31   S    
C33   C71   S    
C15   C47   A    
C45   C77   S    
O20   V3    S    
C16   C48   A    
O4    C2    A    
C62   H30   S    
C44   C65   S    
O26   H63   S    
C69   C70   S    
C23   C27   A    
O5    V1    S    
C3    C12   S    
C66   H39   S    
C77   O29   D    
C32   H8    S    
C40   C44   A    
C8    C49   S    
C81   C82   S    
C35   C37   A    
C80   H69   S    
O4    V2    S    
C82   H74   S    
C69   H51   S    
C37   C79   S    
O11   V4    S    
C22   C61   S    
O16   C52   A    
C74   H58   S    
C54   H13   S    
C55   H20   S    
O6    C4    A    
C74   H59   S    
C74   H60   S    
O1    V2    S    
C5    C9    S    
C71   H56   S    
O14   V4    S    
O2    V1    S    
C27   C29   A    
C60   H25   S    
O13   V3    S    
C61   H32   S    
C59   H26   S    
C26   C34   A    
C64   H35   S    
C73   H61   S    
C72   H54   S    
C81   H75   S    
C39   C41   A    
C73   C74   S    
C6    C55   S    
C66   H38   S    
O3    C1    A    
O17   V3    S    
C70   H50   S    
O3    V1    S    
C64   H34   S    
C67   C68   S    
C54   H12   S    
C20   C58   S    
C5    C53   S    
C9    C67   S    
C65   H42   S    
C8    H2    S    
C24   C26   A    
C19   C57   S    
C68   H45   S    
C79   H70   S    
C56   H17   S    
C68   H44   S    
C11   H3    S    
C58   O23   D    
C13   C19   A    
C12   H4    S    
C14   C20   A    
C4    C11   S    
C17   C25   A    
C14   C51   S    
C65   C66   S    
O7    V1    S    
C16   C46   A    
C1    O8    A    
C21   C23   A    
O30   H65   S    
O8    V2    S    
C31   C33   A    
C22   C24   A    
C28   C36   A    
C63   H36   S    
C55   H19   S    
C27   C35   A    
O12   C52   A    
C53   H15   S    
C32   C34   A    
C5    C7    D    
C18   C20   A    
C40   C42   A    
C6    C8    D    
C9    C11   D    
C82   H72   S    
C80   H68   S    
C36   H10   S    
C68   H43   S    
C59   H27   S    
C47   C75   S    
C81   H76   S    
O32   H66   S    
C30   C32   A    
C24   C28   A    
O19   V4    S    
C54   H11   S    
C53   C54   S    
C57   O22   S    
C78   O31   D    
O9    V2    S    
C13   C21   A    
O22   H21   S    
C10   C69   S    
O10   V1    S    
C72   H53   S    
C35   H9    S    
C59   C60   S    
C30   C42   A    
C64   H33   S    
O11   C51   A    
