data_mof_unit_57711.cif
_audit_creation_date              2013-03-05T16:05:39-0500
_audit_creation_method            fapswitch 2.2
_symmetry_space_group_name_H-M    P1
_symmetry_Int_Tables_number       1
_space_group_crystal_system       triclinic
_cell_length_a                    15.871016
_cell_length_b                    10.800009
_cell_length_c                    9.524344
_cell_angle_alpha                 89.936209
_cell_angle_beta                  90.040866
_cell_angle_gamma                 90.125782
_cell_volume                      1632.53497523

loop_
_atom_site_label
_atom_site_type_symbol
_atom_site_description
_atom_site_fract_x
_atom_site_fract_y
_atom_site_fract_z
_atom_type_partial_charge
O1    O     O_R   0.500000 0.319660 0.618740 -0.588751
O2    O     O_R   0.500000 0.680340 0.381260 -0.588210
O3    O     O_R   0.499990 0.319630 0.381170 -0.555496
O4    O     O_R   0.500010 0.680370 0.618830 -0.556686
C1    C     C_R   0.502424 0.262317 0.500049 0.865727
C2    C     C_R   0.497580 0.737683 0.499951 0.863289
O5    O     O_R   0.379080 0.500000 0.618760 -0.561080
O6    O     O_R   0.620920 0.500000 0.381240 -0.562033
O7    O     O_R   0.379080 0.499970 0.381190 -0.583252
O8    O     O_R   0.620920 0.500030 0.618810 -0.583542
C3    C     C_R   0.339804 0.499845 0.499945 0.843718
C4    C     C_R   0.660195 0.500153 0.500056 0.841746
Cu1   Cu    Cu3+1 0.500000 0.500020 0.640660 1.019507
Cu2   Cu    Cu3+1 0.500000 0.499980 0.359340 1.019809
C5    C     C_3   0.972179 0.386650 0.525030 0.496726
C6    C     C_3   0.027811 0.613201 0.475027 0.433764
C7    C     C_3   0.028061 0.422618 0.399017 -0.225033
C8    C     C_3   0.971933 0.577224 0.601031 -0.253471
H1    H     H_    0.051706 0.358114 0.317457 0.198839
H2    H     H_    0.948285 0.641741 0.682575 0.194991
H3    H     H_    0.948101 0.571224 0.270268 0.183058
H4    H     H_    0.051895 0.428593 0.729763 0.195090
C9    C     C_1   0.250156 0.499692 0.499950 -0.090324
C10   C     C_1   0.749842 0.500270 0.500053 -0.095697
C11   C     C_3   0.028163 0.461520 0.626637 -0.245309
C12   C     C_3   0.971833 0.538329 0.373407 -0.292922
C13   C     C_3   0.083029 0.499437 0.500190 0.002211
C14   C     C_3   0.916966 0.500422 0.499855 -0.007512
C15   C     C_1   0.174652 0.499518 0.500087 0.082496
C16   C     C_1   0.825345 0.500399 0.499931 0.072537
C17   C     C_R   0.549761 0.061753 0.398521 0.355226
C18   C     C_R   0.450252 0.938247 0.601485 0.355283
C19   C     C_R   0.543683 0.933370 0.397913 -0.259359
C20   C     C_R   0.456329 0.066629 0.602093 -0.255486
H5    H     H_    0.579749 0.881055 0.321757 0.191237
H6    H     H_    0.420263 0.118942 0.678251 0.193427
C21   C     C_R   0.495537 0.871572 0.499234 -0.193574
C22   C     C_R   0.504472 0.128428 0.500768 -0.194352
C23   C     C_R   0.447254 0.423567 0.074389 0.034567
C24   C     C_R   0.552746 0.576433 0.925611 0.033288
H7    H     H_    0.405046 0.362229 0.130413 0.132479
H8    H     H_    0.594954 0.637770 0.869587 0.130180
C25   C     C_R   0.447269 0.423603 0.925603 0.026121
C26   C     C_R   0.552731 0.576397 0.074397 0.025335
H9    H     H_    0.405078 0.362278 0.869565 0.128754
H10   H     H_    0.594922 0.637721 0.130435 0.125875
N1    N     N_R   0.500020 0.500030 0.852070 -0.170271
N2    N     N_R   0.499980 0.499970 0.147930 -0.170182
S1    S     S_3+6 0.934472 0.234121 0.558860 0.056236
O9    O     O_2   0.880126 0.235556 0.687995 -0.269020
O10   O     O_2   0.883685 0.189750 0.435501 -0.220228
O11   O     O_3   0.017054 0.139502 0.584348 -0.475498
H11   H     H_    0.992059 0.060074 0.615796 0.416417
S2    S     S_3+6 0.065501 0.765878 0.441545 0.057070
O12   O     O_2   0.116456 0.809556 0.564990 -0.200712
O13   O     O_2   0.120009 0.765894 0.312603 -0.250581
O14   O     O_3   0.983452 0.861732 0.417402 -0.476801
H12   H     H_    0.953304 0.828323 0.334480 0.351480
N3    N     N_R   0.604998 0.121826 0.299885 0.139696
O15   O     O_R   0.655659 0.209336 0.341514 -0.317937
O16   O     O_R   0.614136 0.076764 0.174132 -0.326078
N4    N     N_R   0.395021 0.878174 0.700130 0.141319
O17   O     O_R   0.344348 0.790679 0.658505 -0.315725
O18   O     O_R   0.385910 0.923214 0.825898 -0.322372

loop_
_geom_bond_atom_site_label_1
_geom_bond_atom_site_label_2
_geom_bond_distance
_ccdc_geom_bond_type
C24   N1    1.367177 A    
O6    Cu2   1.930277 S    
O7    Cu2   1.930521 S    
C17   C19   1.389698 A    
S2    O13   1.502708 D    
N4    O17   1.301515 A    
C11   C13   1.541168 S    
O7    C3    1.291843 A    
C4    C10   1.422780 S    
C12   C14   1.541158 S    
C17   C22   1.410091 A    
O5    Cu1   1.930278 S    
O6    C4    1.291571 A    
S1    O11   1.681041 S    
C6    C13   1.529320 S    
C14   C16   1.454120 S    
O14   H12   0.991067 S    
C2    C21   1.446447 S    
C18   N4    1.438516 S    
N3    O15   1.301515 A    
C23   H7    1.081696 S    
C6    C8    1.541645 S    
C8    C11   1.556060 S    
Cu1   Cu2   2.679389 S    
S2    O14   1.680849 S    
O5    C3    1.291573 A    
C25   H9    1.081766 S    
C5    C14   1.529363 S    
O2    C2    1.290221 A    
O3    Cu2   1.958618 S    
O8    C4    1.291834 A    
C1    C22   1.446450 S    
O1    C1    1.290220 A    
C7    C12   1.556104 S    
C9    C15   1.198323 T    
C24   H8    1.081696 S    
C19   H5    1.084397 S    
H3    C12   1.110104 S    
C26   H10   1.081767 S    
C8    C14   1.541118 S    
C8    H2    1.110106 S    
C5    S1    1.780564 S    
C6    C12   1.541841 S    
O2    Cu2   1.959276 S    
C6    S2    1.781350 S    
N3    O16   1.301637 A    
C10   C16   1.198308 T    
C18   C21   1.410086 A    
C7    C13   1.541219 S    
C26   N2    1.367200 A    
C24   C26   1.417086 A    
O1    Cu1   1.959277 S    
O11   H11   0.990480 S    
C20   H6    1.084397 S    
C5    C11   1.541813 S    
O4    C2    1.290380 A    
S1    O9    1.502833 D    
C23   C25   1.417086 A    
C17   N3    1.438524 S    
C13   C15   1.454151 S    
C5    C7    1.541722 S    
S1    O10   1.502645 D    
Cu2   N2    2.013541 S    
S2    O12   1.502362 D    
C23   N2    1.367176 A    
N4    O18   1.301634 A    
C7    H1    1.110104 S    
C20   C22   1.399276 A    
Cu1   N1    2.013541 S    
H4    C11   1.110108 S    
C19   C21   1.399277 A    
O4    Cu1   1.958616 S    
C3    C9    1.422801 S    
C25   N1    1.367199 A    
O3    C1    1.290382 A    
O8    Cu1   1.930521 S    
C18   C20   1.389689 A    
