data_mof_unit_37247.cif
_audit_creation_date              2012-12-10T17:00:01-0500
_audit_creation_method            fapswitch 2.2
_symmetry_space_group_name_H-M    P1
_symmetry_Int_Tables_number       1
_space_group_crystal_system       triclinic
_cell_length_a                    15.019454
_cell_length_b                    15.306963
_cell_length_c                    10.023387
_cell_angle_alpha                 89.561639
_cell_angle_beta                  86.900472
_cell_angle_gamma                 89.878242
_cell_volume                      2300.95719591

loop_
_atom_site_label
_atom_site_type_symbol
_atom_type_description
_atom_site_fract_x
_atom_site_fract_y
_atom_site_fract_z
_atom_type_partial_charge
C1    C     C_R   0.378671 0.882957 0.503509 0.837636
C2    C     C_2   0.671756 0.257675 0.432537 0.466805
C3    C     C_2   0.182327 0.250291 0.400171 0.416307
C4    C     C_2   0.171687 0.757728 0.432688 0.467402
C5    C     C_2   0.687044 0.816365 0.487358 -0.437964
C6    C     C_2   0.687997 0.179447 0.484714 -0.388778
C7    C     C_2   0.187041 0.316358 0.487360 -0.438105
C8    C     C_2   0.187988 0.679465 0.484702 -0.388418
C9    C     C_2   0.249639 0.180876 0.399201 0.255588
C10   C     C_2   0.248976 0.815206 0.412937 0.200733
C11   C     C_2   0.749627 0.680870 0.399236 0.255644
C12   C     C_R   0.375631 0.113118 0.502506 0.902175
C13   C     C_2   0.749036 0.315154 0.412862 0.201342
C14   C     C_2   0.293115 0.161628 0.510809 0.093734
C15   C     C_2   0.300921 0.827148 0.517022 0.130852
C16   C     C_2   0.793131 0.661649 0.510826 0.093945
C17   C     C_2   0.800931 0.327136 0.516996 0.130477
C18   C     C_2   0.572252 0.005403 0.919248 -0.109082
C19   C     C_2   0.072249 0.505429 0.919248 -0.109057
C20   C     C_2   0.572481 0.998703 0.069260 -0.148941
C21   C     C_2   0.072482 0.498729 0.069259 -0.149037
C22   C     C_3   0.635597 0.771777 0.188435 0.178468
C23   C     C_R   0.878673 0.382955 0.503507 0.837622
C24   C     C_3   0.553044 0.776019 0.107786 -0.875518
C25   C     C_3   0.564693 0.364550 0.410800 0.122412
C26   C     C_3   0.465450 0.376072 0.392389 -0.837457
C27   C     C_3   0.135697 0.271857 0.188363 0.178426
C28   C     C_3   0.053186 0.276066 0.107618 -0.875632
C29   C     C_3   0.064859 0.864857 0.410500 0.122840
C30   C     C_3   0.965476 0.876437 0.393370 -0.838348
C31   C     C_3   0.215341 0.061748 0.278705 0.106577
C32   C     C_3   0.214119 0.028114 0.136395 -0.747009
C33   C     C_3   0.295884 0.783864 0.198851 0.138366
C34   C     C_R   0.875636 0.613124 0.502508 0.902537
C35   C     C_3   0.325007 0.823402 0.064123 -0.857345
C36   C     C_3   0.715278 0.561683 0.278921 0.106549
C37   C     C_3   0.713980 0.527972 0.136664 -0.746711
C38   C     C_3   0.796024 0.283847 0.198802 0.138716
C39   C     C_3   0.825115 0.323404 0.064078 -0.857559
C40   C     C_3   0.193998 0.125193 0.682548 0.119957
C41   C     C_3   0.143517 0.162062 0.805137 -0.828802
C42   C     C_3   0.337871 0.744662 0.702068 0.135283
C43   C     C_3   0.292972 0.676375 0.794509 -0.866458
C44   C     C_3   0.694049 0.625255 0.682625 0.119802
C45   C     C_R   0.619967 0.116674 0.496636 0.977407
C46   C     C_3   0.643705 0.662076 0.805368 -0.828678
C47   C     C_3   0.837823 0.244703 0.702127 0.135236
C48   C     C_3   0.792901 0.176453 0.794614 -0.866425
C49   C     C_R   0.619173 0.881418 0.497232 0.946408
C50   C     C_R   0.119971 0.616671 0.496636 0.977526
C51   C     C_R   0.119172 0.381415 0.497232 0.946363
C52   C     C_2   0.682308 0.750278 0.400212 0.416191
H1    H     H_    0.742886 0.825212 0.550008 0.166965
H2    H     H_    0.136594 0.493549 0.113549 0.146225
H3    H     H_    0.441836 0.013711 0.106734 0.178956
H4    H     H_    0.941833 0.513707 0.106738 0.178974
H5    H     H_    0.683280 0.726432 0.136922 0.181697
H6    H     H_    0.666572 0.837786 0.188160 0.138197
H7    H     H_    0.570286 0.802776 0.006437 0.215336
H8    H     H_    0.524293 0.709689 0.098451 0.244344
H9    H     H_    0.502932 0.819024 0.159192 0.292407
H10   H     H_    0.601712 0.408838 0.339533 0.154330
H11   H     H_    0.577908 0.383190 0.515281 0.130090
H12   H     H_    0.754238 0.158744 0.509219 0.090089
H13   H     H_    0.426423 0.332758 0.463059 0.255800
H14   H     H_    0.445782 0.444965 0.411956 0.194691
H15   H     H_    0.449964 0.359351 0.288534 0.263966
H16   H     H_    0.183433 0.226555 0.136874 0.181716
H17   H     H_    0.166629 0.337883 0.188160 0.138228
H18   H     H_    0.070465 0.302841 0.006292 0.215412
H19   H     H_    0.024477 0.209723 0.098233 0.244380
H20   H     H_    0.003030 0.319041 0.158984 0.292378
H21   H     H_    0.101541 0.908639 0.338101 0.154960
H22   H     H_    0.078786 0.884119 0.514451 0.129652
H23   H     H_    0.242863 0.325183 0.550055 0.166982
H24   H     H_    0.926789 0.833648 0.465224 0.256061
H25   H     H_    0.946085 0.945492 0.412153 0.194859
H26   H     H_    0.949265 0.859070 0.290071 0.264034
H27   H     H_    0.144796 0.074204 0.314244 0.136585
H28   H     H_    0.243554 0.010742 0.343538 0.168028
H29   H     H_    0.283079 0.017461 0.094658 0.252077
H30   H     H_    0.176824 0.965704 0.134799 0.230284
H31   H     H_    0.180490 0.076050 0.072671 0.222086
H32   H     H_    0.240050 0.737898 0.183451 0.155045
H33   H     H_    0.353379 0.746878 0.237129 0.136024
H34   H     H_    0.254268 0.658741 0.508991 0.089751
H35   H     H_    0.370268 0.879200 0.077312 0.252650
H36   H     H_    0.361508 0.773599 0.002990 0.212405
H37   H     H_    0.266138 0.846383 0.011286 0.257871
H38   H     H_    0.644747 0.574150 0.314525 0.136582
H39   H     H_    0.743531 0.510710 0.343776 0.167858
H40   H     H_    0.782922 0.517296 0.094866 0.252132
H41   H     H_    0.676675 0.465559 0.135205 0.230606
H42   H     H_    0.680319 0.575873 0.072919 0.221979
H43   H     H_    0.740236 0.237827 0.183395 0.155173
H44   H     H_    0.853551 0.246916 0.237091 0.135959
H45   H     H_    0.636099 0.012968 0.864534 0.160154
H46   H     H_    0.870343 0.379225 0.077268 0.252597
H47   H     H_    0.861642 0.273623 0.002939 0.212401
H48   H     H_    0.766228 0.346359 0.011257 0.257932
H49   H     H_    0.226072 0.062531 0.710550 0.155334
H50   H     H_    0.144505 0.112215 0.606043 0.109343
H51   H     H_    0.107377 0.222395 0.777520 0.256423
H52   H     H_    0.094491 0.113405 0.846461 0.198745
H53   H     H_    0.190829 0.178122 0.882652 0.261107
H54   H     H_    0.379978 0.786183 0.763360 0.180874
H55   H     H_    0.381870 0.709769 0.626501 0.107336
H56   H     H_    0.136094 0.513017 0.864533 0.160156
H57   H     H_    0.257307 0.627435 0.736512 0.252990
H58   H     H_    0.344055 0.641729 0.851176 0.199275
H59   H     H_    0.244257 0.708036 0.866114 0.275060
H60   H     H_    0.726106 0.562550 0.710467 0.155249
H61   H     H_    0.644474 0.612366 0.606206 0.109410
H62   H     H_    0.607612 0.722474 0.777931 0.256439
H63   H     H_    0.594651 0.613441 0.846681 0.198692
H64   H     H_    0.691101 0.678010 0.882827 0.261097
H65   H     H_    0.879917 0.286247 0.763400 0.180914
H66   H     H_    0.881837 0.209779 0.626614 0.107348
H67   H     H_    0.441681 0.986938 0.903131 0.157923
H68   H     H_    0.757235 0.127495 0.736655 0.253001
H69   H     H_    0.843971 0.141820 0.851324 0.199295
H70   H     H_    0.744184 0.208147 0.866179 0.275071
H71   H     H_    0.941686 0.486920 0.903132 0.157930
H72   H     H_    0.636591 0.993503 0.113550 0.146233
N1    N     N_2   0.501330 0.000000 0.852150 -0.189734
N2    N     N_2   0.001330 0.500000 0.852150 -0.189733
N3    N     N_2   0.501360 0.000000 0.147810 -0.187508
N4    N     N_2   0.001360 0.500000 0.147810 -0.187529
O1    O     O_R   0.409520 0.909540 0.613040 -0.630833
O2    O     O_R   0.590440 0.909540 0.613100 -0.625222
O3    O     O_R   0.090440 0.590460 0.613100 -0.609898
O4    O     O_R   0.090440 0.409540 0.613100 -0.625235
O5    O     O_R   0.590480 0.090460 0.386960 -0.593693
O6    O     O_R   0.590480 0.909540 0.386960 -0.599313
O7    O     O_R   0.090480 0.590460 0.386960 -0.593952
O8    O     O_R   0.090480 0.409540 0.386960 -0.599267
O9    O     O_3   0.610464 0.742657 0.319441 -0.614854
O10   O     O_3   0.588516 0.276872 0.384600 -0.592261
O11   O     O_3   0.110515 0.242698 0.319333 -0.614817
O12   O     O_R   0.409520 0.090460 0.613040 -0.584835
O13   O     O_3   0.088325 0.776981 0.385192 -0.592535
O14   O     O_3   0.268721 0.137599 0.280182 -0.615083
O15   O     O_3   0.269185 0.851335 0.287719 -0.626113
O16   O     O_3   0.768654 0.637541 0.280246 -0.615157
O17   O     O_3   0.769258 0.351299 0.287661 -0.625809
O18   O     O_3   0.259714 0.185919 0.636991 -0.619042
O19   O     O_3   0.271728 0.796718 0.643918 -0.624168
O20   O     O_3   0.759762 0.685968 0.637013 -0.619052
O21   O     O_3   0.771696 0.296736 0.643890 -0.624278
O22   O     O_R   0.909520 0.409540 0.613040 -0.630856
O23   O     O_R   0.909520 0.590460 0.613040 -0.584834
O24   O     O_R   0.409560 0.909540 0.386900 -0.576359
O25   O     O_R   0.409560 0.090460 0.386900 -0.565114
O26   O     O_R   0.909560 0.409540 0.386900 -0.576331
O27   O     O_R   0.909560 0.590460 0.386900 -0.565160
O28   O     O_R   0.590440 0.090460 0.613100 -0.610004
Zn1   Zn    Zn3+2 0.499970 0.000000 0.650990 0.947514
Zn2   Zn    Zn3+2 0.999970 0.500000 0.650990 0.947563
Zn3   Zn    Zn3+2 0.500030 0.000000 0.349010 0.983701
Zn4   Zn    Zn3+2 0.000030 0.500000 0.349010 0.983650

loop_
_geom_bond_atom_site_label_1
_geom_bond_atom_site_label_2
_ccdc_geom_bond_type
C49   O6    A    
C34   O23   A    
C24   H9    S    
C6    C45   S    
N3    Zn3   S    
C13   O17   S    
C12   O25   A    
C4    C8    D    
C22   H5    S    
O1    Zn1   S    
C31   H28   S    
C48   H68   S    
C2    C6    D    
C34   O27   A    
C33   O15   S    
C32   H29   S    
C22   O9    S    
C17   C23   S    
C41   H53   S    
C46   H63   S    
O2    Zn1   S    
C26   H15   S    
C5    H1    S    
C36   C37   S    
C19   C21   S    
C3    C7    D    
C10   C15   D    
C18   N1    D    
C48   H70   S    
C21   H2    S    
N1    Zn1   S    
C29   H21   S    
C11   C52   S    
C1    O24   A    
C25   H11   S    
C6    H12   S    
C2    C13   S    
C33   H33   S    
C51   O4    A    
C27   H16   S    
C16   C34   S    
C40   H49   S    
C30   H25   S    
C35   H35   S    
C47   H66   S    
C47   O21   S    
C38   H43   S    
C12   O12   A    
C5    C52   D    
C1    C15   S    
C18   H45   S    
C42   H55   S    
C18   C20   S    
C27   H17   S    
C10   O15   S    
C19   H56   S    
O6    Zn3   S    
O24   Zn3   S    
C44   O20   S    
C5    C49   S    
C28   H20   S    
C43   H59   S    
C42   O19   S    
C44   C46   S    
N2    Zn2   S    
C28   H18   S    
C46   H62   S    
C2    O10   S    
O23   Zn2   S    
C20   N3    D    
C48   H69   S    
C39   H46   S    
C7    H23   S    
C29   H22   S    
C25   C26   S    
C27   O11   S    
C41   H51   S    
O5    Zn3   S    
C35   H36   S    
C26   H14   S    
O25   Zn3   S    
O3    Zn2   S    
C9    C14   D    
C38   O17   S    
O26   Zn4   S    
C29   C30   S    
C3    C9    S    
O12   Zn1   S    
C30   H24   S    
C51   O8    A    
C39   H47   S    
C47   C48   S    
C24   H8    S    
C29   O13   S    
C52   O9    S    
C37   H41   S    
C45   O28   A    
C21   N4    D    
C42   H54   S    
C44   H60   S    
C36   H39   S    
C40   C41   S    
C43   H58   S    
C23   O22   A    
C12   C14   S    
C44   H61   S    
C22   C24   S    
C28   H19   S    
C3    O11   S    
C42   C43   S    
C4    C10   S    
C8    C50   S    
C4    O13   S    
N4    Zn4   S    
C11   O16   S    
C36   H38   S    
C32   H31   S    
O28   Zn1   S    
O7    Zn4   S    
O22   Zn2   S    
C37   H40   S    
O27   Zn4   S    
C26   H13   S    
C45   O5    A    
C31   C32   S    
C17   O21   S    
H3    N3    S    
H71   N2    S    
C22   H6    S    
C9    O14   S    
C31   H27   S    
C46   H64   S    
C32   H30   S    
C49   O2    A    
C14   O18   S    
C19   N2    D    
C1    O1    A    
C41   H52   S    
C40   O18   S    
C16   O20   S    
O8    Zn4   S    
C31   O14   S    
C25   O10   S    
C36   O16   S    
C7    C51   S    
C15   O19   S    
C39   H48   S    
C38   C39   S    
C24   H7    S    
C33   C35   S    
C37   H42   S    
C8    H34   S    
C25   H10   S    
H4    N4    S    
C33   H32   S    
O4    Zn2   S    
C20   H72   S    
C11   C16   D    
C50   O3    A    
C40   H50   S    
C13   C17   D    
C30   H26   S    
C47   H65   S    
C50   O7    A    
C23   O26   A    
C38   H44   S    
C27   C28   S    
C35   H37   S    
C43   H57   S    
H67   N1    S    
