data_mof_unit_28325.cif
_audit_creation_date              2012-12-10T20:45:32-0500
_audit_creation_method            fapswitch 2.2
_symmetry_space_group_name_H-M    P1
_symmetry_Int_Tables_number       1
_space_group_crystal_system       triclinic
_cell_length_a                    10.697832
_cell_length_b                    10.735265
_cell_length_c                    9.957098
_cell_angle_alpha                 87.975002
_cell_angle_beta                  90.811504
_cell_angle_gamma                 90.6508
_cell_volume                      1142.61737657

loop_
_atom_site_label
_atom_site_type_symbol
_atom_type_description
_atom_site_fract_x
_atom_site_fract_y
_atom_site_fract_z
_atom_type_partial_charge
C1    C     C_R   0.503099 0.259814 0.501432 0.960003
C2    C     C_R   0.227955 0.692884 0.010419 -0.105746
C3    C     C_R   0.936264 0.519879 0.377660 -0.221326
C4    C     C_R   0.875798 0.519663 0.501849 -0.088145
C5    C     C_R   0.942463 0.558582 0.617578 -0.090007
C6    C     C_R   0.069512 0.586594 0.606018 -0.056694
C7    C     C_R   0.130284 0.548761 0.491927 -0.096084
C8    C     C_R   0.062946 0.544437 0.371199 -0.024613
C9    C     C_R   0.846166 0.679759 0.798798 -0.189906
C10   C     C_R   0.807838 0.687033 0.931560 -0.087459
C11   C     C_R   0.802864 0.579293 0.014311 -0.095218
C12   C     C_R   0.261485 0.515803 0.497940 0.969744
C13   C     C_R   0.835172 0.464156 0.965004 -0.198890
C14   C     C_R   0.878798 0.457348 0.834264 -0.097417
C15   C     C_R   0.885610 0.565382 0.751144 0.131946
C16   C     C_R   0.527281 0.057726 0.620473 0.013940
C17   C     C_R   0.526419 0.128466 0.502107 -0.125735
C18   C     C_R   0.568587 0.073028 0.385848 -0.251590
C19   C     C_R   0.586515 0.944358 0.384897 0.415426
C20   C     C_R   0.551943 0.870773 0.500236 -0.203604
C21   C     C_R   0.547788 0.932401 0.621941 0.015866
C22   C     C_3   0.475577 0.913581 0.748946 -0.472721
C23   C     C_R   0.516234 0.739274 0.498659 0.945725
C24   C     C_3   0.444210 0.050640 0.738503 0.324369
C25   C     C_R   0.479974 0.392196 0.075906 0.209680
C26   C     C_R   0.518199 0.606055 0.067572 -0.109233
C27   C     C_R   0.520568 0.605768 0.924890 -0.118039
C28   C     C_R   0.476957 0.392503 0.933240 0.187670
C29   C     C_3   0.355175 0.322079 0.937939 -0.433788
C30   C     C_3   0.364321 0.316049 0.089141 -0.491412
C31   C     C_R   0.741150 0.501899 0.501127 0.853734
C32   C     C_R   0.240842 0.756725 0.129213 -0.098884
C33   C     C_R   0.184990 0.708965 0.245931 -0.085463
C34   C     C_R   0.117323 0.595498 0.244925 0.144371
C35   C     C_R   0.102868 0.533280 0.124696 -0.156687
C36   C     C_R   0.157703 0.582253 0.007853 -0.143577
H1    H     H_    0.273217 0.729265 0.920861 0.168519
H2    H     H_    0.770128 0.584234 0.115482 0.197198
H3    H     H_    0.829105 0.380855 0.029160 0.149140
H4    H     H_    0.908492 0.368559 0.798119 0.149202
H5    H     H_    0.588768 0.129276 0.296031 0.199965
H6    H     H_    0.394640 0.849945 0.741953 0.286334
H7    H     H_    0.538700 0.893340 0.836288 0.171447
H8    H     H_    0.483637 0.102075 0.823811 0.061458
H9    H     H_    0.530601 0.691675 0.117817 0.242320
H10   H     H_    0.294765 0.842614 0.131058 0.167450
H11   H     H_    0.539796 0.690792 0.869218 0.160400
H12   H     H_    0.275910 0.377236 0.896823 0.221102
H13   H     H_    0.358498 0.228830 0.898536 0.243507
H14   H     H_    0.288148 0.364890 0.139228 0.231798
H15   H     H_    0.383933 0.221019 0.131773 0.217663
H16   H     H_    0.195864 0.759594 0.337670 0.154037
H17   H     H_    0.052343 0.445484 0.122325 0.138226
H18   H     H_    0.145683 0.533749 0.915541 0.131031
H19   H     H_    0.884848 0.506575 0.285357 0.168235
H20   H     H_    0.850040 0.763472 0.734917 0.137395
H21   H     H_    0.780371 0.775618 0.969783 0.208674
N1    N     N_R   0.499160 0.499140 0.142800 -0.115717
N2    N     N_R   0.499160 0.499180 0.857150 -0.105753
O1    O     O_R   0.500020 0.316790 0.614690 -0.604774
O2    O     O_R   0.500000 0.316760 0.385350 -0.634669
O3    O     O_R   0.316770 0.500030 0.614670 -0.571912
O4    O     O_R   0.316750 0.499990 0.385330 -0.632709
O5    O     O_R   0.500000 0.683240 0.614650 -0.616120
O6    O     O_R   0.499980 0.683210 0.385310 -0.583422
O7    O     O_R   0.683250 0.500010 0.614670 -0.617075
O8    O     O_R   0.683230 0.499970 0.385330 -0.608287
Zn1   Zn    Zn3+2 0.500010 0.500020 0.653130 0.996056
Zn2   Zn    Zn3+2 0.499990 0.499980 0.346870 0.983838
S1    S     S_3+6 0.673042 0.890970 0.249744 -0.038078
O9    O     O_2   0.594430 0.901631 0.123805 -0.367877
O10   O     O_2   0.786013 0.974028 0.230813 -0.304625
O11   O     O_3   0.721728 0.744505 0.277976 -0.584087
H22   H     H_    0.786547 0.750743 0.349417 0.348730
S2    S     S_3+6 0.281855 0.073614 0.694051 0.002340
O12   O     O_2   0.202357 0.027670 0.809216 -0.308795
O13   O     O_2   0.256617 0.209274 0.664481 -0.326522
O14   O     O_3   0.245448 0.992909 0.556799 -0.528305
H23   H     H_    0.153538 0.999666 0.546391 0.386777
C37   C     C_2   0.129613 0.680955 0.691420 0.366164
H24   H     H_    0.084875 0.712587 0.780229 0.099780
O15   O     O_2   0.226261 0.732794 0.656751 -0.570294

loop_
_geom_bond_atom_site_label_1
_geom_bond_atom_site_label_2
_ccdc_geom_bond_type
C31   O7    A    
O7    Zn1   S    
C30   H15   S    
C16   C21   A    
C35   H17   S    
O11   H22   S    
C19   C20   A    
C7    C8    A    
C29   H13   S    
C25   C28   A    
C31   O8    A    
C26   C27   A    
O5    Zn1   S    
C28   C29   S    
C18   C19   A    
C5    C6    A    
C2    C36   A    
C2    C32   A    
C34   C35   A    
C26   H9    S    
C3    H19   S    
C26   N1    A    
C35   C36   A    
C16   C17   A    
S1    O9    D    
C9    C10   A    
C30   H14   S    
C16   C24   S    
C13   C14   A    
C33   C34   A    
C7    C12   S    
C5    C15   S    
C29   H12   S    
O4    Zn2   S    
C10   H21   S    
C37   O15   D    
C3    C8    A    
C18   H5    S    
C12   O4    A    
O14   H23   S    
C37   H24   S    
C33   H16   S    
C11   H2    S    
S2    O12   D    
C29   C30   S    
N2    Zn1   S    
C12   O3    A    
C6    C37   S    
C22   H7    S    
C20   C23   S    
S1    O11   S    
C17   C18   A    
N1    Zn2   S    
C9    H20   S    
C8    C34   S    
S2    O13   D    
C23   O5    A    
C24   H8    S    
C22   C24   S    
C1    O1    A    
C25   N1    A    
C3    C4    A    
C28   N2    A    
C27   H11   S    
C25   C30   S    
C32   H10   S    
C4    C5    A    
C1    O2    A    
C24   S2    S    
C6    C7    A    
C1    C17   S    
O3    Zn1   S    
O2    Zn2   S    
C32   C33   A    
C23   O6    A    
C9    C15   A    
C27   N2    A    
C11   C13   A    
C2    H1    S    
C22   H6    S    
O6    Zn2   S    
S2    O14   S    
C13   H3    S    
C4    C31   S    
C36   H18   S    
C10   C11   A    
C14   H4    S    
C20   C21   A    
O1    Zn1   S    
C14   C15   A    
C19   S1    S    
S1    O10   D    
O8    Zn2   S    
C21   C22   S    
