data_mof_unit_28509.cif
_audit_creation_date              2012-12-11T14:36:15-0500
_audit_creation_method            fapswitch 2.2
_symmetry_space_group_name_H-M    P1
_symmetry_Int_Tables_number       1
_space_group_crystal_system       triclinic
_cell_length_a                    13.492511
_cell_length_b                    13.484366
_cell_length_c                    27.512871
_cell_angle_alpha                 90.698846
_cell_angle_beta                  90.103771
_cell_angle_gamma                 60.070721
_cell_volume                      4337.71803985

loop_
_atom_site_label
_atom_site_type_symbol
_atom_type_description
_atom_site_fract_x
_atom_site_fract_y
_atom_site_fract_z
_atom_type_partial_charge
C1    C     C_R   0.620493 0.101554 0.570080 0.547255
C2    C     C_1   0.628673 0.735399 0.616925 0.007135
C3    C     C_3   0.710231 0.562437 0.767986 -0.107757
C4    C     C_3   0.676542 0.658797 0.806207 0.025038
C5    C     C_3   0.596772 0.639247 0.740862 -0.114537
C6    C     C_3   0.657485 0.689966 0.711541 0.034054
C7    C     C_3   0.563305 0.734950 0.779829 -0.104214
C8    C     C_3   0.623978 0.786048 0.749817 -0.131098
C9    C     C_1   0.686613 0.636591 0.858443 -0.045376
C10   C     C_1   0.644771 0.710357 0.659177 -0.019834
C11   C     C_3   0.098695 0.122762 0.738399 -0.098630
C12   C     C_R   0.599244 0.780093 0.568882 0.546880
C13   C     C_3   0.192313 0.055881 0.776945 -0.117785
C14   C     C_1   0.096397 0.200928 0.901909 0.016791
C15   C     C_1   0.230712 0.137458 0.617802 -0.008968
C16   C     C_3   0.053825 0.233774 0.769549 -0.101447
C17   C     C_3   0.147588 0.166727 0.807379 0.059634
C18   C     C_3   0.136443 0.263518 0.742768 -0.111429
C19   C     C_3   0.180950 0.152818 0.712423 0.031003
C20   C     C_3   0.228904 0.196195 0.780872 0.045357
C21   C     C_3   0.275199 0.085647 0.750005 -0.118630
C22   C     C_1   0.124069 0.180828 0.859755 0.000809
C23   C     C_R   0.277997 0.121728 0.569781 0.546591
C24   C     C_1   0.203366 0.145762 0.660000 -0.049587
C25   C     C_3   0.641720 0.276273 0.738689 -0.102620
C26   C     C_3   0.563980 0.263198 0.776450 -0.094675
C27   C     C_1   0.693824 0.208724 0.902256 -0.000891
C28   C     C_1   0.637571 0.134571 0.617747 -0.008418
C29   C     C_3   0.747885 0.200130 0.770113 -0.105150
C30   C     C_3   0.669842 0.186817 0.807035 0.053990
C31   C     C_3   0.764137 0.091893 0.742708 -0.098931
C32   C     C_3   0.658136 0.168237 0.712125 0.048994
C33   C     C_3   0.686458 0.078785 0.780403 -0.091837
C34   C     C_R   0.621869 0.099152 0.430980 0.547511
C35   C     C_3   0.580368 0.154821 0.749078 -0.097375
C36   C     C_1   0.679298 0.197735 0.859716 -0.038225
C37   C     C_1   0.648572 0.153563 0.659754 -0.049460
C38   C     C_R   0.734693 0.704641 0.359727 -0.134681
C39   C     C_R   0.746702 0.686579 0.309541 -0.015304
C40   C     C_R   0.763161 0.666479 0.207558 -0.015928
C41   C     C_R   0.850637 0.670962 0.234680 0.023131
C42   C     C_R   0.840664 0.681004 0.285533 -0.099675
C43   C     C_R   0.772662 0.643781 0.157208 -0.143976
C44   C     C_R   0.684518 0.639148 0.132071 -0.001139
C45   C     C_R   0.601899 0.775757 0.430380 0.545264
C46   C     C_R   0.557210 0.700327 0.357245 -0.098196
C47   C     C_R   0.565545 0.684403 0.307016 0.030171
C48   C     C_R   0.659681 0.681935 0.282871 0.037735
C49   C     C_R   0.477719 0.680996 0.279791 0.019611
C50   C     C_R   0.481063 0.684748 0.229345 -0.154778
C51   C     C_R   0.574380 0.680681 0.205636 0.006445
C52   C     C_R   0.665745 0.676840 0.232059 0.047940
C53   C     C_R   0.581387 0.670009 0.155604 -0.121635
C54   C     C_R   0.636690 0.718146 0.383046 -0.015478
C55   C     C_R   0.210769 0.059110 0.357992 -0.133566
C56   C     C_R   0.278269 0.120692 0.430869 0.547217
C57   C     C_R   0.185743 0.071822 0.308270 0.014764
C58   C     C_R   0.146195 0.094907 0.207565 0.014541
C59   C     C_R   0.155339 0.999583 0.231709 -0.130395
C60   C     C_R   0.176028 0.987645 0.281710 -0.128258
C61   C     C_R   0.119951 0.111139 0.158084 -0.131878
C62   C     C_R   0.106603 0.209666 0.135130 -0.002834
C63   C     C_R   0.199696 0.244806 0.360077 -0.125650
C64   C     C_R   0.181068 0.255759 0.310474 0.005370
C65   C     C_R   0.174722 0.168778 0.284244 0.063782
C66   C     C_R   0.174152 0.350010 0.286476 -0.119186
C67   C     C_3   0.769298 0.614686 0.738261 0.101011
C68   C     C_R   0.161024 0.358160 0.236360 -0.118811
C69   C     C_R   0.151415 0.273918 0.210057 0.003651
C70   C     C_R   0.158072 0.178766 0.233896 0.064288
C71   C     C_R   0.129287 0.286712 0.160639 -0.128848
C72   C     C_R   0.221847 0.143850 0.383535 -0.004263
C73   C     C_R   0.560568 0.234830 0.361755 -0.124819
C74   C     C_R   0.565815 0.252006 0.311977 0.010873
C75   C     C_R   0.577498 0.282780 0.211614 0.011600
C76   C     C_R   0.492821 0.370832 0.240415 -0.122213
C77   C     C_R   0.485799 0.354683 0.290149 -0.111462
C78   C     C_3   0.737561 0.709659 0.777087 -0.103127
C79   C     C_R   0.590820 0.299688 0.162455 -0.133272
C80   C     C_R   0.678722 0.210978 0.134983 -0.002971
C81   C     C_R   0.729532 0.046003 0.354166 -0.127058
C82   C     C_R   0.733036 0.059892 0.304523 0.006075
C83   C     C_R   0.651033 0.163159 0.283193 0.062720
C84   C     C_R   0.815227 0.970316 0.275734 -0.122085
C85   C     C_R   0.816615 0.983018 0.225783 -0.124447
C86   C     C_R   0.737681 0.086388 0.204419 0.007069
C87   C     C_R   0.654629 0.177228 0.232999 0.063841
C88   C     C_R   0.745483 0.102453 0.155312 -0.128007
C89   C     C_1   0.696423 0.609393 0.900467 -0.007019
C90   C     C_R   0.641029 0.130795 0.382699 -0.002116
C91   C     C_R   0.049146 0.236171 0.949782 0.547324
C92   C     C_R   0.711500 0.563112 0.948253 0.544010
C93   C     C_R   0.722600 0.225632 0.950707 0.546761
C94   C     C_R   0.048344 0.245019 0.088377 0.550054
C95   C     C_R   0.707529 0.575857 0.086128 0.546280
C96   C     C_R   0.718298 0.233804 0.089235 0.549874
Cr1   Cr    Cr6+3 0.417550 0.169090 0.500530 1.034499
Cr2   Cr    Cr6+3 0.669180 0.913420 0.499920 1.034882
Cr3   Cr    Cr6+3 0.413260 0.917540 0.499520 1.038852
Cr4   Cr    Cr6+3 0.909170 0.177380 0.020380 1.023873
Cr5   Cr    Cr6+3 0.912710 0.429210 0.018220 1.033517
Cr6   Cr    Cr6+3 0.657170 0.432570 0.019030 1.030612
H1    H     H_    0.795404 0.738344 0.792413 0.131796
H2    H     H_    0.116485 0.348038 0.728655 0.156139
H3    H     H_    0.962608 0.295097 0.777923 0.114371
H4    H     H_    0.482250 0.334075 0.791041 0.122523
H5    H     H_    0.623829 0.357182 0.721090 0.114766
H6    H     H_    0.512437 0.134625 0.739369 0.094981
H7    H     H_    0.704322 0.997835 0.797959 0.112659
H8    H     H_    0.846624 0.021791 0.728284 0.116180
H9    H     H_    0.817143 0.218710 0.779401 0.101949
H10   H     H_    0.851393 0.619465 0.138013 0.112752
H11   H     H_    0.796831 0.717187 0.379870 0.123717
H12   H     H_    0.905658 0.686502 0.306710 0.148738
H13   H     H_    0.511551 0.670223 0.135891 0.131569
H14   H     H_    0.413365 0.684047 0.208215 0.088616
H15   H     H_    0.481608 0.712894 0.375912 0.199086
H16   H     H_    0.103435 0.050887 0.138298 0.124725
H17   H     H_    0.227399 0.981265 0.376022 0.132495
H18   H     H_    0.146164 0.934590 0.211986 0.111456
H19   H     H_    0.588364 0.878135 0.741747 0.106695
H20   H     H_    0.183545 0.913231 0.299686 0.115231
H21   H     H_    0.120276 0.362343 0.143070 0.132924
H22   H     H_    0.156551 0.431115 0.218237 0.155331
H23   H     H_    0.180603 0.416449 0.306357 0.131367
H24   H     H_    0.206490 0.311580 0.379544 0.137311
H25   H     H_    0.538213 0.383266 0.146657 0.125354
H26   H     H_    0.491750 0.300207 0.383683 0.135616
H27   H     H_    0.432440 0.452087 0.224551 0.115691
H28   H     H_    0.418575 0.422671 0.311627 0.165354
H29   H     H_    0.811592 0.032659 0.133967 0.130223
H30   H     H_    0.478179 0.785070 0.797536 0.117618
H31   H     H_    0.881443 0.913386 0.204026 0.127342
H32   H     H_    0.878065 0.890436 0.291826 0.134417
H33   H     H_    0.791493 0.965004 0.369824 0.133728
H34   H     H_    0.539117 0.610355 0.725519 0.115502
H35   H     H_    0.746366 0.470185 0.775892 0.104721
H36   H     H_    0.215433 0.970561 0.791419 0.111463
H37   H     H_    0.044476 0.092854 0.720354 0.117070
H38   H     H_    0.366616 0.025087 0.741624 0.099193
O1    O     O_R   0.301710 0.195650 0.554160 -0.504070
O2    O     O_R   0.658900 0.818120 0.449760 -0.500604
O3    O     O_R   0.503220 0.801620 0.445520 -0.518290
O4    O     O_R   0.319370 0.022040 0.450020 -0.499123
O5    O     O_3   0.499990 0.000010 0.499990 -0.252252
O6    O     O_R   0.818720 0.150820 0.967160 -0.509169
O7    O     O_R   0.006410 0.181720 0.970200 -0.502484
O8    O     O_R   0.027890 0.334070 0.964920 -0.493045
O9    O     O_R   0.809600 0.521790 0.967960 -0.494777
O10   O     O_R   0.635520 0.542770 0.964420 -0.506105
O11   O     O_R   0.665950 0.325030 0.970100 -0.491351
O12   O     O_R   0.522390 0.158990 0.550460 -0.494120
O13   O     O_R   0.816620 0.158530 0.074540 -0.521184
O14   O     O_R   0.004460 0.188870 0.069750 -0.500684
O15   O     O_R   0.025800 0.341780 0.072300 -0.519645
O16   O     O_R   0.807650 0.528950 0.067500 -0.502145
O17   O     O_R   0.633420 0.550490 0.071810 -0.522030
O18   O     O_R   0.664000 0.332180 0.069640 -0.498692
O19   O     O_3   0.826350 0.346390 0.019210 -0.248687
O20   O     O_R   0.694390 0.003530 0.554040 -0.502196
O21   O     O_R   0.657700 0.819660 0.549320 -0.491554
O22   O     O_R   0.501930 0.803280 0.552920 -0.505395
O23   O     O_R   0.318170 0.023580 0.549580 -0.494335
O24   O     O_R   0.303010 0.193990 0.446760 -0.520178
O25   O     O_R   0.523600 0.157450 0.450900 -0.499972
O26   O     O_R   0.695690 0.001860 0.446640 -0.520292
C97   C     C_2   0.301200 0.239745 0.803231 0.221545
H39   H     H_    0.339298 0.276234 0.780165 0.087722
O27   O     O_2   0.316266 0.236006 0.847056 -0.494532
C98   C     C_2   0.882491 0.547586 0.713247 0.556921
O28   O     O_2   0.959736 0.567088 0.722626 -0.540432
O29   O     O_R   0.898098 0.464342 0.678594 -0.707477
H40   H     H_    0.976656 0.426907 0.662897 0.334548
C99   C     C_2   0.950154 0.670762 0.211212 0.177362
H41   H     H_    0.952797 0.682002 0.172463 0.097769
O30   O     O_2   0.030560 0.660776 0.235413 -0.555571
C100  C     C_2   0.381307 0.672120 0.301171 0.182954
H42   H     H_    0.302381 0.703188 0.280908 0.111606
O31   O     O_2   0.390608 0.623833 0.339538 -0.539433

loop_
_geom_bond_atom_site_label_1
_geom_bond_atom_site_label_2
_ccdc_geom_bond_type
Cr4   O13   S    
C5    H34   S    
C66   C68   A    
C41   C99   S    
Cr5   O8    S    
C59   H18   S    
C73   C74   A    
C96   O18   A    
C74   C83   A    
C43   C44   A    
C2    C12   S    
C26   H4    S    
C91   O7    A    
C81   C82   A    
C7    C8    S    
C97   O27   D    
C55   H17   S    
C85   C86   A    
C11   C19   S    
C20   C21   S    
C71   H21   S    
C19   C21   S    
C73   C90   A    
C18   C19   S    
C5    C6    S    
C86   C88   A    
C8    H19   S    
C98   O28   D    
Cr5   O15   S    
Cr4   O7    S    
Cr4   O14   S    
C65   C70   A    
C17   C20   S    
C1    O12   A    
C95   O16   A    
C41   C42   A    
C69   C71   A    
C11   H37   S    
C99   H41   S    
C35   H6    S    
C12   O21   A    
C44   C53   A    
C42   H12   S    
C40   C43   A    
C31   C32   S    
Cr4   O6    S    
C94   O15   A    
C56   C72   S    
C74   C77   A    
C1    C28   S    
C31   C33   S    
C3    H35   S    
C80   C96   S    
C34   O25   A    
C49   C100  S    
C55   C72   A    
Cr6   O11   S    
C25   C32   S    
C15   C23   S    
C78   H1    S    
C59   C60   A    
Cr2   O2    S    
C8    C78   S    
C68   H22   S    
C61   C62   A    
C67   C78   S    
C4    C7    S    
Cr6   O17   S    
C91   O8    A    
C81   H33   S    
C39   C42   A    
C23   O23   A    
C67   C98   S    
C25   C29   S    
C38   C39   A    
C3    C67   S    
C51   C52   A    
C32   C35   S    
Cr3   O4    S    
C76   C77   A    
C47   C49   A    
C9    C89   T    
C97   H39   S    
C5    C7    S    
C38   H11   S    
C86   C87   A    
C68   C69   A    
C57   C60   A    
C6    C8    S    
Cr5   O16   S    
C100  O31   D    
C58   C59   A    
C40   C52   A    
C63   C64   A    
C46   H15   S    
C51   C53   A    
C64   C66   A    
Cr6   O19   S    
C75   C76   A    
C34   C90   S    
C4    C78   S    
C29   C30   S    
Cr3   O22   S    
C11   C16   S    
C47   C48   A    
C38   C54   A    
Cr1   O12   S    
C94   O14   A    
Cr1   O24   S    
C84   H32   S    
C46   C54   A    
C76   H27   S    
C50   C51   A    
C13   C21   S    
C93   O6    A    
C16   C18   S    
C18   H2    S    
C32   C37   S    
C84   C85   A    
C89   C92   S    
C60   H20   S    
Cr1   O1    S    
C7    H30   S    
Cr2   O26   S    
C16   H3    S    
Cr6   O10   S    
Cr3   O23   S    
C81   C90   A    
C75   C87   A    
C15   C24   T    
Cr2   O20   S    
C45   C54   S    
C100  H42   S    
C82   C84   A    
C62   C94   S    
C92   O10   A    
C45   O2    A    
C49   C50   A    
C27   C93   S    
C33   H7    S    
C43   H10   S    
C3    C4    S    
C2    C10   T    
Cr2   O21   S    
O29   H40   S    
C25   H5    S    
Cr3   O3    S    
C20   C97   S    
C79   H25   S    
C46   C47   A    
C40   C41   A    
C30   C33   S    
C61   H16   S    
C95   O17   A    
Cr1   O5    S    
C29   H9    S    
C1    O20   A    
C58   C70   A    
C57   C65   A    
Cr6   O18   S    
C3    C5    S    
C83   C87   A    
C6    C10   S    
C96   O13   A    
C26   C30   S    
C18   C20   S    
Cr2   O5    S    
C30   C36   S    
C27   C36   T    
C73   H26   S    
C56   O24   A    
C17   C22   S    
C21   H38   S    
C66   H23   S    
C13   C17   S    
C64   C65   A    
C14   C22   T    
C55   C57   A    
C19   C24   S    
C25   C26   S    
C80   C88   A    
C44   C95   S    
C6    C67   S    
C13   H36   S    
C11   C13   S    
Cr4   O19   S    
C16   C17   S    
C98   O29   S    
C28   C37   T    
C58   C61   A    
Cr1   O25   S    
Cr5   O9    S    
C33   C35   S    
C31   H8    S    
C62   C71   A    
C50   H14   S    
C77   H28   S    
Cr3   O5    S    
C69   C70   A    
C99   O30   D    
C14   C91   S    
C63   H24   S    
C93   O11   A    
C12   O22   A    
C79   C80   A    
C56   O4    A    
C26   C35   S    
C48   C52   A    
C63   C72   A    
Cr5   O19   S    
C29   C31   S    
C82   C83   A    
C92   O9    A    
C45   O3    A    
C23   O1    A    
C88   H29   S    
C4    C9    S    
C34   O26   A    
C75   C79   A    
C53   H13   S    
C85   H31   S    
C39   C48   A    
