data_mof_unit_50591.cif
_audit_creation_date              2012-12-10T18:57:10-0500
_audit_creation_method            fapswitch 2.2
_symmetry_space_group_name_H-M    P1
_symmetry_Int_Tables_number       1
_space_group_crystal_system       triclinic
_cell_length_a                    10.713689
_cell_length_b                    9.899928
_cell_length_c                    10.903008
_cell_angle_alpha                 88.633646
_cell_angle_beta                  93.777993
_cell_angle_gamma                 89.854927
_cell_volume                      1153.57387371

loop_
_atom_site_label
_atom_site_type_symbol
_atom_type_description
_atom_site_fract_x
_atom_site_fract_y
_atom_site_fract_z
_atom_type_partial_charge
C1    C     C_R   0.260211 0.499299 0.509411 0.882410
C2    C     C_R   0.481266 0.605399 0.933812 0.057922
C3    C     C_R   0.492315 0.494409 0.126251 -0.204267
C4    C     C_R   0.488791 0.488327 0.870189 -0.200454
C5    C     C_R   0.508795 0.368172 0.064939 0.077222
C6    C     C_R   0.476650 0.365156 0.937136 0.148032
C7    C     C_3   0.539067 0.739998 0.927996 -0.240273
C8    C     C_3   0.488791 0.756612 0.053724 -0.233079
C9    C     C_R   0.061401 0.372026 0.505915 -0.055796
C10   C     C_R   0.934699 0.372285 0.472172 -0.055351
C11   C     C_R   0.869794 0.496416 0.464238 -0.165121
C12   C     C_R   0.737799 0.499521 0.484318 0.890645
C13   C     C_R   0.125401 0.496737 0.514035 -0.165214
C14   C     C_R   0.934825 0.618518 0.461425 -0.050138
C15   C     C_R   0.058959 0.619599 0.503845 -0.058439
C16   C     C_3   0.570141 0.243741 0.130917 -0.317335
C17   C     C_3   0.643465 0.150076 0.051949 -0.878047
C18   C     C_3   0.386229 0.256383 0.890318 -0.330367
C19   C     C_3   0.442586 0.148973 0.811753 -0.768213
C20   C     C_1   0.676794 0.729131 0.936779 0.171775
C21   C     C_1   0.374919 0.841618 0.036501 0.148559
C22   C     C_1   0.120375 0.244156 0.544301 0.203530
C23   C     C_R   0.586866 0.071917 0.569989 -0.091886
C24   C     C_1   0.874985 0.246273 0.435897 0.204932
C25   C     C_1   0.880745 0.735955 0.395904 0.201851
C26   C     C_1   0.109471 0.741193 0.558975 0.209486
C27   C     C_3   0.680153 0.863485 0.665408 -0.393352
C28   C     C_3   0.815705 0.906538 0.651240 -0.832876
C29   C     C_3   0.330798 0.869366 0.329011 -0.372690
C30   C     C_3   0.197927 0.927782 0.310332 -0.860028
C31   C     C_R   0.414806 0.075831 0.428042 -0.077130
C32   C     C_R   0.587447 0.928947 0.572361 0.205309
C33   C     C_R   0.412961 0.932520 0.427727 0.193389
C34   C     C_R   0.500613 0.500167 0.259562 0.872433
C35   C     C_R   0.497796 0.497174 0.739464 0.902404
C36   C     C_R   0.454417 0.608172 0.053946 0.050854
H1    H     H_    0.497876 0.805585 0.851584 0.160627
H2    H     H_    0.396405 0.153662 0.717751 0.276136
H3    H     H_    0.544688 0.162635 0.806327 0.249972
H4    H     H_    0.425362 0.046430 0.849805 0.227330
H5    H     H_    0.344598 0.204709 0.969577 0.202526
H6    H     H_    0.306036 0.305776 0.836619 0.188542
H7    H     H_    0.834110 0.923921 0.553975 0.282850
H8    H     H_    0.836148 0.001963 0.700126 0.244585
H9    H     H_    0.880602 0.827449 0.691889 0.263103
H10   H     H_    0.674927 0.753144 0.667102 0.272183
H11   H     H_    0.655870 0.898897 0.756123 0.179740
H12   H     H_    0.557337 0.787605 0.128894 0.173013
H13   H     H_    0.159687 0.953073 0.398526 0.282245
H14   H     H_    0.197229 0.020928 0.251475 0.249451
H15   H     H_    0.135262 0.853294 0.263206 0.265192
H16   H     H_    0.379966 0.892468 0.247139 0.193945
H17   H     H_    0.325566 0.759530 0.337554 0.268505
H18   H     H_    0.654612 0.127442 0.626692 0.153472
H19   H     H_    0.350205 0.134992 0.368157 0.154363
H20   H     H_    0.581032 0.072874 0.009781 0.265334
H21   H     H_    0.692224 0.208103 0.981088 0.264956
H22   H     H_    0.715319 0.093850 0.111229 0.260393
H23   H     H_    0.642174 0.278976 0.200800 0.231949
H24   H     H_    0.498594 0.183959 0.177497 0.209938
N1    N     N_R   0.500000 0.857200 0.500000 -0.128677
N2    N     N_R   0.500000 0.142810 0.500000 -0.126519
N3    N     N_1   0.784787 0.720389 0.944025 -0.196123
N4    N     N_1   0.285612 0.907586 0.021070 -0.205087
N5    N     N_1   0.166740 0.142509 0.576070 -0.206622
N6    N     N_1   0.827741 0.146373 0.405740 -0.208568
N7    N     N_1   0.837690 0.828176 0.340999 -0.200872
N8    N     N_1   0.149723 0.836542 0.606252 -0.185066
O1    O     O_R   0.316770 0.614620 0.499990 -0.625656
O2    O     O_R   0.683230 0.614620 0.500010 -0.620376
O3    O     O_R   0.316800 0.385290 0.500000 -0.616614
O4    O     O_R   0.683200 0.385290 0.500000 -0.618730
O5    O     O_R   0.500000 0.614690 0.316780 -0.638582
O6    O     O_R   0.500000 0.614690 0.683220 -0.643075
O7    O     O_R   0.500020 0.385360 0.316780 -0.639862
O8    O     O_R   0.499980 0.385360 0.683220 -0.610661
Zn1   Zn    Zn3+2 0.500000 0.653120 0.500000 0.943436
Zn2   Zn    Zn3+2 0.500000 0.346880 0.500000 0.936608

loop_
_geom_bond_atom_site_label_1
_geom_bond_atom_site_label_2
_ccdc_geom_bond_type
C30   H15   S    
C35   O6    A    
O1    Zn1   S    
C2    C7    S    
C25   N7    T    
C7    C8    S    
C1    O3    A    
O8    Zn2   S    
C32   N1    A    
C18   H6    S    
C16   H24   S    
C5    C6    A    
C11   C14   A    
C9    C22   S    
C2    C36   A    
C29   C33   S    
C18   C19   S    
C8    C36   S    
C9    C13   A    
C21   N4    T    
O4    Zn2   S    
C23   N2    A    
N1    Zn1   S    
C16   C17   S    
C5    C16   S    
O6    Zn1   S    
C31   C33   A    
C9    C10   A    
C24   N6    T    
C17   H22   S    
C30   H14   S    
C4    C35   S    
O2    Zn1   S    
C31   N2    A    
C6    C18   S    
C35   O8    A    
C4    C6    A    
C19   H4    S    
C18   H5    S    
C28   H9    S    
C15   C26   S    
C3    C34   S    
C10   C24   S    
C28   H8    S    
C1    O1    A    
C16   H23   S    
C2    C4    A    
C8    H12   S    
C22   N5    T    
C29   C30   S    
C19   H2    S    
C8    C21   S    
C7    H1    S    
C17   H20   S    
C19   H3    S    
C27   H10   S    
C30   H13   S    
C13   C15   A    
C1    C13   S    
C23   H18   S    
C27   H11   S    
C12   O2    A    
C27   C32   S    
N2    Zn2   S    
C3    C5    A    
C11   C12   S    
C34   O7    A    
C28   H7    S    
C26   N8    T    
C23   C32   A    
C20   N3    T    
C29   H17   S    
C3    C36   A    
C14   C25   S    
C12   O4    A    
O7    Zn2   S    
C10   C11   A    
C34   O5    A    
C33   N1    A    
C7    C20   S    
C27   C28   S    
O5    Zn1   S    
C14   C15   A    
C31   H19   S    
O3    Zn2   S    
C17   H21   S    
C29   H16   S    
