data_mof_unit_6791.cif
_audit_creation_date              2012-10-26T20:21:46-0400
_audit_creation_method            fapswitch 2.2
_symmetry_space_group_name_H-M    P1
_symmetry_Int_Tables_number       1
_space_group_crystal_system       triclinic
_cell_length_a                    16.032956
_cell_length_b                    14.863342
_cell_length_c                    9.596613
_cell_angle_alpha                 91.160405
_cell_angle_beta                  89.572244
_cell_angle_gamma                 90.122202
_cell_volume                      2286.36741076

loop_
_atom_site_label
_atom_site_type_symbol
_atom_type_description
_atom_site_fract_x
_atom_site_fract_y
_atom_site_fract_z
_atom_type_partial_charge
Br1   Br    Br    0.788299 0.345254 0.195923 -0.198195
Br2   Br    Br    0.711705 0.154737 0.804077 -0.198192
Br3   Br    Br    0.719263 0.138929 0.200389 -0.215152
Br4   Br    Br    0.280762 0.861042 0.799631 -0.215169
Br5   Br    Br    0.731755 0.886096 0.780181 -0.250996
Br6   Br    Br    0.268323 0.114017 0.219714 -0.251014
Br7   Br    Br    0.320635 0.193434 0.812531 -0.254888
Br8   Br    Br    0.679234 0.806404 0.187477 -0.254876
Br9   Br    Br    0.211702 0.654731 0.804062 -0.198285
Br10  Br    Br    0.219232 0.638967 0.200367 -0.215185
Br11  Br    Br    0.780748 0.361059 0.799618 -0.215183
Br12  Br    Br    0.231671 0.385973 0.780289 -0.251003
Br13  Br    Br    0.768246 0.613905 0.219818 -0.250992
Br14  Br    Br    0.820761 0.693592 0.812526 -0.254858
Br15  Br    Br    0.179357 0.306554 0.187466 -0.254880
Br16  Br    Br    0.288288 0.845280 0.195941 -0.198270
C1    C     C_R   0.121944 0.384664 0.498489 0.572202
C2    C     C_R   0.009159 0.578620 0.928897 0.427217
C3    C     C_R   0.009120 0.578710 0.075460 0.426412
C4    C     C_R   0.990871 0.421291 0.924540 0.426395
C5    C     C_R   0.490833 0.921381 0.071104 0.427213
C6    C     C_R   0.509171 0.078620 0.928896 0.427188
C7    C     C_R   0.509141 0.078707 0.075461 0.426380
C8    C     C_R   0.490873 0.921291 0.924540 0.426406
C9    C     C_R   0.776333 0.285390 0.372313 0.155783
C10   C     C_R   0.223672 0.714602 0.627684 0.155769
C11   C     C_R   0.227122 0.708051 0.373428 0.153377
C12   C     C_R   0.878059 0.615339 0.501513 0.572200
C13   C     C_R   0.772869 0.291959 0.626570 0.153374
C14   C     C_R   0.234597 0.303104 0.620658 0.152370
C15   C     C_R   0.765362 0.696842 0.379376 0.152376
C16   C     C_R   0.787430 0.728955 0.627605 0.149354
C17   C     C_R   0.212615 0.271100 0.372382 0.149352
C18   C     C_R   0.276323 0.785404 0.372316 0.155774
C19   C     C_R   0.723671 0.214604 0.627689 0.155786
C20   C     C_R   0.727136 0.208034 0.373433 0.153385
C21   C     C_R   0.272873 0.791955 0.626571 0.153383
C22   C     C_R   0.734638 0.803157 0.620624 0.152371
C23   C     C_R   0.876858 0.386163 0.499696 0.575593
C24   C     C_R   0.265399 0.196889 0.379343 0.152361
C25   C     C_R   0.287380 0.228892 0.627618 0.149357
C26   C     C_R   0.712569 0.771044 0.372396 0.149354
C27   C     C_R   0.194251 0.676901 0.500803 -0.048168
C28   C     C_R   0.805747 0.323100 0.499194 -0.048175
C29   C     C_R   0.807918 0.679204 0.504363 -0.040800
C30   C     C_R   0.192086 0.320799 0.495648 -0.040807
C31   C     C_R   0.694256 0.176895 0.500808 -0.048176
C32   C     C_R   0.305746 0.823103 0.499197 -0.048168
C33   C     C_R   0.307911 0.179196 0.504352 -0.040806
C34   C     C_R   0.123141 0.613838 0.500304 0.575586
C35   C     C_R   0.692081 0.820795 0.495637 -0.040799
C36   C     C_R   0.621940 0.884660 0.498486 0.572198
C37   C     C_R   0.378055 0.115334 0.501511 0.572201
C38   C     C_R   0.376858 0.886163 0.499696 0.575587
C39   C     C_R   0.623142 0.113835 0.500304 0.575595
C40   C     C_R   0.990835 0.421379 0.071104 0.427198
Cu1   Cu    Cu3+1 0.000000 0.500000 0.640660 1.081824
Cu2   Cu    Cu3+1 1.000000 0.500000 0.359340 1.081827
Cu3   Cu    Cu3+1 0.500000 1.000000 0.640660 1.081830
Cu4   Cu    Cu3+1 0.500000 1.000000 0.359340 1.081831
H1    H     H_    0.000647 0.342957 0.228128 0.375922
H2    H     H_    0.999390 0.657036 0.771857 0.375962
H3    H     H_    0.998062 0.658886 0.235906 0.370766
H4    H     H_    0.001948 0.341108 0.764110 0.370760
H5    H     H_    0.500609 0.842962 0.228136 0.375963
H6    H     H_    0.499357 0.157043 0.771875 0.375927
H7    H     H_    0.498041 0.158897 0.235878 0.370730
H8    H     H_    0.501939 0.841113 0.764098 0.370755
N1    N     N_R   1.000000 0.500000 0.852070 -0.327705
N2    N     N_R   1.000000 0.500000 0.147930 -0.327706
N3    N     N_R   0.500000 1.000000 0.852070 -0.327701
N4    N     N_R   0.500000 0.000000 0.147930 -0.327698
O1    O     O_R   0.090170 0.409820 0.618740 -0.504098
O2    O     O_R   0.409830 0.090180 0.381260 -0.504116
O3    O     O_R   0.409830 0.090180 0.618740 -0.501749
O4    O     O_R   0.590170 0.909820 0.381260 -0.501730
O5    O     O_R   0.409830 0.909820 0.381260 -0.487326
O6    O     O_R   0.590170 0.090180 0.618740 -0.487280
O7    O     O_R   0.590170 0.090180 0.381260 -0.488314
O8    O     O_R   0.409830 0.909820 0.618740 -0.488373
O9    O     O_3   0.981926 0.338717 0.131590 -0.557964
O10   O     O_3   0.018051 0.661284 0.868416 -0.557976
O11   O     O_3   0.018569 0.661617 0.140118 -0.565369
O12   O     O_R   0.909830 0.590180 0.381260 -0.504098
O13   O     O_3   0.981401 0.338388 0.859878 -0.565362
O14   O     O_3   0.481936 0.838719 0.131587 -0.557987
O15   O     O_3   0.518076 0.161282 0.868411 -0.557985
O16   O     O_3   0.518635 0.161606 0.140126 -0.565327
O17   O     O_3   0.481416 0.838385 0.859881 -0.565358
O18   O     O_R   0.909830 0.590180 0.618740 -0.501733
O19   O     O_R   0.090170 0.409820 0.381260 -0.501756
O20   O     O_R   0.909830 0.409820 0.381260 -0.487274
O21   O     O_R   0.090170 0.590180 0.618740 -0.487335
O22   O     O_R   0.090170 0.590180 0.381260 -0.488382
O23   O     O_R   0.909830 0.409820 0.618740 -0.488352
O24   O     O_R   0.590170 0.909820 0.618740 -0.504104

loop_
_geom_bond_atom_site_label_1
_geom_bond_atom_site_label_2
_ccdc_geom_bond_type
Br2   C19   S    
Br10  C11   S    
C1    O1    A    
Cu4   O7    S    
C15   C26   A    
C12   O12   A    
C16   C29   A    
C23   O20   A    
C37   O2    A    
C1    O19   A    
C4    C40   A    
C19   C31   A    
C8    O17   S    
H5    O14   S    
C32   C38   S    
H7    O16   S    
Br8   C26   S    
Cu4   N4    S    
C24   C33   A    
Cu3   O6    S    
C20   C31   A    
C2    C3    A    
Cu1   O1    S    
Br16  C18   S    
C10   C27   A    
C14   C25   A    
C16   C22   A    
Cu2   O19   S    
C26   C35   A    
C38   O5    A    
C2    N1    A    
H2    O10   S    
Cu3   Cu4   S    
Cu1   O21   S    
Br5   C22   S    
Br1   C9    S    
C17   C30   A    
C37   O3    A    
C3    O11   S    
C9    C28   A    
C25   C33   A    
C14   C30   A    
Br9   C10   S    
C38   O8    A    
C11   C18   A    
C12   C29   S    
Cu4   O5    S    
C17   C24   A    
Cu1   O18   S    
C5    N4    A    
C35   C36   S    
C40   O9    S    
C1    C30   S    
H4    O13   S    
H6    O15   S    
C39   O6    A    
Cu2   N2    S    
C22   C35   A    
Cu4   O4    S    
H3    O11   S    
Cu2   O12   S    
C39   O7    A    
C4    O13   S    
H8    O17   S    
C34   O21   A    
C6    O15   S    
C21   C32   A    
C23   O23   A    
C40   N2    A    
C7    O16   S    
C13   C28   A    
C15   C29   A    
Br6   C24   S    
C4    N1    A    
C18   C32   A    
Cu3   O24   S    
C27   C34   S    
Cu3   O3    S    
C6    N3    A    
C31   C39   S    
C5    O14   S    
Br12  C14   S    
C7    N4    A    
Br13  C15   S    
C34   O22   A    
Br14  C16   S    
C36   O4    A    
Cu3   O8    S    
C10   C21   A    
C23   C28   S    
C13   C19   A    
Cu2   O22   S    
H1    O9    S    
Cu1   Cu2   S    
Br3   C20   S    
C33   C37   S    
Cu4   O2    S    
C2    O10   S    
C36   O24   A    
Br7   C25   S    
C9    C20   A    
C11   C27   A    
Br4   C21   S    
Br11  C13   S    
Cu1   O23   S    
C5    C8    A    
C6    C7    A    
C3    N2    A    
C12   O18   A    
Cu1   N1    S    
Cu2   O20   S    
Br15  C17   S    
C8    N3    A    
Cu3   N3    S    
