data_mof_unit_37296.cif
_audit_creation_date              2012-12-10T18:03:18-0500
_audit_creation_method            fapswitch 2.2
_symmetry_space_group_name_H-M    P1
_symmetry_Int_Tables_number       1
_space_group_crystal_system       triclinic
_cell_length_a                    10.880345
_cell_length_b                    9.661482
_cell_length_c                    15.173174
_cell_angle_alpha                 87.229686
_cell_angle_beta                  93.660403
_cell_angle_gamma                 87.778302
_cell_volume                      1588.49183905

loop_
_atom_site_label
_atom_site_type_symbol
_atom_type_description
_atom_site_fract_x
_atom_site_fract_y
_atom_site_fract_z
_atom_type_partial_charge
C1    C     C_R   0.261415 0.503809 0.494541 0.818831
C2    C     C_R   0.923032 0.628230 0.467057 0.190812
C3    C     C_R   0.945083 0.379650 0.461637 0.141486
C4    C     C_R   0.050145 0.632350 0.489680 0.157415
C5    C     C_R   0.546203 0.650889 0.095372 0.474574
C6    C     C_R   0.617393 0.461646 0.910362 0.450974
C7    C     C_R   0.424395 0.598024 0.900540 0.445535
C8    C     C_R   0.526886 0.399890 0.094009 0.428285
C9    C     C_R   0.551505 0.641557 0.189141 0.098359
C10   C     C_R   0.594158 0.424377 0.822750 0.091407
C11   C     C_R   0.416639 0.587724 0.807987 0.079391
C12   C     C_R   0.737157 0.498082 0.493209 0.814094
C13   C     C_R   0.539106 0.390636 0.186386 0.101353
C14   C     C_R   0.532582 0.512018 0.233957 -0.294194
C15   C     C_R   0.499718 0.496149 0.768343 -0.286829
C16   C     C_R   0.529116 0.530104 0.048499 -0.084584
C17   C     C_R   0.525447 0.535085 0.951287 -0.102918
C18   C     C_R   0.869710 0.498483 0.476633 -0.220984
C19   C     C_R   0.125452 0.512757 0.478077 -0.186226
C20   C     C_3   0.321285 0.152396 0.298891 -0.618751
C21   C     C_3   0.631925 0.849489 0.717395 -0.670389
C22   C     C_3   0.777026 0.112424 0.637308 -0.623209
C23   C     C_R   0.511452 0.502973 0.330560 0.832530
C24   C     C_3   0.303124 0.820815 0.325479 -0.600907
C25   C     C_3   0.667733 0.795235 0.017740 -0.331238
C26   C     C_3   0.824651 0.476956 0.940847 -0.386304
C27   C     C_3   0.237719 0.595813 0.959918 -0.320862
C28   C     C_3   0.406228 0.240751 0.029783 -0.395024
C29   C     C_3   0.586217 0.894872 0.211956 -0.633830
C30   C     C_3   0.627686 0.178101 0.842774 -0.634662
C31   C     C_3   0.316426 0.811973 0.758032 -0.571747
C32   C     C_3   0.703204 0.242670 0.255681 -0.640428
C33   C     C_3   0.145967 0.449454 0.293831 -0.721712
C34   C     C_R   0.500719 0.497307 0.670398 0.852033
C35   C     C_3   0.814797 0.852754 0.423132 -0.679290
C36   C     C_3   0.995784 0.128992 0.481268 -0.764868
C37   C     C_3   0.069799 0.785859 0.608127 -0.723354
C38   C     C_R   0.419371 0.082159 0.444811 0.228662
C39   C     C_R   0.576784 0.917766 0.558965 0.250349
C40   C     C_R   0.578260 0.067614 0.557251 0.227514
C41   C     C_R   0.414859 0.933425 0.447722 0.237318
C42   C     C_R   0.066100 0.402766 0.438922 0.218553
Cu1   Cu    Cu3+1 0.500000 0.640660 0.500000 0.978706
Cu2   Cu    Cu3+1 0.500000 0.359340 0.500000 0.984912
H1    H     H_    0.243879 0.160550 0.421098 0.251736
H2    H     H_    0.809213 0.027255 0.598131 0.206526
H3    H     H_    0.803930 0.084386 0.707556 0.190557
H4    H     H_    0.823471 0.209141 0.620490 0.265910
H5    H     H_    0.226863 0.930198 0.423032 0.220233
H6    H     H_    0.231203 0.877951 0.281215 0.171369
H7    H     H_    0.278711 0.710966 0.328851 0.228360
H8    H     H_    0.392319 0.830258 0.296302 0.258378
H9    H     H_    0.673561 0.748343 0.952813 0.155978
H10   H     H_    0.744015 0.753698 0.065438 0.144352
H11   H     H_    0.680972 0.907829 0.006412 0.190282
H12   H     H_    0.391957 0.077609 0.278214 0.203261
H13   H     H_    0.831470 0.569332 0.981081 0.160309
H14   H     H_    0.827820 0.508650 0.869442 0.137124
H15   H     H_    0.907395 0.408546 0.959444 0.190198
H16   H     H_    0.264044 0.520638 0.016291 0.138261
H17   H     H_    0.201218 0.540960 0.901494 0.157564
H18   H     H_    0.161767 0.664527 0.980388 0.180942
H19   H     H_    0.360626 0.308699 0.975221 0.162609
H20   H     H_    0.351096 0.241315 0.089212 0.143401
H21   H     H_    0.408647 0.133315 0.007053 0.218109
H22   H     H_    0.678195 0.721865 0.279558 0.274749
H23   H     H_    0.335775 0.254828 0.266422 0.248214
H24   H     H_    0.587413 0.956366 0.271736 0.194157
H25   H     H_    0.496924 0.918666 0.173618 0.256744
H26   H     H_    0.664862 0.925767 0.173495 0.242740
H27   H     H_    0.750981 0.315912 0.792583 0.258766
H28   H     H_    0.651582 0.181774 0.914626 0.294839
H29   H     H_    0.681618 0.088728 0.820756 0.185490
H30   H     H_    0.527911 0.159009 0.831875 0.219195
H31   H     H_    0.292520 0.623312 0.696488 0.251057
H32   H     H_    0.335403 0.857439 0.691865 0.210389
H33   H     H_    0.385465 0.849202 0.807624 0.236247
H34   H     H_    0.228719 0.119634 0.275312 0.189201
H35   H     H_    0.223812 0.849577 0.775249 0.217563
H36   H     H_    0.540609 0.176685 0.198193 0.275410
H37   H     H_    0.756497 0.238057 0.195702 0.233451
H38   H     H_    0.721325 0.144546 0.296225 0.198845
H39   H     H_    0.734996 0.329844 0.295249 0.218810
H40   H     H_    0.047073 0.281225 0.329869 0.259729
H41   H     H_    0.152099 0.401406 0.229116 0.208407
H42   H     H_    0.238853 0.483716 0.314368 0.228453
H43   H     H_    0.079127 0.539786 0.284599 0.214947
H44   H     H_    0.921462 0.732425 0.344359 0.233595
H45   H     H_    0.734292 0.795247 0.609183 0.245146
H46   H     H_    0.853699 0.940287 0.385609 0.204519
H47   H     H_    0.830709 0.866754 0.494239 0.214022
H48   H     H_    0.714257 0.855199 0.406170 0.253320
H49   H     H_    0.824204 0.221428 0.429750 0.274752
H50   H     H_    0.958550 0.040258 0.516430 0.231179
H51   H     H_    0.076448 0.159463 0.523554 0.239731
H52   H     H_    0.025295 0.093226 0.417316 0.206936
H53   H     H_    0.070253 0.839350 0.476480 0.258399
H54   H     H_    0.969237 0.805920 0.611817 0.200910
H55   H     H_    0.117346 0.879676 0.628645 0.227294
H56   H     H_    0.717576 0.883866 0.751391 0.194014
H57   H     H_    0.098471 0.696708 0.654476 0.240810
H58   H     H_    0.613666 0.747549 0.748946 0.236796
H59   H     H_    0.553836 0.922867 0.727325 0.210839
H60   H     H_    0.597416 0.145270 0.678663 0.281822
N1    N     N_R   0.500000 0.852070 0.500000 -0.212581
N2    N     N_2   0.572756 0.260286 0.230692 -0.380304
N3    N     N_2   0.106421 0.348788 0.358985 -0.410949
N4    N     N_2   0.869634 0.722834 0.398808 -0.435847
N5    N     N_2   0.902981 0.241718 0.467119 -0.417920
N6    N     N_2   0.099035 0.756884 0.519043 -0.380783
N7    N     N_R   0.500000 0.147930 0.500000 -0.215444
N8    N     N_2   0.327733 0.164163 0.393848 -0.335856
N9    N     N_2   0.649784 0.834802 0.624520 -0.368035
N10   N     N_2   0.645257 0.137009 0.623315 -0.354505
N11   N     N_2   0.305758 0.872900 0.413197 -0.365173
N12   N     N_2   0.599776 0.749941 0.240216 -0.410032
N13   N     N_2   0.657309 0.305067 0.794287 -0.402356
N14   N     N_2   0.319242 0.661962 0.756458 -0.403736
O1    O     O_R   0.319640 0.618740 0.499990 -0.526309
O2    O     O_3   0.719113 0.404130 0.960787 -0.539513
O3    O     O_3   0.337648 0.678096 0.940413 -0.527249
O4    O     O_3   0.528442 0.279240 0.048294 -0.549921
O5    O     O_R   0.680360 0.381260 0.500010 -0.562106
O6    O     O_R   0.680360 0.618740 0.500010 -0.562970
O7    O     O_R   0.319640 0.381260 0.499990 -0.566743
O8    O     O_R   0.499990 0.618780 0.371460 -0.568810
O9    O     O_R   0.500010 0.381220 0.628540 -0.559359
O10   O     O_R   0.500010 0.618780 0.628540 -0.543936
O11   O     O_R   0.499990 0.381220 0.371460 -0.517026
O12   O     O_3   0.549996 0.778409 0.049835 -0.540263

loop_
_geom_bond_atom_site_label_1
_geom_bond_atom_site_label_2
_ccdc_geom_bond_type
C24   H8    S    
C22   H4    S    
Cu2   O9    S    
C8    C13   A    
C2    C18   A    
C20   H23   S    
C33   N3    S    
C20   H12   S    
C27   O3    S    
H1    N8    S    
C3    C42   A    
C7    C11   A    
C32   H37   S    
C41   N1    A    
C1    O7    A    
C27   H16   S    
Cu1   N1    S    
C30   H30   S    
C28   O4    S    
H36   N2    S    
H40   N3    S    
C23   O11   A    
C3    C18   A    
C39   N1    A    
C1    O1    A    
C32   H39   S    
C33   H41   S    
C5    C16   A    
C35   N4    S    
C27   H17   S    
C20   N8    S    
C4    C19   A    
C11   C15   A    
C40   N10   S    
C34   O9    A    
C39   N9    S    
C42   N3    S    
C15   C34   S    
C19   C42   A    
C35   H48   S    
C24   H7    S    
C22   H3    S    
C8    C16   A    
C32   N2    S    
C13   C14   A    
C25   H9    S    
H31   N14   S    
C7    O3    S    
C25   O12   S    
Cu1   O8    S    
C6    O2    S    
C37   H54   S    
C31   H33   S    
C40   N7    A    
C29   H25   S    
C24   H6    S    
H45   N9    S    
Cu2   O7    S    
C1    C19   S    
Cu1   O1    S    
H27   N13   S    
C25   H10   S    
C38   C41   A    
C21   N9    S    
C39   C40   A    
C9    C14   A    
C16   C17   S    
C7    C17   A    
Cu2   O11   S    
C14   C23   S    
C2    C4    A    
C33   H42   S    
C35   H46   S    
C31   N14   S    
C5    C9    A    
C27   H18   S    
C29   H24   S    
C36   H52   S    
C12   O6    A    
C26   H14   S    
C37   N6    S    
H22   N12   S    
C23   O8    A    
H60   N10   S    
C21   H58   S    
C28   H20   S    
C5    O12   S    
C22   H2    S    
C29   N12   S    
Cu1   Cu2   S    
C41   N11   S    
C38   N8    S    
C37   H55   S    
C29   H26   S    
C26   H15   S    
C30   H29   S    
C6    C17   A    
C4    N6    S    
H5    N11   S    
C21   H56   S    
C9    N12   S    
C25   H11   S    
C26   O2    S    
C13   N2    S    
Cu1   O10   S    
C6    C10   A    
C30   H28   S    
C31   H35   S    
C30   N13   S    
C32   H38   S    
Cu2   O5    S    
C20   H34   S    
C10   C15   A    
C28   H21   S    
C33   H43   S    
C10   N13   S    
C37   H57   S    
H53   N6    S    
C36   H51   S    
C8    O4    S    
C31   H32   S    
C12   O5    A    
C3    N5    S    
H44   N4    S    
C2    N4    S    
C26   H13   S    
C21   H59   S    
Cu2   N7    S    
C36   H50   S    
C22   N10   S    
C24   N11   S    
C34   O10   A    
C12   C18   S    
C36   N5    S    
C28   H19   S    
C38   N7    A    
C11   N14   S    
Cu1   O6    S    
H49   N5    S    
C35   H47   S    
