data_mof_unit_51697.cif
_audit_creation_date              2012-12-10T20:30:11-0500
_audit_creation_method            fapswitch 2.2
_symmetry_space_group_name_H-M    P1
_symmetry_Int_Tables_number       1
_space_group_crystal_system       triclinic
_cell_length_a                    9.946973
_cell_length_b                    10.723277
_cell_length_c                    13.201594
_cell_angle_alpha                 90.13313
_cell_angle_beta                  69.069602
_cell_angle_gamma                 88.584994
_cell_volume                      1314.72623237

loop_
_atom_site_label
_atom_site_type_symbol
_atom_type_description
_atom_site_fract_x
_atom_site_fract_y
_atom_site_fract_z
_atom_type_partial_charge
C1    C     C_R   0.500259 0.739551 0.498111 0.954228
C2    C     C_R   0.469328 0.543441 0.963502 0.064541
C3    C     C_R   0.463626 0.469588 0.876576 -0.027280
C4    C     C_R   0.562740 0.506869 0.018689 -0.073013
C5    C     C_R   0.673636 0.415965 0.970436 -0.047140
C6    C     C_R   0.667294 0.341051 0.884345 0.407841
C7    C     C_R   0.559537 0.364219 0.841026 -0.188137
C8    C     C_R   0.541338 0.548375 0.125414 0.409822
C9    C     C_R   0.769764 0.450535 0.113792 -0.235138
C10   C     C_R   0.365694 0.506409 0.824827 -0.158164
C11   C     C_R   0.409226 0.938173 0.583598 0.210801
C12   C     C_R   0.418632 0.497865 0.705003 0.905702
C13   C     C_R   0.504520 0.871955 0.495409 -0.186361
C14   C     C_R   0.619211 0.934511 0.416970 -0.018379
C15   C     C_R   0.620375 0.064481 0.422958 -0.191543
C16   C     C_R   0.505135 0.129320 0.499750 -0.056037
C17   C     C_R   0.402542 0.065479 0.581316 0.012938
C18   C     C_3   0.240254 0.072216 0.629796 -0.318520
C19   C     C_3   0.250741 0.929449 0.637748 0.079650
C20   C     C_R   0.889474 0.561011 0.579613 0.063899
C21   C     C_R   0.963018 0.433015 0.426044 -0.181467
C22   C     C_R   0.107221 0.433950 0.423217 -0.005349
C23   C     C_R   0.501345 0.260779 0.499736 0.918453
C24   C     C_R   0.031799 0.560897 0.579596 0.187014
C25   C     C_3   0.023378 0.697430 0.601329 -0.630379
C26   C     C_3   0.869537 0.698134 0.603824 0.317680
C27   C     C_R   0.581406 0.504880 0.295395 0.979880
C28   C     C_R   0.786747 0.400173 0.010923 0.386723
C29   C     C_R   0.636493 0.507691 0.175854 -0.169062
C30   C     C_R   0.249204 0.590671 0.879358 -0.150665
C31   C     C_R   0.264884 0.669890 0.959961 0.439874
C32   C     C_R   0.383935 0.653938 0.990495 -0.197287
H1    H     H_    0.703958 0.115628 0.362685 0.189431
H2    H     H_    0.203694 0.877346 0.587680 0.129695
H3    H     H_    0.936040 0.379787 0.366621 0.204142
H4    H     H_    0.034473 0.719872 0.679794 0.225276
H5    H     H_    0.097159 0.745252 0.529211 0.228330
H6    H     H_    0.402130 0.725385 0.041628 0.234299
N1    N     N_R   0.856940 0.500860 0.500710 -0.120062
N2    N     N_R   0.142580 0.500820 0.500710 -0.110267
O1    O     O_R   0.385310 0.683210 0.499990 -0.630999
O2    O     O_R   0.614650 0.683240 0.500000 -0.551207
O3    O     O_R   0.328390 0.499940 0.653610 -0.539728
O4    O     O_R   0.557730 0.499980 0.653620 -0.648261
O5    O     O_R   0.385350 0.316760 0.500000 -0.562098
O6    O     O_R   0.614690 0.316790 0.500010 -0.612108
O7    O     O_R   0.442270 0.500020 0.346380 -0.586384
O8    O     O_R   0.671610 0.500060 0.346390 -0.597225
Zn1   Zn    Zn3+2 0.346870 0.499980 0.499990 1.051820
Zn2   Zn    Zn3+2 0.653130 0.500020 0.500010 1.011472
C33   C     C_2   0.888019 0.442046 0.156928 0.941292
O9    O     O_2   0.941026 0.340604 0.166297 -0.598776
O10   O     O_R   0.938378 0.551765 0.186490 -0.773259
H7    H     H_    0.022546 0.536604 0.211263 0.352056
C34   C     C_2   0.185184 0.149040 0.733835 1.137115
O11   O     O_2   0.189828 0.262558 0.727933 -0.535189
O12   O     O_R   0.129374 0.093609 0.835616 -0.697621
H8    H     H_    0.104783 0.155982 0.897653 0.384443
C35   C     C_2   0.166706 0.108246 0.550575 0.939236
O13   O     O_2   0.210962 0.064362 0.458467 -0.582501
O14   O     O_R   0.044030 0.186821 0.584298 -0.748336
H9    H     H_    0.000682 0.198141 0.526044 0.348635
O15   O     O_3   0.216943 0.882555 0.742297 -0.656648
H10   H     H_    0.110429 0.880138 0.772024 0.399711
C36   C     C_2   0.214122 0.367009 0.328912 0.969283
O16   O     O_2   0.207493 0.380522 0.238862 -0.661425
O17   O     O_R   0.313572 0.280929 0.341570 -0.738957
H11   H     H_    0.377794 0.241072 0.270443 0.341783
C37   C     C_2   0.755005 0.728009 0.712844 0.992662
O18   O     O_2   0.758083 0.676380 0.794567 -0.665014
O19   O     O_R   0.643986 0.814030 0.719876 -0.716388
H12   H     H_    0.572402 0.825038 0.796652 0.356386
O20   O     O_3   0.753074 0.234557 0.850325 -0.682729
H13   H     H_    0.752846 0.189631 0.915961 0.378854
O21   O     O_3   0.851358 0.770405 0.520308 -0.689430
H14   H     H_    0.921807 0.740558 0.449460 0.352215
O22   O     O_3   0.910701 0.335454 0.948276 -0.704277
H15   H     H_    0.991337 0.354601 0.972248 0.363392
O23   O     O_3   0.420928 0.617405 0.187457 -0.743365
H16   H     H_    0.335906 0.578864 0.179383 0.352525
C38   C     C_2   0.116172 0.597413 0.851409 0.935725
O24   O     O_2   0.034844 0.688751 0.876193 -0.597595
O25   O     O_R   0.078977 0.495934 0.801628 -0.707649
H17   H     H_    0.982630 0.508921 0.792621 0.372461
O26   O     O_3   0.168357 0.765185 0.009423 -0.676698
H18   H     H_    0.072035 0.728195 0.039190 0.378003
C39   C     C_2   0.537019 0.265136 0.770713 1.008416
O27   O     O_2   0.419708 0.218003 0.796344 -0.588527
O28   O     O_R   0.650041 0.218337 0.680183 -0.708793
H19   H     H_    0.740119 0.269065 0.661707 0.351251
C40   C     C_2   0.732443 0.870136 0.324461 0.974884
O29   O     O_2   0.706950 0.773571 0.286241 -0.602796
O30   O     O_R   0.867942 0.922651 0.278636 -0.753817
H20   H     H_    0.935802 0.870843 0.216044 0.378213

loop_
_geom_bond_atom_site_label_1
_geom_bond_atom_site_label_2
_ccdc_geom_bond_type
C27   O8    A    
C34   O11   D    
O30   H20   S    
C23   O5    A    
C27   C29   S    
O20   H13   S    
C9    C33   S    
C4    C8    A    
C38   O24   D    
O7    Zn1   S    
O10   H7    S    
C11   C19   S    
C31   O26   S    
C8    C29   A    
C12   O3    A    
C3    C7    A    
O26   H18   S    
C30   C31   A    
O4    Zn2   S    
C15   C16   A    
C2    C32   A    
C18   C19   S    
C37   O19   S    
C25   H5    S    
C7    C39   S    
C20   C24   A    
C19   O15   S    
C16   C17   A    
C36   O17   S    
C8    O23   S    
C32   H6    S    
C9    C29   A    
O8    Zn2   S    
C18   C35   S    
C35   O13   D    
C23   O6    A    
C21   C22   A    
O14   H9    S    
O1    Zn1   S    
C38   O25   S    
C17   C18   S    
C35   O14   S    
O17   H11   S    
C24   C25   S    
C40   O29   D    
C20   N1    A    
O3    Zn1   S    
C25   C26   S    
O22   H15   S    
C33   O9    D    
C33   O10   S    
C2    C4    A    
O21   H14   S    
C22   C36   S    
C40   O30   S    
C5    C28   A    
C10   C30   A    
O25   H17   S    
C21   N1    A    
O5    Zn1   S    
C22   N2    A    
C26   O21   S    
C28   O22   S    
C10   C12   S    
C18   C34   S    
O2    Zn2   S    
C1    O1    A    
C16   C23   S    
C34   O12   S    
O23   H16   S    
C1    C13   S    
C6    O20   S    
C27   O7    A    
C11   C17   A    
C31   C32   A    
C4    C5    A    
C19   H2    S    
C6    C7    A    
C21   H3    S    
O6    Zn2   S    
C30   C38   S    
C39   O28   S    
C2    C3    A    
O19   H12   S    
C12   O4    A    
C3    C10   A    
C11   C13   A    
O12   H8    S    
C5    C6    A    
C20   C26   S    
C24   N2    A    
C37   O18   D    
C14   C40   S    
C25   H4    S    
O15   H10   S    
C1    O2    A    
N1    Zn2   S    
C39   O27   D    
C36   O16   D    
C26   C37   S    
C14   C15   A    
O28   H19   S    
C13   C14   A    
C15   H1    S    
N2    Zn1   S    
C9    C28   A    
