data_mof_unit_6750.cif
_audit_creation_date              2012-12-11T17:07:24-0500
_audit_creation_method            fapswitch 2.2
_symmetry_space_group_name_H-M    P1
_symmetry_Int_Tables_number       1
_space_group_crystal_system       triclinic
_cell_length_a                    6.955185
_cell_length_b                    14.836919
_cell_length_c                    15.837817
_cell_angle_alpha                 90.032294
_cell_angle_beta                  90.172454
_cell_angle_gamma                 90.257931
_cell_volume                      1634.33579346

loop_
_atom_site_label
_atom_site_type_symbol
_atom_type_description
_atom_site_fract_x
_atom_site_fract_y
_atom_site_fract_z
_atom_type_partial_charge
O1    O     O_R   0.505720 0.583900 0.413310 -0.541690
O2    O     O_R   0.175940 0.594920 0.586080 -0.545237
O3    O     O_R   0.005640 0.416100 0.586690 -0.533895
C1    C     C_R   0.345264 0.616759 0.614946 0.697896
O4    O     O_R   0.176000 0.594930 0.413930 -0.545180
O5    O     O_R   0.005700 0.416110 0.413310 -0.542928
C2    C     C_R   0.344926 0.616794 0.385036 0.694549
O6    O     O_R   0.505660 0.583890 0.586690 -0.537428
O7    O     O_3   0.339200 0.441330 0.500000 -0.369921
V1    V     V_3+5 0.064350 0.510880 0.500000 1.381714
O8    O     O_R   0.675980 0.405080 0.413920 -0.542282
C3    C     C_R   0.844765 0.383441 0.384787 0.683770
O9    O     O_R   0.675920 0.405070 0.586070 -0.535166
C4    C     C_R   0.844832 0.386464 0.617090 0.703710
V2    V     V_3+5 0.564340 0.489120 0.500000 1.397946
O10   O     O_3   0.839360 0.558670 0.500000 -0.379557
C5    C     C_R   0.849513 0.432468 0.794817 -0.148481
C6    C     C_R   0.841357 0.457438 0.879600 -0.122526
C7    C     C_R   0.836147 0.391845 0.942050 -0.123790
C8    C     C_R   0.845030 0.301027 0.920213 -0.130978
C9    C     C_R   0.857963 0.273833 0.834564 0.057956
C10   C     C_R   0.853218 0.341092 0.770612 0.068885
C11   C     C_R   0.882272 0.181897 0.812614 -0.189939
C12   C     C_R   0.908317 0.158212 0.725199 0.029688
C13   C     C_R   0.892068 0.226194 0.661653 0.033277
C14   C     C_R   0.858593 0.316703 0.684257 -0.165353
C15   C     C_R   0.953387 0.069291 0.697785 0.279942
C16   C     C_R   0.982595 0.049982 0.612081 -0.164019
C17   C     C_R   0.960870 0.115997 0.551452 -0.198854
C18   C     C_R   0.915087 0.202917 0.575501 -0.137994
H1    H     H_    0.858284 0.485025 0.748086 0.091763
H2    H     H_    0.839971 0.527953 0.897027 0.126506
H3    H     H_    0.845124 0.252827 0.971414 0.087568
H4    H     H_    0.018245 0.982177 0.592322 0.119295
C19   C     C_R   0.729314 0.183137 0.242820 0.030017
C20   C     C_R   0.882110 0.182966 0.185259 -0.103592
C21   C     C_R   0.031710 0.245663 0.199067 -0.161455
H5    H     H_    0.153242 0.247977 0.156743 0.123497
C22   C     C_R   0.019692 0.310242 0.264191 -0.149165
H6    H     H_    0.132738 0.360176 0.270082 0.121036
C23   C     C_R   0.858221 0.313884 0.317772 -0.143747
C24   C     C_R   0.718213 0.246683 0.307704 0.082947
C25   C     C_3   0.505264 0.255193 0.296619 0.141419
C26   C     C_3   0.517979 0.185231 0.226360 -0.381504
H7    H     H_    0.462348 0.322935 0.273359 0.073317
H8    H     H_    0.484698 0.213163 0.162904 0.137782
H9    H     H_    0.446551 0.119785 0.240171 0.175053
C27   C     C_R   0.530636 0.706289 0.722820 0.119755
C28   C     C_R   0.356469 0.686215 0.682145 -0.108154
C29   C     C_R   0.191753 0.732225 0.709611 -0.189962
C30   C     C_R   0.201635 0.791759 0.778468 -0.202203
H10   H     H_    0.071170 0.820521 0.801328 0.141784
C31   C     C_R   0.376705 0.811673 0.819175 -0.108758
C32   C     C_R   0.540192 0.767089 0.790154 0.098354
C33   C     C_3   0.668862 0.706705 0.839811 -0.431735
C34   C     C_3   0.660138 0.641743 0.766334 -0.422098
H11   H     H_    0.813971 0.735843 0.850141 0.167851
H12   H     H_    0.799037 0.635091 0.732826 0.165504
C35   C     C_R   0.503448 0.681829 0.255805 0.086828
C36   C     C_R   0.352811 0.682273 0.314310 -0.144287
C37   C     C_R   0.203146 0.744306 0.300474 -0.141308
C38   C     C_R   0.213964 0.808224 0.234764 -0.172903
H13   H     H_    0.100879 0.857647 0.228932 0.120506
C39   C     C_R   0.375267 0.812445 0.181076 -0.103619
C40   C     C_R   0.515157 0.745566 0.191119 0.032008
C41   C     C_3   0.728224 0.754441 0.199279 -0.390232
C42   C     C_3   0.716031 0.685393 0.270350 0.146937
H14   H     H_    0.770940 0.822628 0.221689 0.130779
H15   H     H_    0.805149 0.731150 0.141945 0.184968
H16   H     H_    0.754116 0.713874 0.333238 0.079129
O11   O     O_R   0.229140 0.916090 0.913340 -0.533671
O12   O     O_R   0.558860 0.905090 0.086080 -0.540969
O13   O     O_R   0.729100 0.083920 0.086690 -0.539118
C43   C     C_R   0.389607 0.882916 0.114792 0.693220
O14   O     O_R   0.558860 0.905090 0.913930 -0.545652
O15   O     O_R   0.729100 0.083920 0.913310 -0.537744
C44   C     C_R   0.388893 0.880636 0.887216 0.688693
O16   O     O_R   0.229140 0.916080 0.086720 -0.540962
O17   O     O_3   0.395570 0.058660 0.000020 -0.369120
V3    V     V_3+5 0.670450 0.989140 0.000000 1.402260
O18   O     O_R   0.058810 0.094980 0.913910 -0.532771
C45   C     C_R   0.890637 0.113692 0.882360 0.795405
O19   O     O_R   0.058810 0.094980 0.086060 -0.545819
C46   C     C_R   0.890171 0.117073 0.114815 0.682980
V4    V     V_3+5 0.170450 0.010950 0.999970 1.419377
O20   O     O_3   0.895460 0.941370 0.999990 -0.371376
H17   H     H_    0.979802 0.099822 0.485324 0.135482
N1    N     N_2   0.392412 0.225654 0.369214 -0.490772
H18   H     H_    0.339353 0.278581 0.404192 0.274943
C47   C     C_3   0.462940 0.152668 0.421629 -0.510380
H19   H     H_    0.349301 0.132196 0.466848 0.193887
H20   H     H_    0.590652 0.175327 0.458216 0.190981
H21   H     H_    0.500739 0.093032 0.382900 0.190942
H22   H     H_    0.053919 0.720330 0.679776 0.133633
H23   H     H_    0.599029 0.680115 0.897843 0.171040
H24   H     H_    0.585296 0.577494 0.781730 0.176129
H25   H     H_    0.082500 0.746667 0.343238 0.122786
N2    N     N_2   0.816582 0.601344 0.252463 -0.487958
H26   H     H_    0.856969 0.567414 0.306394 0.266962
C48   C     C_3   0.743445 0.541398 0.187317 -0.540276
H27   H     H_    0.850473 0.487681 0.175074 0.185216
H28   H     H_    0.718359 0.578307 0.127406 0.199662
H29   H     H_    0.607522 0.509006 0.208458 0.178748
H30   H     H_    0.828760 0.411407 0.007837 0.108618
N3    N     N_2   0.966873 0.997271 0.755238 -0.540487
H31   H     H_    0.092808 0.961941 0.748394 0.249967
C49   C     C_3   0.798245 0.940462 0.754741 -0.537791
H32   H     H_    0.805588 0.895527 0.809816 0.214194
H33   H     H_    0.792388 0.899180 0.696189 0.175323
H34   H     H_    0.665294 0.981438 0.760034 0.198493
H35   H     H_    0.901073 0.251908 0.525376 0.111924

loop_
_geom_bond_atom_site_label_1
_geom_bond_atom_site_label_2
_ccdc_geom_bond_type
C41   H14   S    
C33   C34   S    
C11   C45   S    
C23   C24   A    
O2    C1    A    
C7    C8    A    
C12   C15   A    
O17   V4    S    
C1    O6    A    
O18   C45   A    
C22   C23   A    
C31   C32   A    
C27   C32   A    
N3    C49   S    
C38   H13   S    
C25   N1    S    
C20   C21   A    
O5    C3    A    
C41   H15   S    
C15   N3    S    
V2    O10   S    
N2    H26   S    
C27   C34   S    
C6    C7    A    
C19   C24   A    
V3    O20   S    
C42   N2    S    
C35   C42   S    
O11   V4    S    
O8    V2    S    
C19   C20   A    
C38   C39   A    
C49   H32   S    
O1    V2    S    
C17   C18   A    
O14   V3    S    
O13   C46   A    
C26   H9    S    
N1    H18   S    
C41   C42   S    
C16   H4    S    
C35   C36   A    
O9    C4    A    
C49   H33   S    
C26   H8    S    
C29   C30   A    
C9    C11   A    
C30   H10   S    
C12   C13   A    
O12   C43   A    
O15   C45   A    
C22   H6    S    
O4    C2    A    
C29   H22   S    
C13   C14   A    
V4    O20   S    
C48   H29   S    
C36   C37   A    
C30   C31   A    
C31   C44   S    
C25   C26   S    
C21   H5    S    
C25   H7    S    
C7    H30   S    
C47   H20   S    
O19   C46   A    
C11   C12   A    
C48   H28   S    
C5    C6    A    
C4    C14   S    
C19   C26   S    
O14   C44   A    
O3    C4    A    
C8    H3    S    
O16   V4    S    
C33   H23   S    
C27   C28   A    
O19   V4    S    
N1    C47   S    
C40   C41   S    
O6    V2    S    
N2    C48   S    
C33   H11   S    
C10   C14   A    
C5    H1    S    
C49   H34   S    
C6    H2    S    
C24   C25   S    
O2    V1    S    
C2    C36   S    
O11   C44   A    
C47   H21   S    
O7    V1    S    
C13   C18   A    
C34   H24   S    
C32   C33   S    
C16   C17   A    
O1    C2    A    
C37   H25   S    
O15   V3    S    
O5    V1    S    
O8    C3    A    
C3    C23   S    
N3    H31   S    
C18   H35   S    
C5    C10   A    
C1    C28   S    
C42   H16   S    
C39   C40   A    
O9    V2    S    
O7    V2    S    
O4    V1    S    
C21   C22   A    
O3    V1    S    
V1    O10   S    
C35   C40   A    
C47   H19   S    
C20   C46   S    
C48   H27   S    
O13   V3    S    
C34   H12   S    
C37   C38   A    
C17   H17   S    
O17   V3    S    
C8    C9    A    
O12   V3    S    
C28   C29   A    
C43   O16   A    
C15   C16   A    
C39   C43   S    
C9    C10   A    
O18   V4    S    
