data_mof_unit_57858.cif
_audit_creation_date              2012-10-26T20:17:44-0400
_audit_creation_method            fapswitch 2.2
_symmetry_space_group_name_H-M    P1
_symmetry_Int_Tables_number       1
_space_group_crystal_system       triclinic
_cell_length_a                    27.8077
_cell_length_b                    8.661085
_cell_length_c                    7.427009
_cell_angle_alpha                 103.087606
_cell_angle_beta                  94.197328
_cell_angle_gamma                 92.121911
_cell_volume                      1734.97377149

loop_
_atom_site_label
_atom_site_type_symbol
_atom_type_description
_atom_site_fract_x
_atom_site_fract_y
_atom_site_fract_z
_atom_type_partial_charge
C1    C     C_R   0.498548 0.199571 0.453088 0.555353
C2    C     C_R   0.869389 0.346339 0.413665 0.003816
C3    C     C_R   0.354761 0.504292 0.507622 0.007486
C4    C     C_R   0.645234 0.495597 0.492334 0.006989
C5    C     C_R   0.972341 0.355158 0.419643 -0.027155
C6    C     C_R   0.027574 0.643917 0.577212 -0.024730
C7    C     C_R   0.976416 0.637493 0.581052 0.036582
C8    C     C_R   0.023571 0.361232 0.417291 0.036601
C9    C     C_R   0.948942 0.493633 0.498429 0.030648
C10   C     C_R   0.051013 0.505333 0.499385 0.034511
C11   C     C_R   0.943836 0.212800 0.351046 -0.124767
C12   C     C_R   0.501452 0.800429 0.546912 0.555626
C13   C     C_R   0.055942 0.786799 0.643540 -0.125188
C14   C     C_R   0.893555 0.205100 0.347843 0.254547
C15   C     C_R   0.106268 0.794647 0.647827 0.262155
C16   C     C_R   0.407516 0.500820 0.502590 0.553622
C17   C     C_R   0.592483 0.499163 0.497406 0.554415
C18   C     C_R   0.048508 0.228166 0.332171 -0.108407
C19   C     C_R   0.951627 0.769922 0.668851 -0.108685
C20   C     C_2   0.497844 0.031582 0.426616 -0.146088
C21   C     C_2   0.502155 0.968418 0.573384 -0.145984
C22   C     C_R   0.175910 0.375676 0.428541 0.421004
C23   C     C_R   0.102357 0.510648 0.502544 -0.066692
C24   C     C_R   0.824169 0.623217 0.572612 0.419226
C25   C     C_R   0.181578 0.646643 0.593978 0.433730
C26   C     C_R   0.818325 0.353178 0.403863 0.426082
C27   C     C_R   0.283077 0.514864 0.677248 -0.042643
C28   C     C_R   0.724434 0.494473 0.652275 -0.042431
C29   C     C_R   0.333172 0.511842 0.674566 -0.138184
C30   C     C_R   0.674530 0.498042 0.655551 -0.129220
C31   C     C_R   0.325445 0.500724 0.344102 -0.131806
C32   C     C_R   0.666835 0.489048 0.325603 -0.135564
C33   C     C_R   0.275538 0.504146 0.347289 -0.049740
C34   C     C_R   0.897610 0.488465 0.495910 -0.077301
C35   C     C_R   0.716926 0.485944 0.322847 -0.040508
C36   C     C_R   0.254179 0.510796 0.513453 0.239731
C37   C     C_R   0.745810 0.488868 0.486340 0.238392
C38   C     C_R   0.125583 0.372412 0.422974 0.048877
C39   C     C_R   0.874482 0.626353 0.577439 0.025740
C40   C     C_R   0.098326 0.233681 0.336522 -0.034949
C41   C     C_R   0.901828 0.764529 0.665313 -0.046709
C42   C     C_R   0.130501 0.653202 0.583770 0.009957
Cu1   Cu    Cu3+1 0.505380 0.517380 0.684380 0.968445
Cu2   Cu    Cu3+1 0.494620 0.482620 0.315620 0.967907
H1    H     H_    0.340995 0.495469 0.213491 0.132095
H2    H     H_    0.354887 0.514648 0.802526 0.129375
H3    H     H_    0.746628 0.496506 0.778929 0.139478
H4    H     H_    0.266671 0.519367 0.806028 0.134786
H5    H     H_    0.960036 0.102404 0.302453 0.172116
H6    H     H_    0.039502 0.897386 0.688794 0.158739
H7    H     H_    0.030942 0.117055 0.257546 0.116974
H8    H     H_    0.969376 0.880096 0.745631 0.119354
H9    H     H_    0.493781 0.959621 0.285337 0.136242
H10   H     H_    0.506218 0.040379 0.714663 0.136310
H11   H     H_    0.885174 0.768508 0.211025 0.368434
H12   H     H_    0.645134 0.487112 0.197872 0.130296
H13   H     H_    0.184929 0.105545 0.957921 0.385440
H14   H     H_    0.462224 0.378222 0.948164 0.239790
H15   H     H_    0.537776 0.621778 0.051836 0.240309
H16   H     H_    0.253325 0.501171 0.220388 0.133305
H17   H     H_    0.733338 0.482236 0.194234 0.136701
H18   H     H_    0.115447 0.127483 0.270666 0.206253
H19   H     H_    0.884800 0.870291 0.733048 0.210252
H20   H     H_    0.658964 0.502473 0.785968 0.133416
N1    N     N_R   0.202642 0.510697 0.513982 -0.414134
N2    N     N_R   0.797345 0.488762 0.485704 -0.415820
N3    N     N_2   0.486510 0.456430 0.038510 -0.258126
N4    N     N_2   0.513490 0.543570 0.961490 -0.257881
O1    O     O_R   0.503500 0.286120 0.619780 -0.505460
O2    O     O_2   0.801970 0.754277 0.652855 -0.417697
O3    O     O_2   0.789424 0.227726 0.312314 -0.381670
O4    O     O_2   0.210417 0.772802 0.683885 -0.384279
O5    O     O_2   0.830878 0.982966 0.411589 -0.208020
O6    O     O_2   0.835949 0.000312 0.087760 -0.209741
O7    O     O_3   0.904771 0.870316 0.243981 -0.569758
O8    O     O_2   0.168796 0.016685 0.583127 -0.209457
O9    O     O_2   0.099675 0.114543 0.751154 -0.324677
O10   O     O_3   0.167861 0.999301 0.928464 -0.459152
O11   O     O_R   0.496500 0.713880 0.380220 -0.505424
O12   O     O_R   0.494410 0.256780 0.308360 -0.494275
O13   O     O_R   0.505590 0.743220 0.691640 -0.494057
O14   O     O_R   0.434810 0.514700 0.655690 -0.507614
O15   O     O_R   0.565190 0.485300 0.344310 -0.507242
O16   O     O_R   0.425720 0.485350 0.344280 -0.502865
O17   O     O_R   0.574280 0.514650 0.655720 -0.502219
O18   O     O_2   0.198223 0.244210 0.350486 -0.449765
S1    S     S_3+6 0.864311 0.011944 0.271052 0.039049
S2    S     S_3+6 0.135686 0.987650 0.724608 0.035928

loop_
_geom_bond_atom_site_label_1
_geom_bond_atom_site_label_2
_ccdc_geom_bond_type
C27   H4    S    
C28   H3    S    
C30   H20   S    
C27   C29   A    
Cu2   O15   S    
C24   C39   A    
C24   O2    S    
C39   C41   A    
C23   C42   A    
C17   O17   A    
C35   C37   A    
C14   S1    S    
C5    C11   A    
C21   H10   S    
C11   C14   A    
C22   C38   A    
C12   O11   A    
C16   O16   A    
C33   C36   A    
C40   H18   S    
C3    C29   A    
C18   C40   A    
O5    S1    D    
C19   H8    S    
O9    S2    D    
Cu1   N4    S    
C31   C33   A    
O6    S1    D    
O8    S2    D    
C24   N2    A    
H11   O7    S    
C2    C34   A    
Cu1   O1    S    
C26   O3    S    
C18   H7    S    
N3    N4    D    
Cu1   O17   S    
C32   C35   A    
Cu2   O12   S    
C25   N1    A    
C35   H17   S    
C36   N1    S    
C12   C21   S    
C1    O1    A    
C34   C39   A    
C17   O15   A    
C26   N2    A    
Cu1   Cu2   S    
C22   N1    A    
C5    C9    A    
C11   H5    S    
H15   N4    S    
C37   N2    S    
C16   O14   A    
C2    C26   A    
C25   O4    S    
C3    C31   A    
C4    C32   A    
C4    C17   S    
O7    S1    S    
C33   H16   S    
C7    C19   A    
C13   C15   A    
C9    C34   A    
Cu1   O13   S    
C41   H19   S    
O10   S2    S    
C7    C9    A    
C1    C20   S    
H13   O10   S    
Cu2   O11   S    
C15   C42   A    
C20   H9    S    
Cu2   O16   S    
C25   C42   A    
C6    C10   A    
C5    C8    A    
C6    C7    A    
C10   C23   A    
C23   C38   A    
C29   H2    S    
C27   C36   A    
C28   C30   A    
C6    C13   A    
C38   C40   A    
C28   C37   A    
C12   O13   A    
C22   O18   S    
C2    C14   A    
C8    C18   A    
C13   H6    S    
H14   N3    S    
C20   C21   D    
C8    C10   A    
C31   H1    S    
Cu1   O14   S    
C1    O12   A    
Cu2   N3    S    
C32   H12   S    
C4    C30   A    
C3    C16   S    
C19   C41   A    
C15   S2    S    
