data_mof_unit_50368.cif
_audit_creation_date              2012-12-10T17:09:19-0500
_audit_creation_method            fapswitch 2.2
_symmetry_space_group_name_H-M    P1
_symmetry_Int_Tables_number       1
_space_group_crystal_system       triclinic
_cell_length_a                    18.198129
_cell_length_b                    18.518119
_cell_length_c                    11.733903
_cell_angle_alpha                 89.999909
_cell_angle_beta                  75.934665
_cell_angle_gamma                 90.000016
_cell_volume                      3835.71602776

loop_
_atom_site_label
_atom_site_type_symbol
_atom_type_description
_atom_site_fract_x
_atom_site_fract_y
_atom_site_fract_z
_atom_type_partial_charge
C1    C     C_R   0.397570 0.098552 0.522068 0.838609
C2    C     C_R   0.463618 0.002066 0.038009 -0.073483
C3    C     C_R   0.036382 0.502066 0.961991 -0.073482
C4    C     C_R   0.963618 0.502066 0.038009 -0.073483
C5    C     C_R   0.410352 0.004937 0.865561 -0.034047
C6    C     C_R   0.589648 0.004937 0.134439 -0.034048
C7    C     C_R   0.910352 0.504937 0.865561 -0.034047
C8    C     C_R   0.089648 0.504937 0.134439 -0.034048
C9    C     C_R   0.400767 0.007322 0.987763 -0.351531
C10   C     C_R   0.599233 0.007322 0.012237 -0.351530
C11   C     C_R   0.900767 0.507322 0.987763 -0.351531
C12   C     C_R   0.601490 0.900526 0.477792 0.834877
C13   C     C_R   0.099233 0.507322 0.012237 -0.351530
C14   C     C_R   0.543863 0.998842 0.837658 0.661922
C15   C     C_R   0.456137 0.998842 0.162342 0.661921
C16   C     C_R   0.043863 0.498842 0.837658 0.661921
C17   C     C_R   0.956137 0.498842 0.162342 0.661922
C18   C     C_R   0.663059 0.151803 0.464466 -0.150231
C19   C     C_R   0.340263 0.844801 0.537505 -0.151689
C20   C     C_R   0.336941 0.151803 0.535534 -0.150230
C21   C     C_R   0.659737 0.844801 0.462495 -0.151691
C22   C     C_R   0.163059 0.651803 0.464466 -0.150231
C23   C     C_R   0.602430 0.098553 0.477932 0.838607
C24   C     C_R   0.840263 0.344801 0.537505 -0.151690
C25   C     C_R   0.836941 0.651803 0.535534 -0.150231
C26   C     C_R   0.159737 0.344801 0.462495 -0.151689
C27   C     C_R   0.225562 0.787912 0.650751 -0.270894
C28   C     C_R   0.779775 0.206374 0.353483 -0.276717
C29   C     C_R   0.774436 0.787911 0.349248 -0.270892
C30   C     C_R   0.220224 0.206374 0.646516 -0.276718
C31   C     C_R   0.725563 0.287912 0.650751 -0.270893
C32   C     C_R   0.279776 0.706374 0.353484 -0.276718
C33   C     C_R   0.274438 0.287913 0.349249 -0.270894
C34   C     C_R   0.398510 0.900526 0.522208 0.834880
C35   C     C_R   0.720225 0.706374 0.646517 -0.276717
C36   C     C_R   0.284020 0.837947 0.643901 0.501542
C37   C     C_R   0.718991 0.159355 0.357911 0.499656
C38   C     C_R   0.715979 0.837947 0.356098 0.501542
C39   C     C_R   0.281009 0.159355 0.642088 0.499656
C40   C     C_R   0.784020 0.337947 0.643902 0.501541
C41   C     C_R   0.218991 0.659355 0.357912 0.499656
C42   C     C_R   0.215980 0.337948 0.356099 0.501542
C43   C     C_R   0.781010 0.659355 0.642089 0.499656
C44   C     C_R   0.340613 0.798202 0.443823 -0.348612
C45   C     C_R   0.897570 0.598552 0.522068 0.838608
C46   C     C_R   0.665794 0.194678 0.561473 -0.296602
C47   C     C_R   0.659387 0.798203 0.556178 -0.348611
C48   C     C_R   0.334206 0.194678 0.438527 -0.296603
C49   C     C_R   0.840613 0.298203 0.443823 -0.348612
C50   C     C_R   0.165794 0.694678 0.561473 -0.296602
C51   C     C_R   0.159387 0.298202 0.556177 -0.348612
C52   C     C_R   0.834205 0.694678 0.438526 -0.296602
C53   C     C_R   0.282099 0.749093 0.450541 0.106531
C54   C     C_R   0.724263 0.243855 0.554713 0.099746
C55   C     C_R   0.717901 0.749093 0.549459 0.106530
C56   C     C_R   0.101490 0.400526 0.477792 0.834879
C57   C     C_R   0.275737 0.243856 0.445287 0.099747
C58   C     C_R   0.782099 0.249093 0.450541 0.106530
C59   C     C_R   0.224263 0.743855 0.554713 0.099747
C60   C     C_R   0.217901 0.249093 0.549459 0.106530
C61   C     C_R   0.775736 0.743855 0.445287 0.099745
C62   C     C_3   0.349944 0.930355 0.235039 -0.293327
C63   C     C_3   0.650057 0.930356 0.764961 -0.293329
C64   C     C_3   0.849943 0.430356 0.235040 -0.293329
C65   C     C_3   0.150056 0.430355 0.764961 -0.293329
C66   C     C_3   0.701549 0.159590 0.172495 -0.320384
C67   C     C_R   0.102430 0.598553 0.477932 0.838608
C68   C     C_3   0.299516 0.846441 0.830103 -0.310081
C69   C     C_3   0.298449 0.159588 0.827505 -0.320385
C70   C     C_3   0.700476 0.846440 0.169901 -0.310082
C71   C     C_3   0.201551 0.659589 0.172495 -0.320382
C72   C     C_3   0.799518 0.346441 0.830102 -0.310081
C73   C     C_3   0.798453 0.659591 0.827504 -0.320385
C74   C     C_3   0.200483 0.346442 0.169898 -0.310079
C75   C     C_R   0.898510 0.400526 0.522208 0.834879
C76   C     C_R   0.536382 0.002066 0.961991 -0.073484
Cu1   Cu    Cu3+1 0.507800 0.000000 0.383250 0.998964
Cu2   Cu    Cu3+1 0.492200 1.000000 0.616750 0.998966
Cu3   Cu    Cu3+1 0.007800 0.500000 0.383250 0.998965
Cu4   Cu    Cu3+1 0.992200 0.500000 0.616750 0.998965
H1    H     H_    0.621997 0.190074 0.642455 0.175440
H2    H     H_    0.324758 0.709833 0.273870 0.144777
H3    H     H_    0.319618 0.284718 0.269857 0.147295
H4    H     H_    0.675243 0.709835 0.726131 0.144777
H5    H     H_    0.180382 0.784718 0.730143 0.147295
H6    H     H_    0.824757 0.209834 0.273869 0.144777
H7    H     H_    0.819616 0.784716 0.269855 0.147297
H8    H     H_    0.175242 0.209833 0.726130 0.144777
H9    H     H_    0.344107 0.015116 0.041412 0.183137
H10   H     H_    0.655893 0.015117 0.958588 0.183137
H11   H     H_    0.844107 0.515117 0.041412 0.183137
H12   H     H_    0.385902 0.801057 0.364618 0.161585
H13   H     H_    0.155893 0.515116 0.958588 0.183136
H14   H     H_    0.638671 0.007751 0.170957 0.216487
H15   H     H_    0.361328 0.007751 0.829043 0.216486
H16   H     H_    0.138671 0.507751 0.170957 0.216486
H17   H     H_    0.861328 0.507751 0.829043 0.216487
H18   H     H_    0.310886 0.920235 0.321945 0.204023
H19   H     H_    0.390862 0.884605 0.214978 0.131691
H20   H     H_    0.314095 0.930242 0.171243 0.139669
H21   H     H_    0.689113 0.920236 0.678055 0.204023
H22   H     H_    0.609138 0.884606 0.785024 0.131691
H23   H     H_    0.378003 0.190074 0.357545 0.175439
H24   H     H_    0.685906 0.930243 0.828756 0.139670
H25   H     H_    0.810886 0.420236 0.321946 0.204023
H26   H     H_    0.890861 0.384606 0.214977 0.131691
H27   H     H_    0.814094 0.430243 0.171244 0.139669
H28   H     H_    0.189113 0.420235 0.678056 0.204023
H29   H     H_    0.109137 0.384605 0.785023 0.131692
H30   H     H_    0.185904 0.430241 0.828758 0.139669
H31   H     H_    0.746245 0.200754 0.140165 0.143718
H32   H     H_    0.645194 0.186005 0.202653 0.163174
H33   H     H_    0.699530 0.124717 0.096549 0.183667
H34   H     H_    0.614099 0.801057 0.635383 0.161585
H35   H     H_    0.356504 0.820911 0.802743 0.160214
H36   H     H_    0.255774 0.805149 0.866644 0.145636
H37   H     H_    0.300753 0.884864 0.902078 0.179466
H38   H     H_    0.253753 0.200751 0.859835 0.143718
H39   H     H_    0.354805 0.186004 0.797349 0.163174
H40   H     H_    0.300469 0.124715 0.903451 0.183667
H41   H     H_    0.643485 0.820917 0.197265 0.160219
H42   H     H_    0.744212 0.805141 0.133363 0.145633
H43   H     H_    0.699245 0.884862 0.097921 0.179466
H44   H     H_    0.246249 0.700752 0.140163 0.143717
H45   H     H_    0.121997 0.690074 0.642455 0.175439
H46   H     H_    0.145196 0.686005 0.202651 0.163173
H47   H     H_    0.199532 0.624715 0.096549 0.183667
H48   H     H_    0.856507 0.320912 0.802741 0.160215
H49   H     H_    0.755777 0.305147 0.866642 0.145636
H50   H     H_    0.800754 0.384863 0.902079 0.179466
H51   H     H_    0.753757 0.700755 0.859834 0.143718
H52   H     H_    0.854809 0.686005 0.797345 0.163175
H53   H     H_    0.800472 0.624718 0.903451 0.183667
H54   H     H_    0.143494 0.320913 0.197259 0.160215
H55   H     H_    0.244224 0.305149 0.133358 0.145635
H56   H     H_    0.885901 0.301057 0.364618 0.161586
H57   H     H_    0.199247 0.384865 0.097922 0.179465
H58   H     H_    0.878002 0.690073 0.357544 0.175440
H59   H     H_    0.114098 0.301057 0.635382 0.161585
H60   H     H_    0.680382 0.284717 0.730144 0.147295
N1    N     N_R   0.519530 1.000000 0.207810 -0.220702
N2    N     N_R   0.480470 0.000000 0.792190 -0.220702
N3    N     N_R   0.019530 0.500000 0.207810 -0.220701
N4    N     N_R   0.980470 0.500000 0.792190 -0.220702
O1    O     O_R   0.430030 0.075530 0.417420 -0.556979
O2    O     O_R   0.583140 0.924490 0.385390 -0.554233
O3    O     O_R   0.583140 0.075510 0.385390 -0.558570
O4    O     O_R   0.416860 0.924490 0.614610 -0.554231
O5    O     O_R   0.916860 0.575510 0.614610 -0.558570
O6    O     O_R   0.083140 0.424490 0.385390 -0.554232
O7    O     O_R   0.083140 0.575510 0.385390 -0.558570
O8    O     O_R   0.916860 0.424490 0.614610 -0.554232
O9    O     O_3   0.385030 0.998277 0.239079 -0.562454
O10   O     O_3   0.614970 0.998278 0.760921 -0.562454
O11   O     O_3   0.885030 0.498278 0.239079 -0.562454
O12   O     O_R   0.569970 0.924470 0.582580 -0.574554
O13   O     O_3   0.114970 0.498277 0.760921 -0.562454
O14   O     O_3   0.718094 0.116170 0.262001 -0.559326
O15   O     O_3   0.281844 0.884957 0.736411 -0.557412
O16   O     O_3   0.281905 0.116169 0.737999 -0.559326
O17   O     O_3   0.718154 0.884956 0.263587 -0.557412
O18   O     O_3   0.218095 0.616169 0.262002 -0.559325
O19   O     O_3   0.781845 0.384957 0.736411 -0.557412
O20   O     O_3   0.781907 0.616170 0.738000 -0.559326
O21   O     O_3   0.218156 0.384958 0.263589 -0.557412
O22   O     O_R   0.569970 0.075530 0.582580 -0.556979
O23   O     O_R   0.430030 0.924470 0.417420 -0.574554
O24   O     O_R   0.930030 0.575530 0.417420 -0.556979
O25   O     O_R   0.069970 0.424470 0.582580 -0.574554
O26   O     O_R   0.069970 0.575530 0.582580 -0.556979
O27   O     O_R   0.930030 0.424470 0.417420 -0.574554
O28   O     O_R   0.416860 0.075510 0.614610 -0.558571

loop_
_geom_bond_atom_site_label_1
_geom_bond_atom_site_label_2
_ccdc_geom_bond_type
C47   H34   S    
C73   H51   S    
C8    C13   A    
C71   O18   S    
C25   C45   S    
C39   O16   S    
C1    O1    A    
C8    H16   S    
Cu4   O26   S    
C63   H21   S    
C25   C43   A    
C14   N2    A    
C53   C59   A    
C72   H49   S    
Cu1   Cu2   S    
C7    C11   A    
C64   O11   S    
C72   H48   S    
C50   C59   A    
C47   C55   A    
C66   H33   S    
C18   C37   A    
C73   O20   S    
C52   C61   A    
Cu2   N2    S    
C56   O25   A    
C22   C41   A    
C12   O2    A    
C23   O22   A    
C55   C61   A    
C69   H38   S    
C69   O16   S    
C31   C40   A    
Cu3   O27   S    
C27   H5    S    
C36   O15   S    
C15   N1    A    
C10   C76   A    
C70   H43   S    
C38   O17   S    
Cu3   N3    S    
C21   C38   A    
C6    H14   S    
C30   C60   A    
C29   C38   A    
C52   H58   S    
C32   C41   A    
C71   H46   S    
Cu3   O24   S    
C68   O15   S    
C35   C43   A    
Cu1   O3    S    
C65   H28   S    
C3    C13   A    
C42   O21   S    
Cu2   O4    S    
C22   C50   A    
C43   O20   S    
C73   H52   S    
C62   H18   S    
C41   O18   S    
C14   O10   S    
C71   H47   S    
C34   O4    A    
Cu4   O25   S    
C12   O12   A    
C63   H22   S    
C18   C46   A    
C7    N4    A    
C5    H15   S    
C67   O26   A    
Cu4   O5    S    
C65   H30   S    
C74   H57   S    
C29   C61   A    
Cu2   O22   S    
C29   H7    S    
C67   O7    A    
C18   C23   S    
C71   H44   S    
C48   C57   A    
C40   O19   S    
C65   O13   S    
C16   N4    A    
C9    H9    S    
C20   C39   A    
C57   C60   A    
Cu4   N4    S    
C19   C36   A    
C48   H23   S    
C23   O3    A    
C12   C21   S    
C69   H39   S    
C35   C55   A    
C49   C58   A    
C62   H19   S    
C13   H13   S    
C4    C11   A    
C14   C76   A    
C37   O14   S    
C5    C9    A    
C68   H37   S    
C46   H1    S    
C70   H42   S    
C75   O8    A    
C74   H55   S    
C46   C54   A    
Cu2   O28   S    
C44   C53   A    
C50   H45   S    
C6    N1    A    
C64   H26   S    
C2    C15   A    
C33   H3    S    
C65   H29   S    
C20   C48   A    
C68   H36   S    
Cu3   O6    S    
C62   H20   S    
C4    C17   A    
C49   H56   S    
C73   H53   S    
C44   H12   S    
C75   O27   A    
C66   H31   S    
C33   C42   A    
C56   O6    A    
C34   O23   A    
C17   O11   S    
C70   O17   S    
Cu1   O1    S    
C32   C53   A    
C66   O14   S    
C2    C76   A    
C19   C44   A    
C26   C42   A    
C64   H27   S    
Cu3   O7    S    
C54   C58   A    
C24   C49   A    
Cu4   O8    S    
C1    C20   S    
C33   C57   A    
C7    H17   S    
C64   H25   S    
C16   O13   S    
C63   O10   S    
C63   H24   S    
C19   C34   S    
C26   C56   S    
C6    C10   A    
C35   H4    S    
C24   C75   S    
C72   H50   S    
C28   C58   A    
C27   C36   A    
Cu1   O23   S    
C32   H2    S    
C69   H40   S    
C62   O9    S    
C17   N3    A    
C25   C52   A    
C27   C59   A    
C26   C51   A    
C28   H6    S    
C70   H41   S    
Cu2   O12   S    
C5    N2    A    
C28   C37   A    
C74   H54   S    
C24   C40   A    
C72   O19   S    
C30   C39   A    
C8    N3    A    
C45   O5    A    
C31   C54   A    
C45   O24   A    
Cu1   N1    S    
C22   C67   S    
C15   O9    S    
C68   H35   S    
Cu3   Cu4   S    
C11   H11   S    
C10   H10   S    
C1    O28   A    
C51   C60   A    
C66   H32   S    
C31   H60   S    
C2    C9    A    
C30   H8    S    
Cu1   O2    S    
C74   O21   S    
C3    C16   A    
C3    C4    A    
C21   C47   A    
C51   H59   S    
