data_mof_unit_43777.cif
_audit_creation_date              2012-12-10T17:43:17-0500
_audit_creation_method            fapswitch 2.2
_symmetry_space_group_name_H-M    P1
_symmetry_Int_Tables_number       1
_space_group_crystal_system       triclinic
_cell_length_a                    15.062752
_cell_length_b                    13.867793
_cell_length_c                    10.676077
_cell_angle_alpha                 89.428344
_cell_angle_beta                  88.712431
_cell_angle_gamma                 90.182023
_cell_volume                      2229.40809666

loop_
_atom_site_label
_atom_site_type_symbol
_atom_type_description
_atom_site_fract_x
_atom_site_fract_y
_atom_site_fract_z
_atom_type_partial_charge
C1    C     C_R   0.329145 0.499986 0.497794 0.853969
C2    C     C_R   0.670855 0.500014 0.502206 0.853973
C3    C     C_R   0.953185 0.499302 0.501842 0.070913
C4    C     C_R   0.046815 0.500699 0.498158 0.070912
C5    C     C_R   0.906405 0.553531 0.412734 0.120304
C6    C     C_R   0.093594 0.446469 0.587266 0.120305
C7    C     C_R   0.955433 0.392037 0.683846 -0.213937
C8    C     C_R   0.044567 0.607963 0.316155 -0.213937
C9    C     C_R   0.047693 0.393030 0.679595 -0.186650
C10   C     C_R   0.952307 0.606971 0.320406 -0.186651
C11   C     C_R   0.441662 0.793253 0.577321 0.123938
C12   C     C_R   0.558338 0.206746 0.422679 0.123940
C13   C     C_R   0.559555 0.794955 0.424746 0.156837
C14   C     C_R   0.440446 0.205045 0.575256 0.156839
C15   C     C_R   0.560113 0.897695 0.422653 -0.044816
C16   C     C_R   0.439888 0.102305 0.577349 -0.044807
C17   C     C_R   0.440177 0.896042 0.577950 -0.033545
C18   C     C_R   0.559823 0.103958 0.422051 -0.033545
C19   C     C_R   0.499927 0.948359 0.499930 0.083167
C20   C     C_R   0.500073 0.051641 0.500071 0.083162
C21   C     C_R   0.620061 0.951263 0.345848 -0.182259
C22   C     C_R   0.379940 0.048737 0.654153 -0.182251
C23   C     C_R   0.380121 0.948052 0.654506 -0.168565
C24   C     C_R   0.619879 0.051948 0.345495 -0.168558
C25   C     C_R   0.498576 0.500655 0.259852 0.912666
C26   C     C_R   0.501424 0.499345 0.740148 0.912660
C27   C     C_3   0.486615 0.590548 0.036904 -0.026346
C28   C     C_3   0.513385 0.409452 0.963096 -0.026350
C29   C     C_3   0.566217 0.556133 0.956978 -0.047315
C30   C     C_3   0.433783 0.443867 0.043022 -0.047319
C31   C     C_3   0.422198 0.532429 0.955548 -0.243807
C32   C     C_3   0.577803 0.467571 0.044452 -0.243809
C33   C     C_3   0.502636 0.497777 0.876460 -0.033482
C34   C     C_3   0.497365 0.502223 0.123539 -0.033484
C35   C     C_R   0.814203 0.553287 0.416180 -0.296304
C36   C     C_R   0.185797 0.446714 0.583821 -0.296305
C37   C     C_R   0.767411 0.499839 0.507235 -0.060185
C38   C     C_R   0.232589 0.500162 0.492765 -0.060183
C39   C     C_R   0.812690 0.444427 0.597559 -0.075925
C40   C     C_R   0.187310 0.555573 0.402441 -0.075925
C41   C     C_R   0.906583 0.444044 0.594694 0.027298
C42   C     C_R   0.093417 0.555957 0.405307 0.027298
Cu1   Cu    Cu3+1 0.500000 0.597420 0.500000 1.026929
Cu2   Cu    Cu3+1 0.500000 0.402580 0.500000 1.026925
H1    H     H_    0.358299 0.558654 0.918292 0.179502
H2    H     H_    0.641701 0.441346 0.081708 0.179500
H3    H     H_    0.778376 0.593066 0.345578 0.144300
H4    H     H_    0.221624 0.406935 0.654423 0.144293
H5    H     H_    0.923421 0.350536 0.758306 0.139680
H6    H     H_    0.076579 0.649464 0.241694 0.139680
H7    H     H_    0.083304 0.351921 0.749139 0.147852
H8    H     H_    0.916696 0.648080 0.250862 0.147852
H9    H     H_    0.667839 0.915998 0.284686 0.156219
H10   H     H_    0.332162 0.084002 0.715315 0.156228
H11   H     H_    0.332168 0.911575 0.715433 0.159974
H12   H     H_    0.667832 0.088425 0.284567 0.159973
N1    N     N_R   0.500000 0.743810 0.500000 -0.236193
N2    N     N_R   0.500000 0.256190 0.500000 -0.236197
O1    O     O_R   0.370260 0.582280 0.500030 -0.618091
O2    O     O_R   0.629740 0.417720 0.499970 -0.618091
O3    O     O_R   0.629740 0.582280 0.499970 -0.586551
O4    O     O_R   0.370260 0.417720 0.500030 -0.586559
O5    O     O_R   0.499980 0.582260 0.316850 -0.544436
O6    O     O_R   0.500020 0.417740 0.683150 -0.544444
O7    O     O_R   0.500020 0.582260 0.683150 -0.547334
O8    O     O_R   0.499980 0.417740 0.316850 -0.547335
C43   C     C_2   0.470685 0.693747 0.070915 0.567029
H13   H     H_    0.516110 0.749376 0.036791 0.071607
O9    O     O_2   0.406026 0.716198 0.134717 -0.506075
C44   C     C_2   0.529315 0.306253 0.929086 0.567029
H14   H     H_    0.483895 0.250623 0.963221 0.071615
O10   O     O_2   0.593970 0.283803 0.865274 -0.506073
C45   C     C_2   0.642407 0.619532 0.915394 0.410736
H15   H     H_    0.682295 0.654450 0.985175 0.072955
O11   O     O_2   0.660019 0.632422 0.804420 -0.500106
C46   C     C_2   0.357594 0.380468 0.084606 0.410735
H16   H     H_    0.317705 0.345549 0.014825 0.072958
O12   O     O_2   0.339981 0.367579 0.195580 -0.500106
C47   C     C_2   0.762299 0.389628 0.696079 0.407713
H17   H     H_    0.780763 0.316332 0.720088 0.071570
O13   O     O_2   0.700783 0.427129 0.753274 -0.496380
C48   C     C_2   0.237701 0.610372 0.303920 0.407712
H18   H     H_    0.219237 0.683668 0.279912 0.071571
O14   O     O_2   0.299217 0.572872 0.246727 -0.496380
C49   C     C_2   0.381348 0.740027 0.664054 0.412967
H19   H     H_    0.319035 0.711511 0.631519 0.053835
O15   O     O_2   0.398296 0.733893 0.775102 -0.569458
C50   C     C_2   0.618650 0.259973 0.335944 0.412966
H20   H     H_    0.680963 0.288490 0.368478 0.053837
O16   O     O_2   0.601702 0.266105 0.224897 -0.569463
C51   C     C_2   0.629027 0.743954 0.352881 0.401622
H21   H     H_    0.692449 0.730626 0.395568 0.059336
O17   O     O_2   0.618789 0.723695 0.243357 -0.615155
C52   C     C_2   0.370976 0.256046 0.647125 0.401617
H22   H     H_    0.307557 0.269385 0.604436 0.059346
O18   O     O_2   0.381212 0.276291 0.756653 -0.615158

loop_
_geom_bond_atom_site_label_1
_geom_bond_atom_site_label_2
_ccdc_geom_bond_type
C38   C40   A    
C27   C29   S    
C45   H15   S    
Cu2   O8    S    
C19   C20   A    
C9    H7    S    
C10   H8    S    
C1    O4    A    
C6    C9    A    
Cu1   O5    S    
C39   C41   A    
C49   H19   S    
Cu2   O6    S    
C15   C19   A    
C17   C23   A    
C18   C24   A    
C35   C37   A    
C46   O12   D    
C29   C32   S    
C1    O1    A    
C30   C31   S    
C2    O2    A    
C29   C45   S    
C29   C33   S    
C25   O5    A    
C26   O6    A    
C11   C17   A    
Cu2   N2    S    
C31   C33   S    
C44   H14   S    
C2    O3    A    
Cu1   O1    S    
C25   C34   S    
C11   C49   S    
C12   N2    A    
C40   C42   A    
C35   H3    S    
C13   C51   S    
C45   O11   D    
C49   O15   D    
C27   C34   S    
C14   N2    A    
C12   C50   S    
C27   C31   S    
C43   H13   S    
Cu1   O7    S    
C40   C48   S    
C28   C32   S    
C46   H16   S    
C7    H5    S    
C4    C6    A    
C51   H21   S    
C47   O13   D    
C30   C34   S    
Cu2   O4    S    
C43   O9    D    
C32   C34   S    
Cu1   Cu2   S    
C51   O17   D    
C30   C46   S    
C26   C33   S    
C16   C20   A    
C52   O18   D    
C1    C38   S    
C50   O16   D    
C28   C33   S    
C48   O14   D    
C22   H10   S    
C13   C15   A    
C14   C16   A    
C3    C4    A    
C8    H6    S    
Cu1   O3    S    
C7    C9    A    
C3    C41   A    
C16   C22   A    
C26   O7    A    
C32   H2    S    
C28   C44   S    
C25   O8    A    
C8    C42   A    
C3    C5    A    
C23   H11   S    
C24   H12   S    
C28   C30   S    
C5    C10   A    
C37   C39   A    
C21   H9    S    
C2    C37   S    
C4    C42   A    
Cu2   O2    S    
C5    C35   A    
C36   C38   A    
C17   C19   A    
C6    C36   A    
C36   H4    S    
C18   C20   A    
C7    C41   A    
C52   H22   S    
C27   C43   S    
Cu1   N1    S    
C47   H17   S    
C15   C21   A    
C13   N1    A    
C50   H20   S    
C8    C10   A    
C48   H18   S    
C31   H1    S    
C21   C24   A    
C12   C18   A    
C22   C23   A    
C44   O10   D    
C11   N1    A    
C14   C52   S    
C39   C47   S    
