data_mof_unit_60409.cif
_audit_creation_date              2012-12-10T16:50:36-0500
_audit_creation_method            fapswitch 2.2
_symmetry_space_group_name_H-M    P1
_symmetry_Int_Tables_number       1
_space_group_crystal_system       triclinic
_cell_length_a                    18.810889
_cell_length_b                    18.917786
_cell_length_c                    18.645725
_cell_angle_alpha                 109.189703
_cell_angle_beta                  108.979729
_cell_angle_gamma                 109.659288
_cell_volume                      5144.23692453

loop_
_atom_site_label
_atom_site_type_symbol
_atom_type_description
_atom_site_fract_x
_atom_site_fract_y
_atom_site_fract_z
_atom_type_partial_charge
C1    C     C_R   0.383841 0.381255 0.503310 0.967087
C2    C     C_R   0.593294 0.343285 0.621330 -0.206552
C3    C     C_2   0.262045 0.249238 0.581082 0.669601
C4    C     C_R   0.619600 0.500724 0.619565 0.867413
C5    C     C_2   0.182722 0.197123 0.510854 -0.499301
C6    C     C_2   0.325095 0.323524 0.584529 0.075736
C7    C     C_2   0.325026 0.314578 0.509762 -0.417433
C8    C     C_2   0.174205 0.499689 0.257400 0.070586
C9    C     C_2   0.183797 0.510379 0.192404 -0.413823
C10   C     C_2   0.249131 0.512187 0.328881 0.669134
C11   C     C_2   0.303437 0.487065 0.312185 -0.517974
C12   C     C_R   0.759313 0.580372 0.753116 0.069497
C13   C     C_2   0.743532 0.825421 0.501481 -0.334101
C14   C     C_2   0.819905 0.829237 0.518495 0.489938
C15   C     C_2   0.681553 0.761541 0.509972 -0.094330
C16   C     C_R   0.613750 0.618176 0.493612 0.879993
C17   C     C_2   0.661308 0.678328 0.471351 0.074488
C18   C     C_R   0.995463 0.381514 0.875626 0.822196
C19   C     C_R   0.877645 0.500020 0.877239 0.869744
C20   C     C_R   0.998096 0.618345 0.117969 0.841313
C21   C     C_R   0.116537 0.502555 0.119392 0.971358
C22   C     C_R   0.996311 0.115512 0.618651 0.893917
C23   C     C_R   0.812034 0.500437 0.811618 -0.169602
C24   C     C_R   0.118713 0.121933 0.502668 0.986733
C25   C     C_R   0.003320 0.884225 0.381221 0.952769
C26   C     C_R   0.881708 0.885031 0.504685 0.796560
C27   C     C_2   0.916870 0.173817 0.678225 0.244287
C28   C     C_R   0.377720 0.497220 0.379846 0.985754
C29   C     C_2   0.990561 0.173426 0.686674 -0.215927
C30   C     C_2   0.921934 0.237794 0.752950 -0.328020
C31   C     C_2   0.988608 0.318761 0.800396 0.437059
C32   C     C_2   0.078230 0.817910 0.324235 0.712317
C33   C     C_2   0.008256 0.826538 0.312466 -0.376902
C34   C     C_R   0.740428 0.420728 0.740117 0.032251
C35   C     C_2   0.075455 0.756257 0.249806 -0.400533
C36   C     C_2   0.003183 0.679935 0.192453 0.386683
C37   C     C_R   0.775024 0.659895 0.754717 -0.128405
C38   C     C_R   0.843480 0.737847 0.827172 -0.118243
C39   C     C_R   0.897191 0.738319 0.899139 -0.140377
C40   C     C_R   0.885603 0.660693 0.896691 -0.139201
C41   C     C_R   0.819547 0.580445 0.821185 0.078672
C42   C     C_3   0.498750 0.183957 0.544469 -0.869485
C43   C     C_3   0.390649 0.403875 0.671669 -0.723572
C44   C     C_3   0.091947 0.481106 0.262678 -0.708994
C45   C     C_R   0.672212 0.421689 0.682111 0.029650
C46   C     C_3   0.678972 0.640478 0.397563 -0.740341
C47   C     C_3   0.829397 0.108157 0.598646 -0.840448
C48   C     C_3   0.655123 0.178436 0.651698 -0.920236
C49   C     C_R   0.684638 0.501025 0.685999 -0.168867
C50   C     C_R   0.734815 0.340069 0.725360 -0.185084
C51   C     C_R   0.658079 0.262004 0.662203 0.251622
C52   C     C_R   0.585350 0.263941 0.611257 0.231940
F1    F     F_    0.260226 0.546327 0.410975 -0.633971
F2    F     F_    0.844510 0.784361 0.555778 -0.643024
F3    F     F_    0.047463 0.346871 0.774571 -0.644248
F4    F     F_    0.152921 0.868269 0.402019 -0.633819
F5    F     F_    0.935966 0.652925 0.208477 -0.650021
F6    F     F_    0.284835 0.235752 0.650529 -0.636218
H1    H     H_    0.162098 0.212901 0.459476 0.129191
H2    H     H_    0.953380 0.793752 0.247360 0.160852
H3    H     H_    0.133321 0.772771 0.243236 0.162471
H4    H     H_    0.853854 0.798053 0.828033 0.148760
H5    H     H_    0.948691 0.798944 0.956652 0.141906
H6    H     H_    0.928423 0.664947 0.954989 0.152388
H7    H     H_    0.790152 0.336707 0.762211 0.156498
H8    H     H_    0.536256 0.342679 0.581500 0.163057
H9    H     H_    0.497500 0.123725 0.540104 0.256076
H10   H     H_    0.448429 0.188942 0.561147 0.255368
H11   H     H_    0.481368 0.178438 0.479207 0.239266
H12   H     H_    0.284491 0.252010 0.450872 0.135068
H13   H     H_    0.384003 0.395185 0.725641 0.264387
H14   H     H_    0.457365 0.419525 0.683853 0.220532
H15   H     H_    0.380667 0.458778 0.673087 0.244868
H16   H     H_    0.099802 0.481547 0.324488 0.262906
H17   H     H_    0.074086 0.530757 0.259551 0.240233
H18   H     H_    0.038560 0.416209 0.208513 0.231989
H19   H     H_    0.618393 0.582491 0.340767 0.218527
H20   H     H_    0.700913 0.684705 0.372816 0.231286
H21   H     H_    0.728120 0.621235 0.419455 0.271899
H22   H     H_    0.776950 0.115080 0.609542 0.229899
H23   H     H_    0.247178 0.533843 0.196805 0.138830
H24   H     H_    0.826298 0.117471 0.542199 0.263800
H25   H     H_    0.817201 0.041911 0.583362 0.216188
H26   H     H_    0.639487 0.137638 0.584240 0.246452
H27   H     H_    0.718014 0.189204 0.697155 0.229510
H28   H     H_    0.605389 0.143688 0.665666 0.258015
H29   H     H_    0.289693 0.452384 0.245572 0.127504
H30   H     H_    0.726713 0.867959 0.481424 0.138089
H31   H     H_    0.658220 0.784490 0.553872 0.147270
H32   H     H_    0.735230 0.663143 0.700440 0.159562
H33   H     H_    0.049306 0.214047 0.749701 0.170050
H34   H     H_    0.870042 0.218410 0.768343 0.138275
O1    O     O_R   0.409870 0.358470 0.449260 -0.634229
O2    O     O_R   0.948030 0.090450 0.538510 -0.611876
O3    O     O_R   0.141850 0.090470 0.551380 -0.539277
O4    O     O_R   0.409230 0.460600 0.550770 -0.599558
O5    O     O_R   0.039050 0.090460 0.448590 -0.633811
O6    O     O_R   0.051970 0.909550 0.461490 -0.545310
O7    O     O_R   0.949170 0.909540 0.358700 -0.633924
O8    O     O_R   0.960950 0.909540 0.551410 -0.571241
O9    O     O_R   0.858150 0.909530 0.448620 -0.654942
O10   O     O_R   0.591360 0.448940 0.540280 -0.614667
O11   O     O_R   0.590720 0.551070 0.641790 -0.632374
O12   O     O_R   0.048480 0.460610 0.906920 -0.558412
O13   O     O_R   0.590770 0.539400 0.449230 -0.611728
O14   O     O_R   0.590130 0.641530 0.550740 -0.645420
O15   O     O_R   0.409280 0.448930 0.358210 -0.635318
O16   O     O_R   0.408640 0.551060 0.459720 -0.547268
O17   O     O_R   0.946350 0.358500 0.906960 -0.666865
O18   O     O_R   0.854760 0.448970 0.905840 -0.618260
O19   O     O_R   0.956890 0.551080 0.905790 -0.619645
O20   O     O_R   0.945260 0.539450 0.086770 -0.564635
O21   O     O_R   0.047380 0.641560 0.086730 -0.667088
O22   O     O_R   0.036850 0.448980 0.087900 -0.616015
O23   O     O_R   0.138970 0.551100 0.087860 -0.617177
O24   O     O_R   0.050830 0.090460 0.641300 -0.620695
Zn1   Zn    Zn3+2 0.500430 0.431810 0.432220 0.974167
Zn2   Zn    Zn3+2 0.499570 0.568190 0.567780 1.008473
Zn3   Zn    Zn3+2 0.928680 0.431850 0.996880 0.989554
Zn4   Zn    Zn3+2 0.065060 0.568210 0.996820 1.002688
Zn5   Zn    Zn3+2 0.068640 0.000010 0.568630 1.102573
Zn6   Zn    Zn3+2 0.931360 0.999990 0.431370 0.972066

loop_
_geom_bond_atom_site_label_1
_geom_bond_atom_site_label_2
_ccdc_geom_bond_type
C43   H15   S    
O6    Zn5   S    
C43   H14   S    
C22   C29   S    
C27   C29   D    
C35   C36   D    
C18   O17   A    
C21   O23   A    
C3    C6    S    
O12   Zn4   S    
C7    H12   S    
C12   C49   A    
C37   C38   A    
C37   H32   S    
O4    Zn2   S    
C26   O9    A    
C30   C31   D    
C28   O15   A    
C4    O11   A    
O8    Zn5   S    
C47   H24   S    
C12   C37   A    
C44   H18   S    
C10   F1    S    
C9    H23   S    
C20   O20   A    
C25   O7    A    
C48   C51   S    
C46   H21   S    
C11   H29   S    
C8    C9    D    
C4    O10   A    
C47   H25   S    
O22   Zn3   S    
C16   O14   A    
O3    Zn5   S    
C22   O24   A    
C13   C14   D    
O14   Zn2   S    
C27   C30   S    
C42   H10   S    
C22   O2    A    
O13   Zn1   S    
O1    Zn1   S    
C47   H22   S    
C2    C45   A    
C34   C50   A    
O24   Zn5   S    
C5    H1    S    
C51   C52   A    
C32   C35   S    
O16   Zn2   S    
C17   C46   S    
C30   H34   S    
C36   F5    S    
C24   O3    A    
C39   C40   A    
C46   H20   S    
C16   C17   S    
C3    C5    D    
C42   H11   S    
C48   H26   S    
O19   Zn4   S    
C44   H17   S    
C19   C23   S    
O5    Zn6   S    
C15   H31   S    
O21   Zn4   S    
C45   C49   A    
C23   C34   A    
C50   C51   A    
C35   H3    S    
C34   C45   A    
C18   O12   A    
C14   C26   S    
C44   H16   S    
O10   Zn1   S    
C2    C52   A    
C16   O13   A    
O7    Zn6   S    
O2    Zn6   S    
C1    O1    A    
C40   C41   A    
C14   F2    S    
C33   H2    S    
C6    C43   S    
C13   C15   S    
C42   H9    S    
C48   H28   S    
O11   Zn2   S    
C29   H33   S    
O17   Zn3   S    
C12   C41   A    
C19   O18   A    
C27   C47   S    
C15   C17   D    
C43   H13   S    
C1    C7    S    
C8    C44   S    
C21   O22   A    
C2    H8    S    
C40   H6    S    
O18   Zn3   S    
O20   Zn3   S    
C6    C7    D    
C19   O19   A    
C46   H19   S    
C39   H5    S    
O9    Zn6   S    
C23   C41   A    
C4    C49   S    
C32   C33   D    
C26   O8    A    
C9    C21   S    
C38   C39   A    
C5    C24   S    
C11   C28   S    
C28   O16   A    
C1    O4    A    
C13   H30   S    
C32   F4    S    
C24   O5    A    
C20   O21   A    
C50   H7    S    
C10   C11   D    
C20   C36   S    
C3    F6    S    
C25   O6    A    
C8    C10   S    
O23   Zn4   S    
C25   C33   S    
C48   H27   S    
C18   C31   S    
C31   F3    S    
O15   Zn1   S    
C42   C52   S    
C38   H4    S    
