data_mof_unit_10597.cif
_audit_creation_date              2012-12-11T16:47:59-0500
_audit_creation_method            fapswitch 2.2
_symmetry_space_group_name_H-M    P1
_symmetry_Int_Tables_number       1
_space_group_crystal_system       triclinic
_cell_length_a                    26.125371
_cell_length_b                    7.177409
_cell_length_c                    23.914554
_cell_angle_alpha                 89.999883
_cell_angle_beta                  101.589738
_cell_angle_gamma                 90.0
_cell_volume                      4392.84834535

loop_
_atom_site_label
_atom_site_type_symbol
_atom_type_description
_atom_site_fract_x
_atom_site_fract_y
_atom_site_fract_z
_atom_type_partial_charge
O1    O     O_R   0.797620 0.601060 0.203310 -0.514683
O2    O     O_R   0.202380 0.398940 0.796690 -0.511156
O3    O     O_R   0.702380 0.101060 0.296690 -0.514676
O4    O     O_R   0.297620 0.898940 0.703310 -0.511159
O5    O     O_R   0.692070 0.267810 0.186600 -0.529364
O6    O     O_R   0.307930 0.732190 0.813400 -0.542950
O7    O     O_R   0.807930 0.767810 0.313400 -0.529362
O8    O     O_R   0.192070 0.232190 0.686600 -0.542949
C1    C     C_R   0.673906 0.439454 0.171333 0.721167
C2    C     C_R   0.326285 0.560579 0.828428 0.706741
C3    C     C_R   0.826094 0.939453 0.328666 0.721158
C4    C     C_R   0.173715 0.060579 0.671572 0.706742
O9    O     O_R   0.796590 0.271120 0.196480 -0.550168
O10   O     O_R   0.203410 0.728880 0.803520 -0.513508
O11   O     O_R   0.703410 0.771120 0.303520 -0.550169
O12   O     O_R   0.296590 0.228880 0.696480 -0.513510
O13   O     O_R   0.807640 0.104280 0.306650 -0.536009
O14   O     O_R   0.192360 0.895720 0.693350 -0.531332
O15   O     O_R   0.692360 0.604280 0.193350 -0.536010
O16   O     O_R   0.307640 0.395720 0.806650 -0.531332
C5    C     C_R   0.811580 0.439924 0.183817 0.768550
C6    C     C_R   0.187172 0.560275 0.815184 0.755210
C7    C     C_R   0.688419 0.939924 0.316183 0.768550
C8    C     C_R   0.312828 0.060275 0.684816 0.755216
O17   O     O_3   0.753500 0.435660 0.286130 -0.380010
O18   O     O_3   0.246500 0.564340 0.713870 -0.359744
O19   O     O_3   0.746500 0.935660 0.213870 -0.380013
O20   O     O_3   0.253500 0.064340 0.786130 -0.359743
V1    V     V_3+5 0.749350 0.159470 0.243300 1.498635
V2    V     V_3+5 0.250650 0.840530 0.756700 1.555272
V3    V     V_3+5 0.750650 0.659470 0.256700 1.498631
V4    V     V_3+5 0.249350 0.340530 0.743300 1.555273
C9    C     C_R   0.353995 0.893101 0.612370 0.540234
C10   C     C_R   0.603338 0.043824 0.337342 0.593440
C11   C     C_R   0.146002 0.393092 0.887626 0.540227
C12   C     C_R   0.896666 0.543788 0.162663 0.593442
C13   C     C_R   0.390340 0.882116 0.576743 -0.141183
C14   C     C_R   0.567276 0.056729 0.373233 -0.213251
C15   C     C_R   0.109657 0.382106 0.923253 -0.141189
C16   C     C_R   0.932729 0.556692 0.126771 -0.213250
H1    H     H_    0.391234 0.757865 0.551257 0.185775
H2    H     H_    0.530769 0.129399 0.358200 0.169894
H3    H     H_    0.108760 0.257848 0.948736 0.185777
H4    H     H_    0.969240 0.629334 0.141809 0.169896
C17   C     C_R   0.425551 0.027990 0.574342 0.049002
C18   C     C_R   0.578279 0.979027 0.428210 0.012345
C19   C     C_R   0.074448 0.527987 0.925658 0.049005
C20   C     C_R   0.921721 0.479025 0.071790 0.012342
C21   C     C_R   0.424029 0.185274 0.608819 -0.209847
C22   C     C_R   0.626248 0.887436 0.446605 -0.050793
C23   C     C_R   0.075974 0.685279 0.891185 -0.209846
C24   C     C_R   0.873746 0.387471 0.053390 -0.050791
H5    H     H_    0.451090 0.298906 0.607577 0.139028
H6    H     H_    0.635295 0.825294 0.488726 0.184420
H7    H     H_    0.048915 0.798916 0.892429 0.139026
H8    H     H_    0.864695 0.325355 0.011266 0.184422
C25   C     C_R   0.388192 0.197893 0.645450 0.234262
C26   C     C_R   0.662662 0.871784 0.410845 0.180820
C27   C     C_R   0.111810 0.697898 0.854554 0.234261
C28   C     C_R   0.837332 0.371821 0.089150 0.180821
C29   C     C_R   0.352042 0.051024 0.647144 -0.205167
C30   C     C_R   0.651090 0.949921 0.355269 -0.231589
C31   C     C_R   0.147957 0.551023 0.852856 -0.205168
C32   C     C_R   0.848909 0.449922 0.144731 -0.231591
C33   C     C_R   0.449582 0.959233 0.479258 0.662376
C34   C     C_R   0.554290 0.048792 0.523264 0.650189
C35   C     C_R   0.050415 0.459200 0.020739 0.662372
C36   C     C_R   0.945711 0.548819 0.976738 0.650186
C37   C     C_R   0.486653 0.948304 0.444409 -0.304010
C38   C     C_R   0.517169 0.060587 0.558049 -0.319819
C39   C     C_R   0.013345 0.448270 0.055588 -0.304005
C40   C     C_R   0.982832 0.560613 0.941953 -0.319814
H9    H     H_    0.474140 0.904250 0.400465 0.188029
H10   H     H_    0.529723 0.104048 0.602043 0.176637
H11   H     H_    0.025857 0.404193 0.099530 0.188027
H12   H     H_    0.970279 0.604096 0.897961 0.176635
C41   C     C_R   0.539402 0.991934 0.465931 -0.087835
C42   C     C_R   0.464497 0.015265 0.536671 -0.091448
C43   C     C_R   0.960597 0.491932 0.034069 -0.087829
C44   C     C_R   0.035502 0.515261 0.963329 -0.091445
C45   C     C_3   0.959034 0.940454 0.524396 -0.243569
C46   C     C_3   0.039322 0.059440 0.477620 -0.220348
C47   C     C_3   0.540966 0.440455 0.975604 -0.243569
C48   C     C_3   0.460678 0.559438 0.022380 -0.220349
C49   C     C_3   0.989127 0.127923 0.539208 -0.227701
C50   C     C_3   0.009272 0.871936 0.462850 -0.205374
C51   C     C_3   0.510873 0.627924 0.960792 -0.227702
C52   C     C_3   0.490729 0.371935 0.037149 -0.205376
H13   H     H_    0.980847 0.234229 0.569889 0.129499
H14   H     H_    0.017572 0.765590 0.432191 0.145199
H15   H     H_    0.519152 0.734231 0.930110 0.129499
H16   H     H_    0.482428 0.265588 0.067808 0.145197
H17   H     H_    0.926599 0.887415 0.543663 0.131856
H18   H     H_    0.071724 0.112519 0.458308 0.148727
H19   H     H_    0.573401 0.387418 0.956336 0.131855
H20   H     H_    0.428276 0.612516 0.041692 0.148726
C53   C     C_1   0.127677 0.052641 0.625981 -0.186003
C54   C     C_1   0.871566 0.947417 0.374956 -0.158332
C55   C     C_1   0.372323 0.552641 0.874019 -0.186005
C56   C     C_1   0.628434 0.447418 0.125044 -0.158334
C57   C     C_3   0.011976 0.841394 0.527260 0.354116
C58   C     C_3   0.986402 0.158485 0.474795 0.357389
C59   C     C_3   0.488025 0.341394 0.972740 0.354118
C60   C     C_3   0.513597 0.658485 0.025205 0.357390
C61   C     C_3   0.041680 0.024566 0.542129 0.097858
C62   C     C_3   0.956719 0.975301 0.459888 0.096075
C63   C     C_3   0.458320 0.524566 0.957871 0.097859
C64   C     C_3   0.543281 0.475301 0.040112 0.096076
C65   C     C_1   0.088939 0.043279 0.588145 -0.021042
C66   C     C_1   0.909825 0.956686 0.413398 -0.013346
C67   C     C_1   0.411061 0.543279 0.911854 -0.021044
C68   C     C_1   0.590175 0.456687 0.086602 -0.013350
F1    F     F_    0.320094 0.749441 0.611873 -0.661499
F2    F     F_    0.591196 0.121004 0.284488 -0.671433
F3    F     F_    0.179900 0.249426 0.888120 -0.661502
F4    F     F_    0.908814 0.620934 0.215521 -0.671430
N1    N     N_2   0.389526 0.357886 0.680930 -0.465905
H21   H     H_    0.400542 0.478327 0.662939 0.275458
C69   C     C_3   0.418255 0.331574 0.738745 -0.511060
H22   H     H_    0.415586 0.459861 0.763942 0.186496
H23   H     H_    0.460084 0.303171 0.738766 0.185169
H24   H     H_    0.401687 0.214116 0.759609 0.187011
N2    N     N_2   0.711125 0.781831 0.432532 -0.510195
H25   H     H_    0.724018 0.693505 0.404391 0.269724
C70   C     C_3   0.751615 0.904984 0.461694 -0.516152
H26   H     H_    0.787045 0.822588 0.479828 0.191099
H27   H     H_    0.738383 0.978059 0.497234 0.233384
H28   H     H_    0.761957 0.009130 0.431383 0.165607
N3    N     N_2   0.110478 0.857899 0.819077 -0.465893
H29   H     H_    0.099465 0.978338 0.837070 0.275469
C71   C     C_3   0.081749 0.831603 0.761262 -0.511058
H30   H     H_    0.084420 0.959895 0.736067 0.186494
H31   H     H_    0.039918 0.803211 0.761241 0.185166
H32   H     H_    0.098313 0.714146 0.740394 0.187011
N4    N     N_2   0.788863 0.281908 0.067459 -0.510198
H33   H     H_    0.775961 0.193602 0.095599 0.269706
C72   C     C_3   0.748384 0.405095 0.038294 -0.516163
H34   H     H_    0.712948 0.322730 0.020156 0.191098
H35   H     H_    0.761624 0.478150 0.002754 0.233390
H36   H     H_    0.738047 0.509258 0.068602 0.165626
F5    F     F_    0.398912 0.919630 0.456324 -0.650328
F6    F     F_    0.604471 0.097674 0.545339 -0.676335
F7    F     F_    0.101084 0.419568 0.043672 -0.650331
F8    F     F_    0.895532 0.597732 0.954666 -0.676341
N5    N     N_2   0.973187 0.332566 0.444696 -0.502527
H37   H     H_    0.003203 0.427782 0.452101 0.255380
C73   C     C_3   0.923133 0.412295 0.448531 -0.513893
H38   H     H_    0.917819 0.546337 0.424948 0.207300
H39   H     H_    0.920839 0.438551 0.493683 0.168447
H40   H     H_    0.890837 0.318313 0.428991 0.210702
N6    N     N_2   0.025079 0.667433 0.557464 -0.527269
H41   H     H_    0.995023 0.572381 0.550082 0.252310
C74   C     C_3   0.075120 0.587295 0.553820 -0.520013
H42   H     H_    0.080257 0.453193 0.577377 0.198774
H43   H     H_    0.107431 0.680940 0.573532 0.221191
H44   H     H_    0.077548 0.561078 0.508702 0.185407
N7    N     N_2   0.526812 0.832565 0.055304 -0.502530
H45   H     H_    0.496796 0.927781 0.047899 0.255380
C75   C     C_3   0.576866 0.912295 0.051469 -0.513898
H46   H     H_    0.582180 0.046338 0.075051 0.207299
H47   H     H_    0.579161 0.938550 0.006318 0.168449
H48   H     H_    0.609163 0.818314 0.071010 0.210702
N8    N     N_2   0.474922 0.167434 0.942535 -0.527269
H49   H     H_    0.504978 0.072382 0.949918 0.252311
C76   C     C_3   0.424880 0.087295 0.946180 -0.520016
H50   H     H_    0.419744 0.953192 0.922623 0.198774
H51   H     H_    0.392570 0.180939 0.926466 0.221190
H52   H     H_    0.422453 0.061079 0.991297 0.185407

loop_
_geom_bond_atom_site_label_1
_geom_bond_atom_site_label_2
_ccdc_geom_bond_type
O17   V3    S    
C47   C51   S    
C26   C30   A    
C76   H50   S    
C54   C66   T    
C51   H15   S    
O19   V1    S    
O13   V1    S    
C37   C41   A    
C73   H38   S    
C10   C30   A    
C60   N7    S    
C40   H12   S    
C71   H32   S    
O15   V3    S    
C1    C56   S    
C39   C43   A    
N5    H37   S    
N2    H25   S    
C45   C57   S    
O1    C5    A    
C72   H35   S    
C26   N2    S    
C22   H6    S    
C47   C59   S    
C3    C54   S    
C46   H18   S    
C20   C43   S    
C15   C19   A    
C73   H39   S    
C14   H2    S    
N1    C69   S    
C58   N5    S    
O16   V4    S    
C11   C15   A    
C52   C64   S    
C33   C37   A    
N2    C70   S    
C38   C42   A    
O1    V3    S    
C48   C63   S    
C21   C25   A    
C47   C64   S    
O2    V4    S    
C48   H20   S    
C46   C61   S    
C25   C29   A    
O3    V1    S    
C16   C20   A    
C5    C32   S    
C24   C28   A    
C6    C31   S    
O3    C7    A    
C1    O15   A    
N7    H45   S    
C27   N3    S    
N8    H49   S    
C2    O16   A    
O2    C6    A    
C70   H28   S    
N6    H41   S    
C75   H47   S    
C37   H9    S    
C17   C42   S    
O14   V2    S    
C17   C21   A    
C74   H43   S    
C16   H4    S    
C23   H7    S    
C36   C40   A    
C9    F1    S    
C36   C43   A    
O11   C7    A    
C35   F7    S    
O12   C8    A    
C50   C62   S    
C19   C44   S    
O10   V2    S    
C49   C61   S    
N5    C73   S    
C23   C27   A    
O5    V1    S    
C69   H23   S    
C57   C61   S    
C72   H36   S    
O7    V3    S    
O8    V4    S    
C52   H16   S    
N4    H33   S    
C73   H40   S    
C33   F5    S    
C50   H14   S    
C49   H13   S    
O18   V4    S    
C19   C23   A    
C46   C50   S    
C57   N6    S    
C9    C13   A    
C64   C68   S    
C22   C26   A    
N7    C75   S    
O7    C3    A    
C38   H10   S    
C45   H17   S    
C75   H46   S    
C12   C16   A    
O8    C4    A    
C55   C67   T    
C46   C58   S    
C75   H48   S    
O9    C5    A    
C47   H19   S    
C74   H44   S    
C11   F3    S    
C28   N4    S    
C4    C53   S    
C8    C29   S    
C9    C29   A    
O6    V2    S    
C56   C68   T    
C76   H52   S    
C70   H26   S    
C48   C60   S    
C27   C31   A    
C10   F2    S    
C13   C17   A    
C71   H30   S    
C12   F4    S    
C60   C64   S    
C52   C59   S    
C25   N1    S    
N3    H29   S    
C62   C66   S    
C69   H24   S    
O9    V1    S    
N4    C72   S    
C34   C41   A    
C61   C65   S    
C45   C62   S    
C3    O13   A    
C33   C42   A    
N8    C76   S    
C10   C14   A    
C63   C67   S    
C35   C44   A    
C48   C52   S    
O5    C1    A    
C71   H31   S    
O6    C2    A    
C18   C41   S    
C15   H3    S    
C69   H22   S    
O11   V3    S    
C34   F6    S    
O12   V4    S    
C72   H34   S    
C18   C22   A    
C59   N8    S    
C28   C32   A    
C59   C63   S    
O10   C6    A    
O20   V2    S    
C53   C65   T    
C40   C44   A    
N1    H21   S    
C39   H11   S    
C34   C38   A    
O4    C8    A    
C21   H5    S    
C36   F8    S    
C35   C39   A    
N6    C74   S    
C13   H1    S    
C2    C55   S    
O4    V2    S    
C14   C18   A    
C51   C60   S    
C20   C24   A    
C51   C63   S    
C76   H51   S    
C58   C62   S    
C4    O14   A    
C70   H27   S    
C11   C31   A    
C7    C30   S    
C74   H42   S    
C12   C32   A    
C50   C57   S    
C45   C49   S    
C49   C58   S    
C24   H8    S    
N3    C71   S    
