data_mof_unit_40592.cif
_audit_creation_date              2012-12-10T20:36:36-0500
_audit_creation_method            fapswitch 2.2
_symmetry_space_group_name_H-M    P1
_symmetry_Int_Tables_number       1
_space_group_crystal_system       triclinic
_cell_length_a                    10.494492
_cell_length_b                    10.713824
_cell_length_c                    9.878134
_cell_angle_alpha                 89.736185
_cell_angle_beta                  89.382198
_cell_angle_gamma                 89.825837
_cell_volume                      1110.57795644

loop_
_atom_site_label
_atom_site_type_symbol
_atom_type_description
_atom_site_fract_x
_atom_site_fract_y
_atom_site_fract_z
_atom_type_partial_charge
C1    C     C_R   0.502614 0.260585 0.500208 0.878237
C2    C     C_3   0.961710 0.497567 0.370132 -0.137155
C3    C     C_3   0.043879 0.395449 0.437416 -0.182462
C4    C     C_3   0.122254 0.498829 0.501903 0.030153
C5    C     C_R   0.472577 0.061826 0.613491 0.028430
C6    C     C_R   0.507693 0.129336 0.499689 -0.075236
C7    C     C_R   0.543321 0.065093 0.381211 -0.221548
C8    C     C_R   0.540660 0.935477 0.380413 -0.196220
C9    C     C_R   0.499741 0.870761 0.497161 -0.120664
C10   C     C_R   0.461766 0.937859 0.609866 -0.013710
C11   C     C_3   0.411938 0.929478 0.753099 0.359598
C12   C     C_R   0.257311 0.499616 0.500713 0.852601
C13   C     C_3   0.425317 0.072789 0.755894 -0.513383
C14   C     C_R   0.428435 0.415375 0.072513 0.220515
C15   C     C_R   0.578951 0.575982 0.070638 -0.134771
C16   C     C_R   0.578941 0.576010 0.926738 -0.125545
C17   C     C_R   0.428189 0.415624 0.929994 0.220290
C18   C     C_3   0.286749 0.404224 0.926889 -0.519450
C19   C     C_3   0.287210 0.402498 0.080424 -0.502734
C20   C     C_R   0.499479 0.739437 0.499470 0.861567
C21   C     C_R   0.742665 0.499286 0.499215 0.857000
C22   C     C_3   0.038078 0.499513 0.629133 -0.143950
C23   C     C_3   0.957012 0.396182 0.564603 -0.175193
C24   C     C_3   0.877686 0.498382 0.497574 0.041591
C25   C     C_3   0.956119 0.601605 0.561889 -0.189550
C26   C     C_3   0.042836 0.600871 0.434697 -0.188379
H1    H     H_    0.917390 0.312809 0.617100 0.133086
H2    H     H_    0.479722 0.881227 0.821598 0.100800
H3    H     H_    0.333488 0.124266 0.763100 0.205901
H4    H     H_    0.500584 0.105985 0.825257 0.171080
H5    H     H_    0.640830 0.639209 0.123861 0.140994
H6    H     H_    0.640804 0.639275 0.871497 0.140210
H7    H     H_    0.240693 0.489138 0.884746 0.216975
H8    H     H_    0.255406 0.314667 0.882068 0.195685
H9    H     H_    0.239453 0.485283 0.125987 0.224433
H10   H     H_    0.257944 0.311222 0.124552 0.199827
H11   H     H_    0.071357 0.500746 0.735121 0.134977
H12   H     H_    0.915056 0.684780 0.612986 0.123995
H13   H     H_    0.083032 0.683518 0.381586 0.135683
H14   H     H_    0.926511 0.496785 0.264542 0.141110
H15   H     H_    0.084589 0.311596 0.387154 0.132637
H16   H     H_    0.573346 0.114222 0.290262 0.164298
H17   H     H_    0.570877 0.886736 0.289660 0.162543
N1    N     N_R   0.499140 0.499140 0.142800 -0.107265
N2    N     N_R   0.499140 0.499180 0.857150 -0.105024
O1    O     O_R   0.500020 0.316790 0.614690 -0.614347
O2    O     O_R   0.500000 0.316760 0.385350 -0.626284
O3    O     O_R   0.313960 0.499990 0.614650 -0.626596
O4    O     O_R   0.313940 0.499950 0.385310 -0.620816
O5    O     O_R   0.500000 0.683240 0.614650 -0.625185
O6    O     O_R   0.499980 0.683210 0.385310 -0.620238
O7    O     O_R   0.686060 0.500050 0.614690 -0.623270
O8    O     O_R   0.686040 0.500010 0.385350 -0.630116
Zn1   Zn    Zn3+2 0.500010 0.500020 0.653130 0.941998
Zn2   Zn    Zn3+2 0.499990 0.499980 0.346870 0.937569
O9    O     O_3   0.283087 0.892429 0.779140 -0.632753
C27   C     C_3   0.207935 0.866088 0.664230 0.163708
H18   H     H_    0.130513 0.802700 0.698889 0.152147
H19   H     H_    0.259720 0.813158 0.584668 0.115979
C28   C     C_3   0.145612 0.985151 0.607966 -0.380934
H20   H     H_    0.093625 0.033993 0.690911 0.225649
H21   H     H_    0.219001 0.049209 0.566379 0.223983
C29   C     C_3   0.052667 0.956042 0.494889 -0.976017
H22   H     H_    0.103573 0.910338 0.409285 0.265586
H23   H     H_    0.009312 0.044212 0.457492 0.266156
H24   H     H_    0.975282 0.894267 0.532671 0.261799

loop_
_geom_bond_atom_site_label_1
_geom_bond_atom_site_label_2
_ccdc_geom_bond_type
C16   N2    A    
C15   N1    A    
C4    C26   S    
C23   C24   S    
C29   H23   S    
C15   H5    S    
C6    C7    A    
C23   H1    S    
C25   H12   S    
C16   H6    S    
C4    C22   S    
C9    C10   A    
C9    C20   S    
C3    C23   S    
C2    C3    S    
C14   C17   A    
C8    H17   S    
C12   O3    A    
O1    Zn1   S    
C28   H20   S    
C12   O4    A    
C3    C4    S    
C29   H24   S    
C7    C8    A    
C2    C26   S    
C7    H16   S    
C19   H9    S    
C24   C25   S    
O3    Zn1   S    
C11   C13   S    
N1    Zn2   S    
C27   H18   S    
O5    Zn1   S    
C11   H2    S    
C18   H8    S    
C28   C29   S    
C15   C16   A    
C21   O8    A    
C28   H21   S    
C17   N2    A    
N2    Zn1   S    
C17   C18   S    
C20   O6    A    
O6    Zn2   S    
C19   H10   S    
O8    Zn2   S    
C2    C24   S    
C5    C6    A    
C26   H13   S    
C18   H7    S    
C1    O1    A    
C27   H19   S    
C4    C12   S    
C10   C11   S    
C29   H22   S    
C2    H14   S    
C13   H4    S    
C5    C10   A    
O9    C27   S    
C14   N1    A    
C18   C19   S    
C21   C24   S    
C13   H3    S    
O2    Zn2   S    
C22   C23   S    
C1    O2    A    
C27   C28   S    
C20   O5    A    
C25   C26   S    
O4    Zn2   S    
C22   H11   S    
C5    C13   S    
C14   C19   S    
C21   O7    A    
C3    H15   S    
C11   O9    S    
C1    C6    S    
O7    Zn1   S    
C8    C9    A    
C22   C25   S    
