data_mof_unit_10949.cif
_audit_creation_date              2012-12-10T17:55:51-0500
_audit_creation_method            fapswitch 2.2
_symmetry_space_group_name_H-M    P1
_symmetry_Int_Tables_number       1
_space_group_crystal_system       triclinic
_cell_length_a                    10.961321
_cell_length_b                    10.936261
_cell_length_c                    9.588387
_cell_angle_alpha                 90.914527
_cell_angle_beta                  101.642764
_cell_angle_gamma                 90.623738
_cell_volume                      1125.50665305

loop_
_atom_site_label
_atom_site_type_symbol
_atom_type_description
_atom_site_fract_x
_atom_site_fract_y
_atom_site_fract_z
_atom_type_partial_charge
C1    C     C_R   0.498978 0.262482 0.499461 0.885075
C2    C     C_R   0.503531 0.737678 0.501024 0.833237
C3    C     C_R   0.262485 0.506138 0.444836 0.816951
C4    C     C_R   0.737595 0.503404 0.555462 0.793428
C5    C     C_R   0.402932 0.448687 0.046847 0.480816
C6    C     C_R   0.598468 0.548622 0.953294 0.492202
C7    C     C_R   0.404203 0.448592 0.900128 -0.167881
C8    C     C_R   0.597125 0.548523 0.099962 -0.154004
C9    C     C_2   0.126072 0.513779 0.423686 0.182536
C10   C     C_2   0.873840 0.510160 0.575950 0.191121
C11   C     C_2   0.067611 0.583918 0.510182 -0.028029
C12   C     C_2   0.930335 0.578847 0.488548 -0.022096
C13   C     C_R   0.439166 0.061593 0.379318 0.319688
C14   C     C_R   0.562625 0.939067 0.622113 0.306221
C15   C     C_R   0.444603 0.934471 0.376245 -0.154860
C16   C     C_R   0.558481 0.066591 0.624314 -0.149775
C17   C     C_R   0.504089 0.871917 0.499687 -0.229151
C18   C     C_R   0.499286 0.128634 0.500774 -0.230703
Cu1   Cu    Cu3+1 0.500000 0.500020 0.640660 1.027177
Cu2   Cu    Cu3+1 0.500000 0.499980 0.359340 1.026417
H1    H     H_    0.327325 0.407902 0.824326 0.207894
H2    H     H_    0.673804 0.588427 0.175682 0.195711
N1    N     N_R   0.500030 0.500030 0.852080 -0.224598
N2    N     N_R   0.499970 0.499970 0.147920 -0.226338
O1    O     O_R   0.499990 0.319660 0.618740 -0.588406
O2    O     O_R   0.500010 0.680340 0.381260 -0.593964
O3    O     O_R   0.499990 0.319630 0.381170 -0.522105
O4    O     O_R   0.500010 0.680370 0.618830 -0.522978
O5    O     O_R   0.320690 0.500020 0.575130 -0.604261
O6    O     O_R   0.679310 0.499980 0.424870 -0.610611
O7    O     O_R   0.320680 0.499990 0.337560 -0.495072
O8    O     O_R   0.679320 0.500010 0.662440 -0.491707
C19   C     C_R   0.868556 0.681433 0.400997 0.060318
C20   C     C_R   0.808980 0.773688 0.465002 -0.130627
C21   C     C_R   0.778325 0.884216 0.395808 -0.120479
C22   C     C_R   0.804718 0.903283 0.261387 -0.114557
C23   C     C_R   0.862117 0.812033 0.195705 -0.080720
C24   C     C_R   0.895174 0.702449 0.265466 -0.141695
H3    H     H_    0.793292 0.763050 0.571946 0.166108
H4    H     H_    0.737189 0.956777 0.447756 0.148396
H5    H     H_    0.781438 0.989176 0.208570 0.153967
H6    H     H_    0.883838 0.827347 0.092078 0.187611
H7    H     H_    0.944234 0.635548 0.214554 0.196690
C25   C     C_R   0.124418 0.690034 0.605093 0.087602
C26   C     C_R   0.213732 0.767814 0.565756 -0.123777
C27   C     C_R   0.239947 0.883697 0.630040 -0.114706
C28   C     C_R   0.178610 0.923543 0.735762 -0.077453
C29   C     C_R   0.091360 0.847256 0.778697 -0.126642
C30   C     C_R   0.066337 0.730950 0.716550 -0.142973
H8    H     H_    0.258215 0.741666 0.480361 0.075291
H9    H     H_    0.304226 0.945336 0.594725 0.146080
H10   H     H_    0.198327 0.013674 0.783883 0.164104
H11   H     H_    0.043273 0.877837 0.860790 0.165541
H12   H     H_    0.997193 0.675605 0.752781 0.195413
Cl1   Cl    Cl    0.267774 0.382915 0.085525 -0.453814
Cl2   Cl    Cl    0.733607 0.614488 0.914092 -0.579318
Cl3   Cl    Cl    0.961425 0.415487 0.705336 -0.612366
Cl4   Cl    Cl    0.040371 0.408460 0.298482 -0.545655
Cl5   Cl    Cl    0.344284 0.133015 0.233325 -0.554333
Cl6   Cl    Cl    0.653020 0.867109 0.770990 -0.642277
C31   C     C_R   0.391555 0.869510 0.240126 0.223140
C32   C     C_R   0.464728 0.855689 0.136705 -0.073058
C33   C     C_R   0.420333 0.786122 0.013476 -0.152723
C34   C     C_R   0.304374 0.727657 0.994666 -0.095259
C35   C     C_R   0.227731 0.747148 0.092699 -0.108501
C36   C     C_R   0.269688 0.821289 0.213054 -0.126725
H13   H     H_    0.556211 0.897600 0.152280 0.141484
H14   H     H_    0.476874 0.775012 0.934159 0.204968
H15   H     H_    0.273062 0.669209 0.902316 0.164462
H16   H     H_    0.135521 0.705911 0.074592 0.157167
H17   H     H_    0.207215 0.841218 0.283882 0.130495
C37   C     C_R   0.614052 0.132046 0.759618 0.195221
C38   C     C_R   0.733910 0.184534 0.779835 -0.099977
C39   C     C_R   0.786903 0.241333 0.910224 -0.018001
C40   C     C_R   0.720600 0.246430 0.020307 -0.138106
C41   C     C_R   0.601412 0.194056 0.000808 -0.183204
C42   C     C_R   0.548170 0.136771 0.871094 -0.053432
H18   H     H_    0.786263 0.180274 0.695429 0.152961
H19   H     H_    0.879753 0.280715 0.926729 0.226008
H20   H     H_    0.761725 0.290659 0.120874 0.187171
H21   H     H_    0.550517 0.197682 0.086364 0.196302
H22   H     H_    0.456045 0.095610 0.857476 0.141940

loop_
_geom_bond_atom_site_label_1
_geom_bond_atom_site_label_2
_ccdc_geom_bond_type
C25   C30   A    
C38   C39   A    
C21   C22   A    
C16   C37   S    
Cu2   O6    S    
C26   C27   A    
C1    C18   S    
C32   C33   A    
C13   C18   A    
C26   H8    S    
C22   C23   A    
C23   C24   A    
C9    Cl4   S    
C30   H12   S    
C20   C21   A    
C23   H6    S    
C3    O5    A    
C33   H14   S    
C31   C36   A    
C28   C29   A    
C8    H2    S    
C38   H18   S    
C40   H20   S    
C2    C17   S    
C1    O1    A    
C14   C17   A    
C22   H5    S    
Cu1   O8    S    
C29   H11   S    
C39   C40   A    
C20   H3    S    
Cu2   N2    S    
C10   Cl3   S    
C41   C42   A    
C5    C7    A    
C6    C8    A    
C7    H1    S    
C27   H9    S    
Cu1   N1    S    
C40   C41   A    
C37   C42   A    
C3    C9    S    
C36   H17   S    
C19   C20   A    
C15   C31   S    
C11   C25   S    
C2    O2    A    
C34   H15   S    
C3    O7    A    
Cu1   O4    S    
C9    C11   D    
C4    O8    A    
C10   C12   D    
C32   H13   S    
C29   C30   A    
C39   H19   S    
C13   C15   A    
C14   C16   A    
C4    C10   S    
Cu1   O5    S    
C25   C26   A    
C15   C17   A    
C27   C28   A    
C5    Cl1   S    
C6    Cl2   S    
C37   C38   A    
C41   H21   S    
C11   C12   S    
C28   H10   S    
C13   Cl5   S    
Cu2   O3    S    
C14   Cl6   S    
C19   C24   A    
C34   C35   A    
Cu1   Cu2   S    
C21   H4    S    
C24   H7    S    
C5    N2    A    
Cu2   O2    S    
C42   H22   S    
C7    N1    A    
C6    N1    A    
C8    N2    A    
C31   C32   A    
Cu1   O1    S    
C33   C34   A    
C16   C18   A    
C35   C36   A    
C1    O3    A    
C2    O4    A    
C12   C19   S    
C4    O6    A    
C35   H16   S    
Cu2   O7    S    
