data_mof_unit_60358.cif
_audit_creation_date              2013-03-05T16:20:44-0500
_audit_creation_method            fapswitch 2.2
_symmetry_space_group_name_H-M    P1
_symmetry_Int_Tables_number       1
_space_group_crystal_system       triclinic
_cell_length_a                    18.793127
_cell_length_b                    18.715339
_cell_length_c                    18.81924
_cell_angle_alpha                 109.20038
_cell_angle_beta                  109.673279
_cell_angle_gamma                 109.271326
_cell_volume                      5112.13372105

loop_
_atom_site_label
_atom_site_type_symbol
_atom_site_description
_atom_site_fract_x
_atom_site_fract_y
_atom_site_fract_z
_atom_type_partial_charge
O1    O     O_R   0.410140 0.357660 0.448100 -0.583929
O2    O     O_R   0.409510 0.462000 0.551890 -0.580886
C1    C     C_R   0.381434 0.381439 0.500096 0.788142
O3    O     O_R   0.590970 0.447830 0.538770 -0.588111
O4    O     O_R   0.590340 0.552170 0.642560 -0.582615
C2    C     C_R   0.619615 0.500105 0.619297 0.822623
Cu1   Cu    Cu3+1 0.500370 0.438220 0.438550 0.969968
Cu2   Cu    Cu3+1 0.499630 0.561780 0.561450 0.999701
O5    O     O_R   0.590490 0.538000 0.448110 -0.592974
O6    O     O_R   0.589860 0.642340 0.551900 -0.563319
O7    O     O_R   0.409660 0.447830 0.357440 -0.586989
O8    O     O_R   0.409030 0.552170 0.461230 -0.587979
C3    C     C_R   0.618326 0.618935 0.499716 0.833288
C4    C     C_R   0.380812 0.500277 0.380702 0.787501
C5    C     C_3   0.719230 0.437577 0.647984 -0.367332
H1    H     H_    0.746394 0.457031 0.609167 0.242247
H2    H     H_    0.662166 0.370826 0.601733 0.152126
C6    C     C_3   0.785434 0.433268 0.719793 0.181883
H3    H     H_    0.752304 0.367739 0.712897 0.098900
H4    H     H_    0.900676 0.616405 0.814150 0.256998
C7    C     C_3   0.767688 0.595409 0.751807 0.203452
C8    C     C_3   0.652688 0.469882 0.741665 -0.488907
C9    C     C_3   0.688909 0.500875 0.687962 -0.023841
H5    H     H_    0.625858 0.510007 0.768121 0.208156
H6    H     H_    0.598375 0.401278 0.699250 0.185390
C10   C     C_3   0.809934 0.502126 0.810776 -0.044301
C11   C     C_3   0.841397 0.594550 0.819868 -0.383604
C12   C     C_3   0.725581 0.476542 0.817610 -0.399457
H7    H     H_    0.702011 0.412785 0.815953 0.211424
H8    H     H_    0.739457 0.526069 0.880464 0.243580
H9    H     H_    0.745183 0.634474 0.787864 0.132325
H10   H     H_    0.860580 0.642748 0.886093 0.145207
C13   C     C_R   0.228186 0.277568 0.440011 0.102895
C14   C     C_R   0.315381 0.316304 0.501521 -0.057485
C15   C     C_R   0.336880 0.300883 0.571851 -0.201163
H11   H     H_    0.403744 0.335096 0.623768 0.140541
C16   C     C_R   0.272278 0.237621 0.572946 -0.147949
H12   H     H_    0.290663 0.223712 0.625740 0.174130
C17   C     C_R   0.185578 0.190665 0.504334 -0.086051
C18   C     C_R   0.164296 0.215564 0.441251 0.129126
C19   C     C_3   0.113720 0.161573 0.344490 -0.422345
C20   C     C_3   0.184060 0.230009 0.343278 -0.497278
H13   H     H_    0.110938 0.097367 0.320618 0.195381
H14   H     H_    0.049894 0.158870 0.316573 0.206159
H15   H     H_    0.222197 0.205666 0.318624 0.215731
H16   H     H_    0.160676 0.266847 0.315030 0.194746
C21   C     C_R   0.252631 0.427555 0.234637 0.126946
C22   C     C_R   0.314716 0.501714 0.314546 -0.097534
C23   C     C_R   0.310128 0.578784 0.329236 -0.192487
H17   H     H_    0.357058 0.638810 0.390196 0.168482
C24   C     C_R   0.245292 0.578868 0.263834 -0.195072
H18   H     H_    0.243374 0.638715 0.275607 0.159977
C25   C     C_R   0.182848 0.501304 0.184322 -0.075135
C26   C     C_R   0.188757 0.427000 0.173343 0.113715
C27   C     C_3   0.149975 0.333467 0.110250 -0.481572
C28   C     C_3   0.222436 0.333765 0.180411 -0.446319
H19   H     H_    0.083671 0.293091 0.097262 0.211054
H20   H     H_    0.156437 0.324308 0.051748 0.198005
H21   H     H_    0.197979 0.293706 0.208034 0.192056
H22   H     H_    0.270332 0.324247 0.162083 0.211496
C29   C     C_R   0.763314 0.687123 0.514878 0.216253
C30   C     C_R   0.685749 0.686969 0.501964 -0.086698
C31   C     C_R   0.677885 0.758782 0.500806 -0.202275
H23   H     H_    0.620374 0.762803 0.495937 0.155577
C32   C     C_R   0.742141 0.823115 0.500361 -0.202037
H24   H     H_    0.733542 0.876066 0.495369 0.158065
C33   C     C_R   0.815890 0.817357 0.504214 -0.092762
C34   C     C_R   0.828016 0.752070 0.517332 0.151867
C35   C     C_3   0.850027 0.689635 0.469302 -0.498986
C36   C     C_3   0.778495 0.618210 0.466208 -0.438362
H25   H     H_    0.835637 0.682688 0.404377 0.186572
H26   H     H_    0.916235 0.702441 0.510251 0.230386
H27   H     H_    0.722544 0.570094 0.399429 0.202139
H28   H     H_    0.803453 0.589576 0.505042 0.249853
O9    O     O_R   0.945590 0.357690 0.907690 -0.599272
O10   O     O_R   0.049970 0.462000 0.907620 -0.561784
C37   C     C_R   0.998252 0.381273 0.879601 0.831669
O11   O     O_R   0.854460 0.447890 0.906680 -0.588135
O12   O     O_R   0.958840 0.552200 0.906620 -0.556111
C38   C     C_R   0.878033 0.502263 0.879991 0.824043
Cu3   Cu    Cu3+1 0.935500 0.438280 0.997350 0.989692
Cu4   Cu    Cu3+1 0.059110 0.561800 0.997270 1.019603
O13   O     O_R   0.944630 0.538080 0.087010 -0.579459
O14   O     O_R   0.049020 0.642390 0.086940 -0.584784
O15   O     O_R   0.035760 0.447880 0.088010 -0.585793
O16   O     O_R   0.140150 0.552190 0.087940 -0.589388
C39   C     C_R   0.997485 0.618972 0.116000 0.823402
C40   C     C_R   0.116410 0.499912 0.116500 0.780261
O17   O     O_R   0.051980 0.090160 0.642200 -0.590853
O18   O     O_R   0.947040 0.090210 0.537310 -0.581579
C41   C     C_R   0.999328 0.118503 0.617980 0.781389
O19   O     O_R   0.142640 0.090190 0.552500 -0.548535
O20   O     O_R   0.037710 0.090250 0.447610 -0.596484
C42   C     C_R   0.118850 0.119897 0.500825 0.833412
Cu5   Cu    Cu3+1 0.062130 0.000020 0.562160 1.048104
Cu6   Cu    Cu3+1 0.937870 0.000080 0.437940 0.976314
O21   O     O_R   0.052960 0.909890 0.462790 -0.519821
O22   O     O_R   0.948020 0.909940 0.357900 -0.587769
O23   O     O_R   0.962290 0.909850 0.552490 -0.578256
O24   O     O_R   0.857360 0.909910 0.447600 -0.588959
C43   C     C_R   0.002342 0.882975 0.381862 0.859666
C44   C     C_R   0.881401 0.881302 0.500306 0.780299
C45   C     C_R   0.925118 0.237240 0.749378 0.164585
C46   C     C_R   0.000145 0.315225 0.814718 -0.068337
C47   C     C_R   0.078539 0.328273 0.814546 -0.196703
H29   H     H_    0.139181 0.387751 0.864294 0.161928
C48   C     C_R   0.078913 0.263138 0.750310 -0.197331
H30   H     H_    0.139681 0.273583 0.751622 0.153157
C49   C     C_R   0.000476 0.185818 0.684118 -0.071525
C50   C     C_R   0.925014 0.176423 0.686043 0.122188
C51   C     C_3   0.829793 0.116161 0.641777 -0.485374
C52   C     C_3   0.829644 0.185964 0.713617 -0.430737
H31   H     H_    0.794387 0.107514 0.576237 0.220652
H32   H     H_    0.814996 0.054995 0.644880 0.195282
H33   H     H_    0.794382 0.217802 0.689555 0.224246
H34   H     H_    0.814194 0.164829 0.757805 0.200239
C53   C     C_R   0.924140 0.688469 0.174534 0.071776
C54   C     C_R   0.999991 0.687186 0.183193 -0.194982
C55   C     C_R   0.080343 0.759057 0.252486 -0.248771
H35   H     H_    0.139921 0.761350 0.256247 0.195581
C56   C     C_R   0.084154 0.825669 0.318844 0.346415
C57   C     C_R   0.005250 0.819753 0.314333 -0.215624
C58   C     C_R   0.926783 0.753697 0.238763 0.050958
C59   C     C_3   0.843844 0.692733 0.228079 -0.508747
C60   C     C_3   0.841413 0.620602 0.157619 0.191270
H36   H     H_    0.854096 0.685305 0.286292 0.152042
H37   H     H_    0.791266 0.708156 0.204244 0.240460
H38   H     H_    0.848469 0.570343 0.173831 0.117344
S1    S     S_3+6 0.187848 0.914205 0.404449 0.026547
O25   O     O_2   0.206876 0.908351 0.485910 -0.227770
O26   O     O_2   0.257618 0.912575 0.382909 -0.287601
O27   O     O_3   0.189170 0.008669 0.421737 -0.527667
H39   H     H_    0.175327 0.007878 0.365749 0.324891
N1    N     N_R   0.861297 0.441361 0.709295 0.129765
O28   O     O_R   0.908475 0.508209 0.706674 -0.304520
O29   O     O_R   0.878996 0.378237 0.697265 -0.389768
N2    N     N_R   0.769225 0.584064 0.070701 0.140932
O30   O     O_R   0.755031 0.634320 0.040430 -0.371362
O31   O     O_R   0.720011 0.500016 0.021781 -0.364367
N3    N     N_R   0.798921 0.638335 0.707186 0.110675
O32   O     O_R   0.837603 0.612591 0.667102 -0.352751
O33   O     O_R   0.791746 0.706179 0.711209 -0.366178

loop_
_geom_bond_atom_site_label_1
_geom_bond_atom_site_label_2
_geom_bond_distance
_ccdc_geom_bond_type
C29   C36   1.491847 S    
C5    C6    1.544850 S    
O13   C39   1.294414 A    
C27   C28   1.541847 S    
C31   C32   1.400598 A    
O20   C42   1.297634 A    
C48   C49   1.410190 A    
C19   C20   1.519975 S    
Cu5   Cu6   2.691846 S    
C6    C10   1.559047 S    
O14   C39   1.289671 A    
Cu3   Cu4   2.683345 S    
C58   C59   1.495306 S    
C25   C26   1.384633 A    
Cu1   O7    1.974670 S    
C47   C48   1.410498 A    
C10   C11   1.559818 S    
C16   H12   1.082870 S    
C45   C50   1.349386 A    
C13   C20   1.491478 S    
C12   H7    1.112806 S    
C15   C16   1.400104 A    
N3    O33   1.301068 A    
C6    H3    1.115998 S    
O4    C2    1.295873 A    
O7    C4    1.295157 A    
Cu5   O23   1.969651 S    
C32   C33   1.404954 A    
C5    H1    1.109112 S    
Cu1   O5    1.968301 S    
C14   C15   1.402302 A    
C20   H16   1.111230 S    
C35   H25   1.110297 S    
O5    C3    1.295584 A    
C50   C51   1.488065 S    
C54   C55   1.403471 A    
C3    C30   1.446398 S    
C51   C52   1.541988 S    
O27   H39   0.990316 S    
C23   C24   1.411527 A    
C8    H6    1.113462 S    
Cu6   O22   1.971228 S    
C36   H28   1.110846 S    
C60   H38   1.113223 S    
C48   H30   1.083292 S    
O17   C41   1.292307 A    
O11   Cu3   1.973919 S    
S1    O27   1.679063 S    
C5    C9    1.562741 S    
C7    C11   1.547022 S    
C8    C12   1.544886 S    
C19   H13   1.111823 S    
C35   C36   1.519006 S    
O3    Cu1   1.975132 S    
O19   C42   1.296789 A    
C46   C47   1.412960 A    
Cu3   O13   1.971232 S    
C55   C56   1.405577 A    
C13   C18   1.380489 A    
O16   C40   1.290123 A    
C33   C34   1.396480 A    
Cu1   Cu2   2.687391 S    
N3    O32   1.300388 A    
C39   C54   1.445487 S    
O3    C2    1.292838 A    
O10   Cu4   1.971040 S    
C17   C18   1.397752 A    
O9    Cu3   1.971853 S    
N1    O29   1.300671 A    
C1    C14   1.439693 S    
C60   N2    1.463370 S    
Cu4   O16   1.973920 S    
O19   Cu5   1.967679 S    
C10   C38   1.485849 S    
C28   H22   1.111476 S    
C45   C52   1.489563 S    
O1    C1    1.293860 A    
C20   H15   1.112161 S    
O17   Cu5   1.971226 S    
C35   H26   1.111550 S    
C17   C42   1.456535 S    
C30   C31   1.406013 A    
O12   Cu4   1.975837 S    
N2    O31   1.300440 A    
C21   C22   1.387805 A    
Cu2   O8    1.975132 S    
C7    H9    1.115750 S    
C36   H27   1.112111 S    
O24   C44   1.296867 A    
C13   C14   1.391931 A    
C51   H31   1.111444 S    
O10   C37   1.291105 A    
O9    C37   1.292707 A    
C56   C57   1.420910 A    
C21   C26   1.350279 A    
C18   C19   1.493586 S    
O8    C4    1.293043 A    
C25   C40   1.439571 S    
C32   H24   1.083378 S    
O20   Cu6   1.969650 S    
Cu4   O14   1.971972 S    
C7    C9    1.562297 S    
C19   H14   1.111531 S    
C8    H5    1.113145 S    
C52   H34   1.111488 S    
C59   H36   1.110110 S    
S1    O25   1.502440 D    
C47   H29   1.083124 S    
O15   C40   1.291569 A    
C5    H2    1.113682 S    
C26   C27   1.487740 S    
C22   C23   1.414271 A    
C11   H10   1.113699 S    
O1    Cu1   1.968942 S    
C34   C35   1.493190 S    
O2    Cu2   1.968301 S    
C56   S1    1.771286 S    
C31   H23   1.083392 S    
O6    C3    1.291501 A    
O4    Cu2   1.974670 S    
C4    C22   1.447937 S    
C55   H35   1.083240 S    
Cu5   O21   1.971927 S    
O18   Cu6   1.971924 S    
N1    O28   1.300619 A    
H4    C11   1.108522 S    
O22   C43   1.296155 A    
N2    O30   1.302338 A    
C10   C12   1.560649 S    
C43   C57   1.455488 S    
C28   H21   1.110573 S    
C41   C49   1.438545 S    
C27   H19   1.111464 S    
O2    C1    1.289847 A    
C53   C58   1.379417 A    
C24   H18   1.083370 S    
C16   C17   1.409359 A    
C49   C50   1.384760 A    
C29   C34   1.381231 A    
O18   C41   1.293874 A    
C2    C9    1.486007 S    
Cu6   O24   1.967681 S    
C12   H8    1.112627 S    
C6    N1    1.470151 S    
C51   H32   1.111734 S    
O11   C38   1.293257 A    
C29   C30   1.393612 A    
O21   C43   1.296850 A    
O12   C38   1.293622 A    
O23   C44   1.293979 A    
Cu2   O6    1.968943 S    
C23   H17   1.083070 S    
C27   H20   1.111706 S    
C59   H37   1.111697 S    
C45   C46   1.387107 A    
C8    C9    1.552219 S    
C59   C60   1.524424 S    
C37   C46   1.444191 S    
C15   H11   1.083674 S    
C7    N3    1.469509 S    
C24   C25   1.409945 A    
C57   C58   1.397723 A    
C53   C54   1.388476 A    
C53   C60   1.493017 S    
C52   H33   1.111452 S    
Cu3   O15   1.975815 S    
C33   C44   1.449011 S    
C21   C28   1.489600 S    
S1    O26   1.503534 D    
