data_mof_unit_19496.cif
_audit_creation_date              2013-03-05T15:50:02-0500
_audit_creation_method            fapswitch 2.2
_symmetry_space_group_name_H-M    P1
_symmetry_Int_Tables_number       1
_space_group_crystal_system       triclinic
_cell_length_a                    8.400978
_cell_length_b                    12.873055
_cell_length_c                    17.445142
_cell_angle_alpha                 95.187712
_cell_angle_beta                  95.797069
_cell_angle_gamma                 97.542014
_cell_volume                      1850.43124448

loop_
_atom_site_label
_atom_site_type_symbol
_atom_site_description
_atom_site_fract_x
_atom_site_fract_y
_atom_site_fract_z
_atom_type_partial_charge
P1    P     P_3+3 0.990420 0.746550 0.559720 0.505621
O1    O     O_2   0.163080 0.763400 0.536930 -0.368407
O2    O     O_3   0.893330 0.628980 0.538660 -0.345784
O3    O     O_3   0.379830 0.697590 0.399610 -0.358756
O4    O     O_2   0.298464 0.886799 0.437550 -0.338023
O5    O     O_3   0.032918 0.771845 0.660575 -0.557217
O6    O     O_3   0.420340 0.860782 0.305961 -0.527100
H1    H     H_    0.416334 0.708608 0.255119 0.089876
C1    C     C_3   0.526632 0.820569 0.185531 -0.863161
H2    H     H_    0.411084 0.826862 0.150841 0.259354
H3    H     H_    0.604699 0.898039 0.192154 0.281889
P2    P     P_3+3 0.330880 0.415450 0.326700 0.559681
P3    P     P_3+3 0.910941 0.617325 0.257958 0.501996
O7    O     O_2   0.161570 0.447940 0.314920 -0.355074
O8    O     O_3   0.953630 0.643360 0.361440 -0.307551
O9    O     O_2   0.048371 0.566391 0.223343 -0.378120
O10   O     O_3   0.283844 0.279485 0.301950 -0.528181
O11   O     O_3   0.909553 0.733139 0.212920 -0.600303
C2    C     C_3   0.030249 0.812628 0.247936 0.486766
H4    H     H_    0.133484 0.781555 0.278610 0.160354
C3    C     C_3   0.092857 0.875347 0.184413 -0.927192
H5    H     H_    0.197584 0.934563 0.208626 0.278218
H6    H     H_    0.131551 0.821211 0.138948 0.266788
C4    C     C_3   0.885602 0.246806 0.295423 0.408837
H7    H     H_    0.995174 0.291603 0.328254 0.116388
C5    C     C_3   0.917203 0.136563 0.267935 -0.974467
H8    H     H_    0.813115 0.093137 0.228526 0.284044
H9    H     H_    0.025143 0.140702 0.235957 0.276585
H10   H     H_    0.937540 0.093198 0.319107 0.229918
Ba1   Ba    Ba6+2 0.158660 0.552610 0.463110 1.669260
C6    C     C_3   0.076568 0.682813 0.693243 0.215183
H11   H     H_    0.173389 0.652634 0.663139 0.122358
H12   H     H_    0.971307 0.619511 0.688124 0.098496
C7    C     C_3   0.140131 0.714868 0.778951 -0.626215
H13   H     H_    0.202942 0.652925 0.802738 0.140334
H14   H     H_    0.229659 0.787469 0.784439 0.273535
C8    C     C_3   0.299555 0.223773 0.366473 0.212184
H15   H     H_    0.189113 0.223604 0.394802 -0.033844
H16   H     H_    0.401475 0.259251 0.408732 0.149447
C9    C     C_3   0.319368 0.109885 0.340620 -0.042524
H17   H     H_    0.200154 0.062450 0.322625 0.108774
H18   H     H_    0.374294 0.075086 0.390828 0.106302
P4    P     P_3+3 0.819870 0.253440 0.440220 0.530022
O12   O     O_2   0.647210 0.236530 0.463040 -0.370626
O13   O     O_3   0.916960 0.371010 0.461280 -0.334850
O14   O     O_3   0.430470 0.302400 0.600330 -0.403329
O15   O     O_3   0.756052 0.239862 0.340178 -0.528501
P5    P     P_3+3 0.890442 0.373304 0.741467 0.462728
O16   O     O_3   0.388290 0.554800 0.590630 -0.387111
O17   O     O_3   0.856660 0.356630 0.638500 -0.367125
O18   O     O_2   0.774273 0.444387 0.774839 -0.420752
O19   O     O_3   0.845276 0.256539 0.784177 -0.586504
Ba2   Ba    Ba6+2 0.651510 0.447380 0.536830 1.620634
P6    P     P_3+3 0.433748 0.834253 0.402795 0.501746
C10   C     C_3   0.496138 0.785755 0.264473 0.387048
H19   H     H_    0.614970 0.775595 0.295267 0.058831
H20   H     H_    0.588226 0.761774 0.153729 0.227434
O20   O     O_3   0.422000 0.445190 0.409310 -0.349960
C11   C     C_3   0.555207 0.773698 0.667145 0.338205
H21   H     H_    0.569150 0.730029 0.610866 0.105033
C12   C     C_3   0.720201 0.820775 0.706797 -0.810278
H22   H     H_    0.784228 0.874885 0.670384 0.247906
H23   H     H_    0.710590 0.861775 0.764498 0.261236
H24   H     H_    0.787416 0.754720 0.716828 0.254698
P7    P     P_3+3 0.471409 0.577881 0.688001 0.438916
O21   O     O_2   0.648720 0.552000 0.685060 -0.360822
O22   O     O_3   0.480977 0.711443 0.718779 -0.610555
H25   H     H_    0.996780 0.916078 0.156771 0.257514
C13   C     C_3   0.811977 0.167936 0.729163 0.778674
H26   H     H_    0.730125 0.182937 0.678607 0.083592
C14   C     C_3   0.725486 0.079674 0.768651 -0.858992
H27   H     H_    0.654662 0.020920 0.724183 0.235899
H28   H     H_    0.811783 0.043036 0.806499 0.279967
H29   H     H_    0.642496 0.111168 0.806658 0.267503
P8    P     P_3+3 0.382143 0.165169 0.598278 0.501375
C15   C     C_3   0.405170 0.221599 0.747629 0.267222
H30   H     H_    0.339085 0.282583 0.724348 0.102340
O23   O     O_2   0.517790 0.115619 0.561069 -0.385116
O24   O     O_3   0.397447 0.131257 0.694111 -0.490121
H31   H     H_    0.532640 0.257937 0.762670 0.083225
H32   H     H_    0.199393 0.195525 0.814607 0.166431
C16   C     C_3   0.331820 0.195174 0.822219 -0.071132
H33   H     H_    0.382291 0.258442 0.869261 0.081623
C17   C     C_R   0.082944 0.179060 0.517256 -0.407472
C18   C     C_R   0.726914 0.823759 0.488811 -0.406201
C19   C     C_R   0.701007 0.996207 0.449061 -0.151114
C20   C     C_R   0.635762 0.890609 0.452032 0.279940
C21   C     C_R   0.887383 0.854743 0.518381 0.268080
C22   C     C_R   0.954811 0.964338 0.518669 0.006668
C23   C     C_R   0.858578 0.036582 0.483511 -0.029813
C24   C     C_R   0.924627 0.146072 0.483400 0.176577
C25   C     C_R   0.179717 0.109628 0.548110 0.287499
C26   C     C_R   0.114969 0.003669 0.550557 -0.030482
H34   H     H_    0.628228 0.046312 0.420111 0.186789
H35   H     H_    0.188685 0.953749 0.579842 0.181420
H36   H     H_    0.132483 0.261551 0.520458 0.154866
H37   H     H_    0.670431 0.745939 0.495625 0.187082
H38   H     H_    0.541773 0.544426 0.853039 0.168662
H39   H     H_    0.728548 0.560722 0.099861 0.182157
C27   C     C_R   0.604334 0.519480 0.274810 -0.060473
C28   C     C_R   0.444416 0.475591 0.252680 0.178751
C29   C     C_R   0.384514 0.462312 0.173587 -0.236062
C30   C     C_R   0.486289 0.493785 0.117781 0.030190
C31   C     C_R   0.649406 0.535027 0.141885 -0.276159
C32   C     C_R   0.708595 0.546212 0.220911 0.163394
C33   C     C_R   0.419627 0.507359 0.832730 -0.258520
C34   C     C_R   0.362631 0.500880 0.753599 0.282052
C35   C     C_R   0.098326 0.426443 0.779655 0.317218
C36   C     C_R   0.153122 0.432031 0.859059 -0.302352
C37   C     C_R   0.315377 0.471401 0.885946 0.029986
C38   C     C_1   0.373686 0.478218 0.967897 0.022639
C39   C     C_1   0.424067 0.484647 0.036193 0.052360
C40   C     C_R   0.204397 0.457328 0.727362 -0.493266
H40   H     H_    0.070293 0.405594 0.899329 0.180151
H41   H     H_    0.260954 0.426256 0.155616 0.212589
H42   H     H_    0.160627 0.453991 0.666506 0.168700
C41   C     C_2   0.006950 0.731572 0.827672 0.681251
H43   H     H_    0.912618 0.666824 0.831977 -0.000591
O25   O     O_2   0.004103 0.817435 0.863061 -0.510870
N1    N     N_R   0.417023 0.103291 0.275986 0.288811
O26   O     O_R   0.360832 0.124646 0.207782 -0.346630
O27   O     O_R   0.548578 0.060646 0.282946 -0.402218
C42   C     C_2   0.455697 0.858837 0.650802 0.484637
H44   H     H_    0.363018 0.876179 0.686970 0.116086
O28   O     O_2   0.481560 0.911727 0.597803 -0.596483
N2    N     N_R   0.961583 0.138390 0.703143 0.199193
O29   O     O_R   0.059485 0.208059 0.675637 -0.494300
O30   O     O_R   0.999797 0.044089 0.707188 -0.402447
N3    N     N_R   0.364050 0.093409 0.846023 0.280973
O31   O     O_R   0.444790 0.088819 0.913030 -0.352846
O32   O     O_R   0.293110 0.006598 0.806020 -0.307845
N4    N     N_R   0.667483 0.528280 0.353201 0.255920
O33   O     O_R   0.768376 0.466234 0.374002 -0.333598
O34   O     O_R   0.648264 0.608450 0.399852 -0.403054
C43   C     C_2   0.954975 0.882322 0.302059 0.412718
H45   H     H_    0.845195 0.912578 0.282578 0.046153
O35   O     O_2   0.015255 0.904589 0.368589 -0.609084
C44   C     C_2   0.841085 0.302739 0.226184 0.616100
H46   H     H_    0.717457 0.317080 0.212440 0.014011
O36   O     O_2   0.941836 0.329364 0.183350 -0.576044

loop_
_geom_bond_atom_site_label_1
_geom_bond_atom_site_label_2
_geom_bond_distance
_ccdc_geom_bond_type
C10   H19   1.113982 S    
N2    O29   1.294210 A    
C12   H24   1.097975 S    
Ba1   O13   2.883819 S    
C38   C39   1.215155 T    
C15   O24   1.414196 S    
O6    C10   1.410771 S    
H32   C16   1.107672 S    
C42   H44   1.083310 S    
C27   C32   1.384012 A    
C28   C29   1.407407 A    
O16   P7    1.753836 S    
P3    O11   1.747780 S    
P1    Ba1   3.423117 S    
C2    C3    1.524665 S    
C4    C5    1.521850 S    
O11   C2    1.392055 S    
C8    C9    1.529763 S    
C13   H26   1.109568 S    
C41   O25   1.220635 D    
P6    C20   1.847680 S    
C7    H13   1.101151 S    
C42   O28   1.217043 D    
C33   C34   1.406071 A    
C29   H41   1.082906 S    
C2    C43   1.487503 S    
C35   C36   1.407266 A    
C13   C14   1.522958 S    
P1    O1    1.535774 D    
C17   H36   1.082839 S    
C12   H23   1.108998 S    
C37   C38   1.454683 S    
C31   C32   1.405502 A    
O19   C13   1.401554 S    
C19   H34   1.070033 S    
C11   O22   1.398345 S    
O12   Ba2   2.891148 S    
P4    Ba2   3.423680 S    
P5    O18   1.543235 D    
C34   C40   1.387784 A    
C2    H4    1.111099 S    
N4    O33   1.286889 A    
P7    O22   1.743266 S    
P2    O10   1.747398 S    
C6    H12   1.111631 S    
C1    C10   1.521750 S    
C17   C24   1.394920 A    
C1    H2    1.107211 S    
C7    H14   1.110436 S    
C40   H42   1.083000 S    
P2    Ba1   3.388227 S    
C7    C41   1.497559 S    
P5    O17   1.778903 S    
H39   C31   1.083278 S    
O13   Ba2   2.934553 S    
C11   H21   1.111027 S    
C26   H35   1.075823 S    
C3    H5    1.106440 S    
C29   C30   1.411211 A    
O7    Ba1   2.809069 S    
H1    C10   1.111842 S    
O14   P8    1.756206 S    
N1    O27   1.296828 A    
C18   C20   1.382830 A    
C11   C42   1.493390 S    
Ba1   Ba2   4.619932 S    
C11   C12   1.508987 S    
O17   Ba2   2.786865 S    
P1    O5    1.751594 S    
O4    P6    1.543916 D    
C43   H45   1.082902 S    
C15   H30   1.102722 S    
P3    C32   1.846065 S    
C19   C23   1.409200 A    
C15   C16   1.541313 S    
C14   H28   1.110578 S    
C19   C20   1.404955 A    
C4    C44   1.501335 S    
P4    C24   1.904198 S    
C30   C39   1.454711 S    
P1    O2    1.614236 S    
C35   C40   1.386056 A    
O2    Ba1   2.933697 S    
P4    O12   1.535998 D    
C8    H15   1.094255 S    
P4    O13   1.614234 S    
C6    H11   1.104845 S    
P5    O19   1.751693 S    
C5    H8    1.109298 S    
C6    C7    1.536341 S    
O10   C8    1.392695 S    
C4    H7    1.096515 S    
C16   N3    1.459698 S    
Ba2   O21   2.809259 S    
C1    H3    1.109143 S    
C44   O36   1.220731 D    
P8    C25   1.853679 S    
C36   H40   1.083219 S    
C9    H17   1.102602 S    
C9    N1    1.462689 S    
Ba1   O16   2.789014 S    
P2    O7    1.533935 D    
C13   N2    1.462818 S    
P7    O21   1.573249 D    
P3    O8    1.796695 S    
C3    H25   1.112261 S    
N1    O26   1.301495 A    
O8    Ba1   2.786254 S    
N3    O31   1.301084 A    
C33   C37   1.406665 A    
C18   C21   1.386987 A    
C43   O35   1.211886 D    
N2    O30   1.301892 A    
O3    P6    1.752532 S    
C4    O15   1.400294 S    
C15   H31   1.106338 S    
C14   H29   1.099576 S    
Ba2   O20   2.788400 S    
C27   N4    1.405026 S    
C5    H9    1.109592 S    
H38   C33   1.083353 S    
O1    Ba1   2.890486 S    
C3    H6    1.109959 S    
P2    O20   1.552381 S    
P2    C28   1.847242 S    
C8    H16   1.092770 S    
C36   C37   1.407625 A    
O2    Ba2   2.884419 S    
C23   C24   1.445646 A    
P5    C35   1.825020 S    
P4    O15   1.759285 S    
P1    C21   1.892402 S    
O16   Ba2   2.944521 S    
Ba1   O20   2.945375 S    
O14   Ba2   2.835188 S    
C9    H18   1.106494 S    
C25   C26   1.406665 A    
O5    C6    1.399668 S    
C1    H20   1.110531 S    
C22   C26   1.412503 A    
C12   H22   1.108472 S    
P8    O23   1.546671 D    
C18   H37   1.072836 S    
C44   H46   1.085487 S    
C14   H27   1.100168 S    
C21   C22   1.449021 A    
C5    H10   1.105479 S    
N4    O34   1.293016 A    
C16   H33   1.111211 S    
P3    O9    1.547744 D    
C30   C31   1.410232 A    
C27   C28   1.389127 A    
C17   C25   1.392444 A    
O6    P6    1.748995 S    
C22   C23   1.447428 A    
C41   H43   1.085517 S    
P8    O24   1.762219 S    
P7    C34   1.818198 S    
O3    Ba1   2.835853 S    
N3    O32   1.300446 A    
