data_mof_unit_61881.cif
_audit_creation_date              2012-12-10T21:15:53-0500
_audit_creation_method            fapswitch 2.2
_symmetry_space_group_name_H-M    P1
_symmetry_Int_Tables_number       1
_space_group_crystal_system       triclinic
_cell_length_a                    13.656224
_cell_length_b                    16.817434
_cell_length_c                    17.59665
_cell_angle_alpha                 90.218923
_cell_angle_beta                  91.148909
_cell_angle_gamma                 83.041039
_cell_volume                      4010.71133133

loop_
_atom_site_label
_atom_site_type_symbol
_atom_type_description
_atom_site_fract_x
_atom_site_fract_y
_atom_site_fract_z
_atom_type_partial_charge
C1    C     C_R   0.497939 0.500460 0.646557 0.925927
C2    C     C_R   0.502060 0.499540 0.353443 0.925930
C3    C     C_R   0.457369 0.566001 0.152671 -0.131868
C4    C     C_R   0.542595 0.433991 0.847330 -0.131871
C5    C     C_R   0.502880 0.499883 0.113697 0.068891
C6    C     C_R   0.497088 0.500111 0.886303 0.068890
C7    C     C_1   0.500850 0.500026 0.033715 0.000153
C8    C     C_1   0.499112 0.499968 0.966285 0.000153
C9    C     C_R   0.564337 0.161041 0.547771 -0.262715
C10   C     C_R   0.435663 0.838959 0.452229 -0.262713
C11   C     C_R   0.563639 0.245098 0.546926 0.469018
C12   C     C_R   0.436361 0.754902 0.453074 0.469020
C13   C     C_R   0.437279 0.256945 0.452283 0.500669
C14   C     C_R   0.562721 0.743055 0.547717 0.500675
C15   C     C_R   0.436373 0.173078 0.451913 -0.257839
C16   C     C_R   0.563627 0.826922 0.548086 -0.257838
C17   C     C_R   0.500109 0.124004 0.500075 0.011021
C18   C     C_R   0.499891 0.875996 0.499925 0.011020
C19   C     C_1   0.500063 0.036437 0.500050 0.053871
C20   C     C_1   0.499937 0.963562 0.499950 0.053872
C21   C     C_R   0.685914 0.485740 0.500012 0.924270
C22   C     C_R   0.314086 0.514259 0.499988 0.924263
C23   C     C_1   0.210715 0.525287 0.500712 -0.064240
C24   C     C_1   0.789285 0.474713 0.499288 -0.064238
C25   C     C_2   0.019567 0.534543 0.502092 0.279389
C26   C     C_2   0.980433 0.465456 0.497907 0.279390
C27   C     C_1   0.876790 0.467595 0.498574 0.090738
C28   C     C_1   0.123210 0.532405 0.501426 0.090737
C29   C     C_R   0.550435 0.433493 0.152146 -0.170866
C30   C     C_R   0.449549 0.566506 0.847853 -0.170869
C31   C     C_R   0.552072 0.432291 0.231035 0.397117
C32   C     C_R   0.447924 0.567712 0.768964 0.397122
C33   C     C_R   0.504712 0.498647 0.271057 -0.135466
C34   C     C_R   0.495280 0.501353 0.728943 -0.135472
C35   C     C_R   0.458485 0.565501 0.231358 -0.204459
C36   C     C_R   0.541491 0.434494 0.768643 -0.204460
H1    H     H_    0.586531 0.382921 0.120822 0.180371
H2    H     H_    0.413458 0.617081 0.879177 0.180371
H3    H     H_    0.421908 0.616818 0.261108 0.222351
H4    H     H_    0.578063 0.383174 0.738894 0.222351
H5    H     H_    0.420741 0.617533 0.122285 0.167626
H6    H     H_    0.579211 0.382454 0.877717 0.167625
H7    H     H_    0.615277 0.124909 0.585407 0.199901
H8    H     H_    0.384723 0.875091 0.414594 0.199901
H9    H     H_    0.386155 0.146457 0.413806 0.200733
H10   H     H_    0.613845 0.853542 0.586194 0.200733
N1    N     N_R   0.499970 0.292770 0.499970 -0.158516
N2    N     N_R   0.500030 0.707230 0.500030 -0.158515
O1    O     O_R   0.500000 0.433430 0.610870 -0.605317
O2    O     O_R   0.500000 0.566570 0.389130 -0.605316
O3    O     O_R   0.500010 0.566520 0.610900 -0.541088
O4    O     O_R   0.499990 0.433480 0.389100 -0.541091
O5    O     O_R   0.640340 0.423880 0.499970 -0.565741
O6    O     O_R   0.359660 0.576120 0.500030 -0.565743
O7    O     O_R   0.640350 0.556960 0.500000 -0.579960
O8    O     O_R   0.359650 0.443040 0.500000 -0.579959
Zn1   Zn    Zn3+2 0.500000 0.411140 0.499980 1.091445
Zn2   Zn    Zn3+2 0.500000 0.588860 0.500020 1.091447
Cl1   Cl    Cl    0.052186 0.371032 0.491243 -0.506621
Cl2   Cl    Cl    0.947814 0.628968 0.508757 -0.506623
Cl3   Cl    Cl    0.618135 0.348368 0.276337 -0.536023
Cl4   Cl    Cl    0.381882 0.651643 0.723661 -0.536018
Cl5   Cl    Cl    0.648112 0.286649 0.606835 -0.570239
Cl6   Cl    Cl    0.351887 0.713351 0.393165 -0.570242
Cl7   Cl    Cl    0.356571 0.313630 0.388745 -0.492534
Cl8   Cl    Cl    0.643429 0.686369 0.611254 -0.492527

loop_
_geom_bond_atom_site_label_1
_geom_bond_atom_site_label_2
_ccdc_geom_bond_type
C30   C32   A    
C31   C33   A    
N2    Zn2   S    
C25   Cl2   S    
N1    Zn1   S    
C1    O3    A    
C26   Cl1   S    
C31   Cl3   S    
C11   N1    A    
C19   C20   T    
C24   C27   T    
C3    C35   A    
C12   N2    A    
C4    H6    S    
C4    C36   A    
C14   Cl8   S    
C32   Cl4   S    
C7    C8    T    
C29   C31   A    
O3    Zn2   S    
C13   Cl7   S    
C23   C28   T    
C25   C28   S    
C21   O5    A    
C9    C11   A    
C26   C27   S    
O7    Zn2   S    
C2    O4    A    
C10   C18   A    
C10   C12   A    
C2    C33   S    
C9    C17   A    
C17   C19   S    
C34   C36   A    
C1    C34   S    
C5    C29   A    
C22   O6    A    
C13   C15   A    
C35   H3    S    
C12   Cl6   S    
C14   C16   A    
C9    H7    S    
C4    C6    A    
C29   H1    S    
O4    Zn1   S    
C15   H9    S    
C22   O8    A    
C10   H8    S    
O2    Zn2   S    
C36   H4    S    
O1    Zn1   S    
O8    Zn1   S    
C30   H2    S    
C18   C20   S    
C5    C7    S    
C1    O1    A    
O6    Zn2   S    
C21   C24   S    
C16   H10   S    
C15   C17   A    
C14   N2    A    
C22   C23   S    
C3    H5    S    
C21   O7    A    
C6    C8    S    
C2    O2    A    
C33   C35   A    
C25   C26   D    
C11   Cl5   S    
C13   N1    A    
C6    C30   A    
C16   C18   A    
C32   C34   A    
C3    C5    A    
O5    Zn1   S    
