data_mof_unit_20641.cif
_audit_creation_date              2012-12-11T17:43:17-0500
_audit_creation_method            fapswitch 2.2
_symmetry_space_group_name_H-M    P1
_symmetry_Int_Tables_number       1
_space_group_crystal_system       triclinic
_cell_length_a                    15.100961
_cell_length_b                    15.206279
_cell_length_c                    17.237288
_cell_angle_alpha                 108.116026
_cell_angle_beta                  106.036119
_cell_angle_gamma                 109.346145
_cell_volume                      3216.5042741

loop_
_atom_site_label
_atom_site_type_symbol
_atom_type_description
_atom_site_fract_x
_atom_site_fract_y
_atom_site_fract_z
_atom_type_partial_charge
C1    C     C_R   0.092134 0.279848 0.040212 -0.116590
C2    C     C_R   0.907866 0.720152 0.959790 -0.116589
C3    C     C_R   0.032051 0.557181 0.741129 0.075908
C4    C     C_R   0.967949 0.442819 0.258870 0.075908
C5    C     C_R   0.682055 0.208866 0.741557 0.042270
C6    C     C_R   0.317946 0.791134 0.258443 0.042270
C7    C     C_R   0.350688 0.547294 0.038945 0.063171
C8    C     C_R   0.649311 0.452703 0.961053 0.063172
C9    C     C_R   0.926078 0.903144 0.929839 -0.226454
C10   C     C_R   0.073921 0.096856 0.070165 -0.226453
C11   C     C_R   0.992674 0.911606 0.009704 0.056205
C12   C     C_R   0.007325 0.088394 0.990300 0.056205
C13   C     C_R   0.067469 0.009212 0.081227 0.048871
C14   C     C_R   0.932530 0.990788 0.918776 0.048872
C15   C     C_R   0.898759 0.022397 0.780974 -0.173945
C16   C     C_R   0.101241 0.977603 0.219030 -0.173944
C17   C     C_R   0.723769 0.946470 0.666784 -0.165261
C18   C     C_R   0.276232 0.053530 0.333219 -0.165262
C19   C     C_R   0.590011 0.714552 0.330942 -0.092491
C20   C     C_R   0.409988 0.285445 0.669056 -0.092491
C21   C     C_R   0.563094 0.676093 0.238404 -0.090826
C22   C     C_R   0.436904 0.323904 0.761594 -0.090824
C23   C     C_R   0.939187 0.508273 0.743874 -0.068397
C24   C     C_R   0.060812 0.491726 0.256126 -0.068397
C25   C     C_R   0.529000 0.570142 0.185860 0.069802
C26   C     C_R   0.470998 0.429854 0.814137 0.069802
C27   C     C_R   0.520863 0.502788 0.226714 -0.251883
C28   C     C_R   0.479136 0.497209 0.773284 -0.251883
C29   C     C_R   0.545926 0.540979 0.318966 0.318453
C30   C     C_R   0.454073 0.459018 0.681032 0.318455
C31   C     C_R   0.581851 0.647150 0.371282 -0.064832
C32   C     C_R   0.418148 0.352847 0.628716 -0.064832
C33   C     C_R   0.575172 0.495375 0.064399 -0.210760
C34   C     C_R   0.424826 0.504622 0.935599 -0.210760
C35   C     C_R   0.565383 0.465100 0.975686 0.053511
C36   C     C_R   0.434615 0.534896 0.024311 0.053511
C37   C     C_R   0.489347 0.468497 0.910074 0.036986
C38   C     C_R   0.510651 0.531500 0.089924 0.036986
C39   C     C_R   0.830333 0.006943 0.698557 0.271293
C40   C     C_R   0.169667 0.993058 0.301447 0.271293
C41   C     C_R   0.960227 0.436670 0.337109 -0.020136
C42   C     C_R   0.039772 0.563329 0.662891 -0.020137
C43   C     C_R   0.959940 0.602111 0.546547 0.287101
C44   C     C_R   0.040060 0.397888 0.453453 0.287101
C45   C     C_R   0.732107 0.208986 0.820721 -0.134740
C46   C     C_R   0.267894 0.791014 0.179278 -0.134741
C47   C     C_R   0.002023 0.625619 0.636247 -0.252153
C48   C     C_R   0.997976 0.374380 0.363753 -0.252153
C49   C     C_R   0.046545 0.482170 0.602921 0.209439
C50   C     C_R   0.953455 0.517829 0.397079 0.209439
C51   C     C_R   0.023307 0.470272 0.514750 -0.065504
C52   C     C_R   0.976692 0.529728 0.485250 -0.065504
C53   C     C_R   0.603374 0.120192 0.661680 0.050433
C54   C     C_R   0.396627 0.879807 0.338320 0.050434
C55   C     C_R   0.569906 0.016527 0.427655 -0.225080
C56   C     C_R   0.430094 0.983473 0.572345 -0.225080
C57   C     C_R   0.493019 0.940857 0.343749 0.188999
C58   C     C_R   0.506982 0.059142 0.656251 0.188999
C59   C     C_R   0.374526 0.896889 0.413226 -0.242951
C60   C     C_R   0.625475 0.103111 0.586774 -0.242950
C61   C     C_R   0.450693 0.970162 0.496370 0.130291
C62   C     C_R   0.549307 0.029838 0.503630 0.130292
C63   C     C_R   0.685314 0.901468 0.717246 -0.087209
C64   C     C_R   0.314686 0.098531 0.282757 -0.087208
C65   C     C_R   0.753318 0.916096 0.799248 -0.159651
C66   C     C_R   0.246681 0.083903 0.200754 -0.159651
C67   C     C_R   0.296314 0.586892 0.995243 -0.110111
C68   C     C_R   0.703685 0.413107 0.004756 -0.110112
C69   C     C_R   0.860722 0.976961 0.832017 0.063039
C70   C     C_R   0.139278 0.023039 0.167986 0.063038
C71   C     C_R   0.732081 0.305060 0.745149 0.192402
C72   C     C_R   0.267920 0.694939 0.254851 0.192402
C73   C     C_R   0.291332 0.491050 0.071044 -0.095005
C74   C     C_R   0.708667 0.508949 0.928955 -0.095006
C75   C     C_R   0.112058 0.589637 0.820909 -0.083077
C76   C     C_R   0.887942 0.410363 0.179091 -0.083077
C77   C     C_R   0.917890 0.194619 0.966144 -0.112402
C78   C     C_R   0.082109 0.805381 0.033858 -0.112401
C79   C     C_R   0.006923 0.182588 0.990501 0.050556
C80   C     C_R   0.993077 0.817412 0.009502 0.050556
H1    H     H_    0.171981 0.298387 0.075667 0.103336
H2    H     H_    0.828018 0.701613 0.924335 0.103335
H3    H     H_    0.981237 0.068632 0.804653 0.149144
H4    H     H_    0.018762 0.931369 0.195352 0.149144
H5    H     H_    0.602007 0.677173 0.442809 0.165456
H6    H     H_    0.397992 0.322824 0.557189 0.165455
H7    H     H_    0.617106 0.796556 0.371388 0.159148
H8    H     H_    0.382892 0.203441 0.628610 0.159148
H9    H     H_    0.571581 0.729016 0.208009 0.158015
H10   H     H_    0.428417 0.270981 0.791988 0.158015
H11   H     H_    0.494926 0.420869 0.186845 0.145523
H12   H     H_    0.505073 0.579128 0.813153 0.145523
H13   H     H_    0.637539 0.497251 0.115772 0.152749
H14   H     H_    0.362460 0.502746 0.884225 0.152750
H15   H     H_    0.011961 0.319877 0.316853 0.168404
H16   H     H_    0.988039 0.680123 0.683146 0.168404
H17   H     H_    0.864060 0.484318 0.694111 0.158939
H18   H     H_    0.135940 0.515682 0.305889 0.158940
H19   H     H_    0.701575 0.150175 0.593184 0.177833
H20   H     H_    0.298426 0.849824 0.406815 0.177833
H21   H     H_    0.645632 0.063482 0.433707 0.184233
H22   H     H_    0.354369 0.936517 0.566293 0.184233
H23   H     H_    0.670810 0.933873 0.602852 0.146974
H24   H     H_    0.329191 0.066127 0.397151 0.146973
H25   H     H_    0.602767 0.854812 0.692599 0.164537
H26   H     H_    0.397233 0.145186 0.307402 0.164537
H27   H     H_    0.722241 0.880580 0.837562 0.135356
H28   H     H_    0.277758 0.119419 0.162440 0.135356
H29   H     H_    0.708345 0.148411 0.841645 0.139794
H30   H     H_    0.291655 0.851588 0.158355 0.139793
H31   H     H_    0.322266 0.638656 0.966295 0.109800
H32   H     H_    0.677734 0.361342 0.033703 0.109800
H33   H     H_    0.312794 0.453527 0.111675 0.115064
H34   H     H_    0.687204 0.546471 0.888323 0.115064
H35   H     H_    0.193605 0.637582 0.842623 0.108823
H36   H     H_    0.806395 0.362418 0.157377 0.108823
H37   H     H_    0.838609 0.135760 0.937063 0.109780
H38   H     H_    0.161391 0.864240 0.062939 0.109779
H39   H     H_    0.871968 0.827691 0.873493 0.142331
H40   H     H_    0.128030 0.172309 0.126510 0.142332
N1    N     N_R   0.055660 0.348550 0.045620 -0.043120
N2    N     N_R   0.944340 0.651450 0.954380 -0.043121
N3    N     N_R   0.960830 0.507850 0.823700 -0.045006
N4    N     N_R   0.039170 0.492150 0.176300 -0.045006
N5    N     N_R   0.811290 0.303410 0.871650 -0.056674
N6    N     N_R   0.188710 0.696590 0.128350 -0.056674
N7    N     N_R   0.205200 0.552990 0.997670 -0.043502
N8    N     N_R   0.794800 0.447010 0.002330 -0.043502
N9    N     N_R   0.814800 0.361830 0.823700 -0.061948
N10   N     N_R   0.185200 0.638170 0.176300 -0.061948
N11   N     N_R   0.201680 0.494570 0.045620 -0.044025
N12   N     N_R   0.798320 0.505430 0.954380 -0.044025
N13   N     N_R   0.068420 0.560530 0.871650 -0.049323
N14   N     N_R   0.931580 0.439470 0.128350 -0.049323
N15   N     N_R   0.948070 0.295860 0.997670 -0.047954
N16   N     N_R   0.051930 0.704140 0.002330 -0.047954
Ni1   Ni    Ni4+2 0.119340 0.493420 0.109960 0.249029
Ni2   Ni    Ni4+2 0.880660 0.506580 0.890040 0.249029
Ni3   Ni    Ni4+2 0.872590 0.372590 0.000000 0.228128
Ni4   Ni    Ni4+2 0.127410 0.627410 0.000000 0.228128
I1    I     I_    0.528201 0.437949 0.378541 -0.318551
I2    I     I_    0.471798 0.562048 0.621457 -0.318549
I3    I     I_    0.945740 0.639266 0.359386 -0.298374
I4    I     I_    0.054260 0.360734 0.640615 -0.298373
I5    I     I_    0.842766 0.651032 0.514941 -0.297644
I6    I     I_    0.157233 0.348967 0.485059 -0.297645
I7    I     I_    0.887544 0.072773 0.620958 -0.318948
I8    I     I_    0.112457 0.927229 0.379047 -0.318947
I9    I     I_    0.470397 0.080428 0.768874 -0.458581
I10   I     I_    0.529604 0.919571 0.231125 -0.458580
I11   I     I_    0.663457 0.362653 0.661741 -0.448023
I12   I     I_    0.336543 0.637347 0.338258 -0.448023

loop_
_geom_bond_atom_site_label_1
_geom_bond_atom_site_label_2
_ccdc_geom_bond_type
C63   C65   A    
C3    C42   S    
C31   H5    S    
C48   H15   S    
C74   N12   A    
C27   C29   A    
C34   C37   A    
C7    C36   S    
C3    C23   A    
C16   H4    S    
N16   Ni4   S    
C60   H19   S    
C19   C31   A    
C73   N11   A    
C7    C73   A    
C21   H9    S    
N5    Ni3   S    
N15   Ni3   S    
N3    Ni2   S    
N6    Ni4   S    
N3    N13   A    
C24   H18   S    
C5    C53   S    
C78   H38   S    
N8    Ni3   S    
C77   H37   S    
C17   C39   A    
C4    C24   A    
C45   H29   S    
C43   C52   A    
C13   C70   S    
N6    N10   A    
N12   Ni2   S    
C74   H34   S    
C12   C79   S    
C24   N4    A    
C73   H33   S    
C60   C62   A    
C68   H32   S    
N1    Ni1   S    
C18   C40   A    
C76   H36   S    
C71   I11   S    
N9    Ni2   S    
C45   N5    A    
C72   I12   S    
C44   I6    S    
C47   H16   S    
C27   H11   S    
C63   H25   S    
C3    C75   A    
C68   N8    A    
C34   C36   A    
C58   I9    S    
C77   C79   A    
C32   H6    S    
C4    C41   S    
C59   H20   S    
C6    C54   S    
N8    N12   A    
C53   C60   A    
N7    N11   A    
C54   C59   A    
C2    N2    A    
C15   C69   A    
C59   C61   A    
C40   I8    S    
C51   C52   A    
N4    Ni1   S    
C16   C70   A    
N2    Ni2   S    
C66   H28   S    
N14   Ni3   S    
C76   N14   A    
C15   H3    S    
C49   C51   A    
C5    C45   A    
C8    C35   S    
C64   C66   A    
C6    C72   A    
C9    C14   A    
C43   I5    S    
C67   N7    A    
C25   C38   S    
C71   N9    A    
C9    H39   S    
C50   C52   A    
C29   I1    S    
C57   I10   S    
C8    C74   A    
C22   H10   S    
C28   H12   S    
C18   H24   S    
N1    N15   A    
C64   H26   S    
C49   I4    S    
C9    C11   A    
C15   C39   A    
C10   C12   A    
C16   C40   A    
C44   C51   A    
C67   H31   S    
C23   H17   S    
C12   C14   A    
C8    C68   A    
C55   C57   A    
C1    C79   A    
C14   C69   S    
C2    H2    S    
C75   H35   S    
N7    Ni4   S    
N2    N16   A    
C36   C38   A    
C41   C50   A    
C50   I3    S    
C20   C32   A    
C21   C25   A    
C6    C46   A    
C35   C37   A    
C46   N6    A    
C34   H14   S    
C20   C22   A    
C43   C47   A    
C10   C13   A    
C33   H13   S    
C23   N3    A    
C53   C58   A    
C75   N13   A    
C26   C37   S    
C72   N10   A    
C25   C27   A    
C55   H21   S    
C26   C28   A    
C33   C38   A    
C30   I2    S    
N4    N14   A    
C46   H30   S    
C17   H23   S    
C19   H7    S    
C56   H22   S    
C5    C71   A    
C17   C63   A    
C30   C32   A    
C11   C13   A    
C18   C64   A    
C66   C70   A    
C78   N16   A    
C65   C69   A    
C20   H8    S    
C28   C30   A    
C33   C35   A    
C41   C48   A    
C56   C58   A    
C78   C80   A    
C42   C47   A    
C61   C62   A    
C1    N1    A    
C4    C76   A    
C2    C80   A    
C11   C80   S    
C42   C49   A    
C7    C67   A    
N5    N9    A    
C55   C62   A    
N13   Ni4   S    
C29   C31   A    
C22   C26   A    
C39   I7    S    
C56   C61   A    
C77   N15   A    
N10   Ni1   S    
C1    H1    S    
C65   H27   S    
C10   H40   S    
C44   C48   A    
N11   Ni1   S    
C19   C21   A    
C54   C57   A    
