data_mof_unit_61344.cif
_audit_creation_date              2012-12-11T15:00:53-0500
_audit_creation_method            fapswitch 2.2
_symmetry_space_group_name_H-M    P1
_symmetry_Int_Tables_number       1
_space_group_crystal_system       triclinic
_cell_length_a                    13.26175
_cell_length_b                    13.236555
_cell_length_c                    26.821077
_cell_angle_alpha                 96.584042
_cell_angle_beta                  97.110049
_cell_angle_gamma                 61.783558
_cell_volume                      4108.29071496

loop_
_atom_site_label
_atom_site_type_symbol
_atom_type_description
_atom_site_fract_x
_atom_site_fract_y
_atom_site_fract_z
_atom_type_partial_charge
C1    C     C_R   0.378231 0.725061 0.435903 0.533894
C2    C     C_3   0.727090 0.288568 0.196474 0.284728
C3    C     C_3   0.822889 0.322580 0.192456 0.015014
C4    C     C_R   0.394853 0.373405 0.417624 0.532765
C5    C     C_3   0.777809 0.451293 0.209600 -0.228454
C6    C     C_3   0.742249 0.472994 0.264182 -0.048720
C7    C     C_1   0.854298 0.305087 0.140864 0.023384
C8    C     C_1   0.735280 0.380438 0.337723 0.097691
C9    C     C_1   0.707668 0.401423 0.380003 0.055250
C10   C     C_3   0.437798 0.725556 0.270838 0.386070
C11   C     C_3   0.349913 0.940514 0.287556 -0.001725
C12   C     C_1   0.331327 0.339681 0.268025 0.024391
C13   C     C_3   0.334300 0.957491 0.230022 -0.203331
C14   C     C_1   0.303007 0.892279 0.101882 0.000861
C15   C     C_3   0.335723 0.832635 0.295968 0.155563
C16   C     C_R   0.672050 0.428070 0.429661 0.549275
C17   C     C_3   0.434967 0.742509 0.214026 -0.155013
C18   C     C_3   0.327516 0.854148 0.198856 -0.024164
C19   C     C_3   0.218858 0.849241 0.211365 -0.240660
C20   C     C_3   0.219730 0.843314 0.269068 -0.051352
C21   C     C_1   0.319489 0.868969 0.145032 -0.063506
C22   C     C_1   0.343882 0.813979 0.349517 0.025640
C23   C     C_1   0.344610 0.347588 0.320901 -0.032730
C24   C     C_1   0.357174 0.781735 0.390938 0.006495
C25   C     C_3   0.379319 0.426055 0.731457 0.754005
C26   C     C_3   0.407314 0.222966 0.714392 -0.261935
C27   C     C_3   0.394995 0.216690 0.770309 -0.240764
C28   C     C_R   0.382024 0.724144 0.575611 0.551152
C29   C     C_1   0.296592 0.309940 0.888058 -0.007409
C30   C     C_3   0.334862 0.347892 0.698487 0.071213
C31   C     C_3   0.367225 0.422420 0.788389 0.070617
C32   C     C_3   0.318012 0.338202 0.794260 -0.012341
C33   C     C_3   0.197945 0.384221 0.764704 -0.262564
C34   C     C_1   0.362660 0.356720 0.365775 0.000476
C35   C     C_3   0.208059 0.389115 0.708153 -0.268867
C36   C     C_1   0.306816 0.328542 0.846811 -0.069456
C37   C     C_1   0.346265 0.352227 0.645383 0.016528
C38   C     C_1   0.364111 0.359505 0.603586 0.029951
C39   C     C_1   0.888213 0.294365 0.864556 -0.001873
C40   C     C_R   0.396066 0.375754 0.557721 0.549854
C41   C     C_1   0.860303 0.306217 0.820277 -0.029409
C42   C     C_1   0.837294 0.320217 0.768049 0.025193
C43   C     C_1   0.820401 0.333673 0.723547 0.034217
C44   C     C_1   0.798149 0.352659 0.671729 -0.014089
C45   C     C_3   0.697113 0.305881 0.252146 0.286408
C46   C     C_1   0.771317 0.373075 0.628039 0.008262
C47   C     C_1   0.292672 0.893916 0.862820 -0.002444
C48   C     C_1   0.312567 0.866011 0.819282 -0.029299
C49   C     C_1   0.330760 0.841972 0.767505 0.027587
C50   C     C_1   0.343436 0.823695 0.723027 0.040604
C51   C     C_1   0.356464 0.799698 0.670828 -0.005175
C52   C     C_R   0.724284 0.403696 0.577722 0.560674
C53   C     C_1   0.367509 0.771751 0.626631 0.014899
C54   C     C_R   0.941718 0.277467 0.055574 0.547901
C55   C     C_R   0.288072 0.270833 0.073224 0.549167
C56   C     C_3   0.896659 0.271928 0.283800 0.178119
C57   C     C_R   0.270239 0.937784 0.053572 0.547682
C58   C     C_R   0.936578 0.279089 0.915627 0.544628
C59   C     C_R   0.281477 0.274106 0.933242 0.547024
C60   C     C_R   0.262285 0.941231 0.912885 0.544835
C61   C     C_1   0.305721 0.301925 0.125070 0.019721
C62   C     C_1   0.315330 0.319354 0.169931 -0.003239
C63   C     C_1   0.323557 0.332175 0.222795 0.037823
C64   C     C_3   0.929192 0.247449 0.228150 -0.053867
C65   C     C_1   0.888353 0.293192 0.100333 0.020075
C66   C     C_3   0.767470 0.358388 0.285917 0.057837
Cr1   Cr    Cr6+3 0.585490 0.589720 0.509170 1.052187
Cr2   Cr    Cr6+3 0.329280 0.580760 0.494920 1.051520
Cr3   Cr    Cr6+3 0.585250 0.329540 0.495950 1.058603
Cr4   Cr    Cr6+3 0.077160 0.074530 0.981700 1.041549
Cr5   Cr    Cr6+3 0.079310 0.333830 0.996170 1.040550
Cr6   Cr    Cr6+3 0.334250 0.081620 0.994710 1.043279
F1    F     F_    0.580291 0.375332 0.255493 -0.603079
F2    F     F_    0.630188 0.353226 0.165653 -0.589609
F3    F     F_    0.539929 0.717932 0.294746 -0.666192
F4    F     F_    0.492920 0.390147 0.722959 -0.597315
F5    F     F_    0.315810 0.538480 0.717574 -0.621446
F6    F     F_    0.919405 0.170512 0.303743 -0.674830
H1    H     H_    0.757519 0.196642 0.183410 0.087631
H2    H     H_    0.435213 0.668062 0.189928 0.145878
H3    H     H_    0.140253 0.924911 0.196998 0.133285
H4    H     H_    0.378659 0.165129 0.690637 0.116310
H5    H     H_    0.499364 0.191337 0.708573 0.170060
H6    H     H_    0.481096 0.176007 0.791072 0.129611
H7    H     H_    0.949538 0.306382 0.307701 0.169962
H8    H     H_    0.355923 0.159393 0.772870 0.136857
H9    H     H_    0.153501 0.478495 0.696610 0.171262
H10   H     H_    0.175239 0.333749 0.685132 0.120916
H11   H     H_    0.139310 0.471543 0.780478 0.134776
H12   H     H_    0.843115 0.479618 0.206055 0.125983
H13   H     H_    0.303906 0.509958 0.802141 0.157437
H14   H     H_    0.158623 0.327804 0.768607 0.139930
H15   H     H_    0.953675 0.155637 0.216712 0.159795
H16   H     H_    0.648479 0.527589 0.262320 0.283410
H17   H     H_    0.701987 0.504752 0.184290 0.171391
H18   H     H_    0.284085 0.113031 0.307290 0.218019
H19   H     H_    0.291979 0.035420 0.353698 0.250146
H20   H     H_    0.047448 0.931328 0.278785 0.251020
H21   H     H_    0.106376 0.016902 0.274862 0.306005
H22   H     H_    0.367249 0.611912 0.254982 0.214851
H23   H     H_    0.513521 0.747081 0.206749 0.147284
H24   H     H_    0.436276 0.603464 0.313452 0.246397
H25   H     H_    0.537685 0.310636 0.809763 0.257922
H26   H     H_    0.463621 0.402258 0.856823 0.220337
H27   H     H_    0.098662 0.206378 0.244793 0.241110
H28   H     H_    0.014571 0.346303 0.237811 0.223352
H29   H     H_    0.763897 0.616662 0.283304 0.280729
H30   H     H_    0.883980 0.493827 0.293815 0.209496
H31   H     H_    0.438674 0.924532 0.301422 0.184536
H32   H     H_    0.407577 0.967204 0.219297 0.115174
H33   H     H_    0.255105 0.037617 0.220661 0.149312
H34   H     H_    0.212278 0.765639 0.275448 0.121426
H35   H     H_    0.718135 0.221140 0.265604 0.146859
H36   H     H_    0.216267 0.771897 0.191374 0.116760
N1    N     N_3   0.270318 0.045051 0.315092 -0.628656
N2    N     N_3   0.120375 0.941954 0.290225 -0.541836
N3    N     N_3   0.437191 0.616167 0.275833 -0.530004
N4    N     N_3   0.476327 0.394816 0.818605 -0.571253
N5    N     N_3   0.028894 0.264642 0.222899 -0.657161
N6    N     N_3   0.795363 0.535042 0.296611 -0.605155
O1    O     O_R   0.700490 0.499650 0.456540 -0.491037
O2    O     O_R   0.362200 0.173970 0.055450 -0.497904
O3    O     O_R   0.326660 0.983110 0.039170 -0.493858
O4    O     O_R   0.479270 0.682700 0.457880 -0.503260
O5    O     O_R   0.165170 0.960730 0.925500 -0.503003
O6    O     O_R   0.978790 0.179600 0.932440 -0.494362
O7    O     O_R   0.960680 0.356080 0.937360 -0.502893
O8    O     O_R   0.182750 0.328100 0.950670 -0.494684
O9    O     O_R   0.356720 0.175530 0.946790 -0.503731
O10   O     O_R   0.321590 0.984560 0.938450 -0.494052
O11   O     O_3   0.163570 0.163330 0.990860 -0.258912
O12   O     O_R   0.339040 0.474950 0.540330 -0.484318
O13   O     O_R   0.304400 0.696100 0.445190 -0.502586
O14   O     O_R   0.337880 0.472540 0.439600 -0.498877
O15   O     O_R   0.493250 0.300300 0.435260 -0.506816
O16   O     O_R   0.681040 0.341130 0.451400 -0.485847
O17   O     O_R   0.701750 0.502250 0.565200 -0.500202
O18   O     O_R   0.480430 0.685110 0.558610 -0.496498
O19   O     O_R   0.305650 0.698700 0.553850 -0.490021
O20   O     O_R   0.494500 0.302900 0.543920 -0.502785
O21   O     O_R   0.682200 0.343540 0.552130 -0.480837
O22   O     O_3   0.500010 0.500010 0.500010 -0.281484
O23   O     O_R   0.170650 0.959160 0.034150 -0.505243
O24   O     O_R   0.983870 0.178140 0.033160 -0.496204
O25   O     O_R   0.966160 0.354510 0.046020 -0.505115
O26   O     O_R   0.187830 0.326650 0.051390 -0.496938

loop_
_geom_bond_atom_site_label_1
_geom_bond_atom_site_label_2
_ccdc_geom_bond_type
C25   C31   S    
C54   O24   A    
C8    C66   S    
C26   H5    S    
H28   N5    S    
C11   H31   S    
C18   C21   S    
C41   C42   S    
H30   N6    S    
C19   C20   S    
C43   C44   S    
Cr1   O4    S    
Cr6   O9    S    
C39   C41   T    
C54   C65   S    
C3    C64   S    
C29   C36   T    
C26   C27   S    
C37   C38   T    
C64   N5    S    
C13   C18   S    
C25   F5    S    
C32   C36   S    
C14   C21   T    
Cr2   O13   S    
C38   C40   S    
C9    C16   S    
C64   H15   S    
C3    C7    S    
C10   C15   S    
C5    C6    S    
C57   O3    A    
Cr1   O22   S    
C10   C17   S    
Cr3   O21   S    
C46   C52   S    
C56   F6    S    
C45   F1    S    
C18   C19   S    
C10   F3    S    
Cr2   O12   S    
Cr1   O18   S    
C17   H23   S    
C2    H1    S    
C47   C60   S    
C20   H34   S    
C35   H9    S    
C15   C22   S    
C59   O9    A    
C29   C59   S    
C8    C9    T    
C6    H16   S    
C56   C64   S    
H18   N1    S    
Cr2   O22   S    
H19   N1    S    
C11   N1    S    
C5    H12   S    
C2    F2    S    
Cr4   O6    S    
Cr3   O20   S    
C40   O12   A    
C55   O2    A    
C58   O7    A    
C26   H4    S    
Cr5   O7    S    
C28   O19   A    
C11   C15   S    
C1    O13   A    
Cr1   O1    S    
C6    N6    S    
C5    H17   S    
C44   C46   T    
C50   C51   S    
H26   N4    S    
C2    C45   S    
C15   C20   S    
C4    C34   S    
C57   O23   A    
C28   O18   A    
C33   H14   S    
C60   O10   A    
H21   N2    S    
C20   N2    S    
C12   C63   T    
C55   O26   A    
C19   H36   S    
C59   O8    A    
C39   C58   S    
C17   H2    S    
C30   C37   S    
C51   C53   T    
C27   H8    S    
C16   O1    A    
C31   N4    S    
C62   C63   S    
C33   H11   S    
C7    C65   T    
C35   H10   S    
H20   N2    S    
C47   C48   T    
C12   C23   S    
C23   C34   T    
C17   C18   S    
Cr4   O23   S    
C13   H32   S    
H24   N3    S    
C54   O25   A    
C30   C35   S    
Cr4   O5    S    
C48   C49   S    
Cr5   O25   S    
C58   O6    A    
Cr3   O16   S    
C31   H13   S    
C4    O15   A    
Cr6   O3    S    
C22   C24   T    
C52   O17   A    
H25   N4    S    
C42   C43   T    
C16   O16   A    
H29   N6    S    
Cr6   O11   S    
C4    O14   A    
C25   C30   S    
C14   C57   S    
C60   O5    A    
Cr6   O2    S    
C27   C32   S    
C31   C32   S    
C3    C5    S    
C28   C53   S    
Cr6   O10   S    
Cr4   O24   S    
C52   O21   A    
C25   F4    S    
C32   C33   S    
Cr2   O14   S    
C2    C3    S    
Cr3   O22   S    
C1    O4    A    
C13   H33   S    
C10   N3    S    
C27   H6    S    
C11   C13   S    
C56   H7    S    
C56   C66   S    
C55   C61   S    
Cr4   O11   S    
C33   C35   S    
C40   O20   A    
C61   C62   T    
Cr5   O8    S    
Cr5   O11   S    
C45   H35   S    
C6    C66   S    
Cr5   O26   S    
C1    C24   S    
Cr3   O15   S    
C49   C50   T    
C45   C66   S    
H27   N5    S    
Cr2   O19   S    
H22   N3    S    
C19   H3    S    
Cr1   O17   S    
C26   C30   S    
