data_mof_unit_66551.cif
_audit_creation_date              2012-12-11T18:51:45-0500
_audit_creation_method            fapswitch 2.2
_symmetry_space_group_name_H-M    P1
_symmetry_Int_Tables_number       1
_space_group_crystal_system       triclinic
_cell_length_a                    8.566137
_cell_length_b                    15.36418
_cell_length_c                    15.300745
_cell_angle_alpha                 98.62936
_cell_angle_beta                  98.880471
_cell_angle_gamma                 99.410555
_cell_volume                      1930.84178925

loop_
_atom_site_label
_atom_site_type_symbol
_atom_type_description
_atom_site_fract_x
_atom_site_fract_y
_atom_site_fract_z
_atom_type_partial_charge
Ba1   Ba    Ba6+2 0.844890 0.542420 0.457460 1.919780
Ba2   Ba    Ba6+2 0.344950 0.457650 0.542550 1.927298
C1    C     C_3   0.545423 0.804617 0.099633 0.309432
C2    C     C_R   0.889745 0.478658 0.926424 -0.029859
C3    C     C_R   0.030815 0.477238 0.110246 -0.081694
C4    C     C_3   0.107266 0.743676 0.228476 0.756358
C5    C     C_R   0.865942 0.446485 0.076849 0.002015
C6    C     C_R   0.796419 0.448856 0.988152 -0.062487
C7    C     C_R   0.106101 0.469297 0.199689 -0.095842
C8    C     C_R   0.275141 0.495150 0.220859 0.079305
C9    C     C_R   0.085947 0.539241 0.802984 0.026340
C10   C     C_R   0.154070 0.548358 0.897243 0.002251
C11   C     C_R   0.055927 0.515005 0.958063 0.032255
C12   C     C_3   0.564388 0.767172 0.187738 1.147429
C13   C     C_R   0.316829 0.587396 0.933375 0.415233
C14   C     C_R   0.383810 0.581708 0.021297 -0.108165
C15   C     C_R   0.291468 0.548590 0.080804 -0.091180
C16   C     C_3   0.139893 0.788610 0.148537 -0.260529
C17   C     C_R   0.125584 0.514336 0.050047 0.034210
C18   C     C_R   0.363747 0.545956 0.169413 -0.022356
C19   C     C_R   0.925648 0.494066 0.773602 -0.239940
C20   C     C_R   0.329219 0.824624 0.460848 0.019683
C21   C     C_R   0.583204 0.793839 0.532019 0.072424
C22   C     C_R   0.776708 0.218269 0.494383 -0.147656
C23   C     C_3   0.556983 0.225689 0.258393 0.246356
C24   C     C_R   0.872883 0.165144 0.535607 0.102932
C25   C     C_R   0.809501 0.073844 0.530971 0.004290
C26   C     C_R   0.642724 0.037718 0.497409 0.048677
C27   C     C_R   0.543808 0.095502 0.459617 0.003437
C28   C     C_3   0.172796 0.750862 0.752579 0.646476
C29   C     C_R   0.570293 0.946497 0.501230 0.101612
C30   C     C_R   0.403079 0.915221 0.465480 0.006620
C31   C     C_R   0.311977 0.973640 0.431366 -0.071547
C32   C     C_R   0.379854 0.059904 0.423467 0.388140
C33   C     C_R   0.656924 0.884395 0.538039 0.039067
C34   C     C_3   0.490324 0.210348 0.157817 -0.282235
C35   C     C_R   0.420259 0.765679 0.494563 -0.175917
C36   C     C_R   0.612120 0.187469 0.460526 -0.026379
C37   C     C_3   0.211709 0.778414 0.855271 -0.290277
C38   C     C_3   0.938174 0.243061 0.206955 0.624486
C39   C     C_3   0.084209 0.251114 0.159922 -0.289392
C40   C     C_3   0.734912 0.663869 0.735672 0.343712
C41   C     C_3   0.772683 0.691312 0.837372 -0.357398
C42   C     C_3   0.112703 0.193701 0.766014 0.614727
C43   C     C_3   0.135857 0.117524 0.817087 -0.147073
C44   C     C_3   0.643220 0.242169 0.815233 0.572135
C45   C     C_3   0.597173 0.162901 0.868992 0.836580
C46   C     C_R   0.825704 0.465345 0.832555 -0.071704
H1    H     H_    0.342993 0.802863 0.879241 0.158413
H2    H     H_    0.900441 0.722715 0.860314 0.085108
H3    H     H_    0.746813 0.632015 0.869683 0.058248
H4    H     H_    0.699718 0.741263 0.858785 0.159013
H5    H     H_    0.442828 0.741353 0.199839 -0.750628
H6    H     H_    0.496032 0.867134 0.109351 0.115257
H7    H     H_    0.662413 0.281335 0.275718 0.048744
H8    H     H_    0.588543 0.163297 0.277514 0.072875
H9    H     H_    0.382791 0.155460 0.140152 0.138511
H10   H     H_    0.455861 0.272635 0.138991 0.123696
H11   H     H_    0.579397 0.191237 0.117750 0.172099
H12   H     H_    0.147258 0.832226 0.878050 0.142682
H13   H     H_    0.456201 0.757521 0.046273 -0.099283
H14   H     H_    0.170570 0.740193 0.095276 0.016470
H15   H     H_    0.983536 0.188206 0.747201 0.071774
H16   H     H_    0.238760 0.089343 0.801893 0.176417
H17   H     H_    0.160533 0.139887 0.890959 0.195398
H18   H     H_    0.029122 0.062218 0.796529 0.151663
H19   H     H_    0.757581 0.279923 0.853107 -0.029645
H20   H     H_    0.789488 0.413222 0.116220 0.127408
H21   H     H_    0.669310 0.421449 0.967239 0.117656
H22   H     H_    0.512005 0.603920 0.042128 0.049052
H23   H     H_    0.171815 0.721438 0.887642 0.003187
H24   H     H_    0.875959 0.481683 0.702468 0.033225
H25   H     H_    0.362476 0.697413 0.493103 0.022640
H26   H     H_    0.184563 0.952146 0.406987 0.111085
H27   H     H_    0.782033 0.903448 0.569388 0.090055
H28   H     H_    0.212646 0.713670 0.251578 -0.065817
H29   H     H_    0.829395 0.287122 0.493473 -0.010940
H30   H     H_    0.889999 0.034640 0.560284 0.055647
H31   H     H_    0.031904 0.813483 0.119992 0.174675
H32   H     H_    0.241912 0.846380 0.170885 0.139104
H33   H     H_    0.044494 0.721725 0.728309 -0.057673
H34   H     H_    0.832483 0.255207 0.164043 0.018817
H35   H     H_    0.609807 0.990474 0.302161 0.373359
H36   H     H_    0.131993 0.094004 0.216404 0.332992
H37   H     H_    0.714990 0.766532 0.041619 0.283715
H38   H     H_    0.974443 0.344687 0.831584 0.344270
H39   H     H_    0.776799 0.319275 0.639874 0.310069
H40   H     H_    0.925676 0.285746 0.005992 0.380066
H41   H     H_    0.388773 0.093090 0.703842 0.356090
H42   H     H_    0.977110 0.639238 0.146059 0.257104
H43   H     H_    0.511554 0.226361 0.965736 0.338184
H44   H     H_    0.514623 0.663722 0.922373 0.278540
H45   H     H_    0.112284 0.314744 0.136564 0.038140
H46   H     H_    0.339172 0.573554 0.386411 0.253356
H47   H     H_    0.172450 0.076672 0.362947 0.352158
H48   H     H_    0.470766 0.845292 0.755758 0.353890
H49   H     H_    0.062031 0.198053 0.099242 0.181429
H50   H     H_    0.190208 0.241381 0.204459 0.156393
H51   H     H_    0.819811 0.623019 0.712245 -0.098138
H52   H     H_    0.613217 0.623762 0.716314 0.096724
O1    O     O_2   0.826410 0.445300 0.275350 -0.448449
O2    O     O_2   0.181563 0.187233 0.528721 -0.413991
O3    O     O_3   0.185018 0.183379 0.689595 -0.606885
O4    O     O_3   0.098900 0.448430 0.388910 -0.397965
O5    O     O_3   0.590780 0.611410 0.551120 -0.483008
O6    O     O_2   0.326530 0.274990 0.446290 -0.309607
O7    O     O_3   0.435287 0.247973 0.301943 -0.553824
O8    O     O_2   0.510108 0.468872 0.817531 -0.408680
O9    O     O_3   0.536892 0.303621 0.816402 -0.531308
O10   O     O_3   0.628630 0.613330 0.338230 -0.368331
O11   O     O_2   0.681521 0.539410 0.183754 -0.442398
O12   O     O_3   0.745109 0.741130 0.697766 -0.614068
O13   O     O_3   0.960617 0.301632 0.290413 -0.614153
O14   O     O_3   0.661779 0.701669 0.183584 -0.601236
O15   O     O_2   0.863180 0.725040 0.553770 -0.418581
O16   O     O_3   0.060890 0.661420 0.386090 -0.491466
O17   O     O_2   0.992664 0.818003 0.448577 -0.368407
O18   O     O_2   0.689355 0.817847 0.361173 -0.337674
O19   O     O_2   0.817537 0.901083 0.258569 -0.192266
O20   O     O_3   0.537807 0.930957 0.288859 -0.594620
O21   O     O_2   0.916068 0.129652 0.326617 -0.341885
O22   O     O_2   0.730304 0.082223 0.183831 -0.247435
O23   O     O_3   0.081728 0.809629 0.295940 -0.551603
O24   O     O_3   0.022003 0.066100 0.184313 -0.431269
O25   O     O_3   0.693420 0.824215 0.071325 -0.645154
O26   O     O_2   0.319975 0.306685 0.914155 -0.266081
O27   O     O_2   0.234871 0.370603 0.782249 -0.257047
O28   O     O_3   0.036948 0.327866 0.882987 -0.566698
O29   O     O_2   0.721192 0.120979 0.688991 -0.336466
O30   O     O_2   0.521630 0.207806 0.637400 -0.318753
O31   O     O_3   0.822578 0.288255 0.686511 -0.672602
O32   O     O_2   0.710239 0.094957 0.013128 -0.162578
O33   O     O_2   0.899916 0.134963 0.916764 -0.319041
O34   O     O_2   0.363300 0.554730 0.724710 -0.391141
O35   O     O_3   0.816157 0.263981 0.015788 -0.668557
O36   O     O_2   0.687176 0.008084 0.798591 -0.198015
O37   O     O_2   0.447839 0.995968 0.865549 -0.218403
O38   O     O_3   0.429001 0.037094 0.705642 -0.401658
O39   O     O_3   0.968857 0.676398 0.203199 -0.664947
O40   O     O_3   0.469448 0.178549 0.912098 -0.719158
O41   O     O_3   0.410054 0.634367 0.884123 -0.725114
O42   O     O_2   0.288390 0.369268 0.321792 -0.293168
O43   O     O_2   0.536053 0.433762 0.284220 -0.281458
O44   O     O_3   0.412195 0.531715 0.399977 -0.444740
O45   O     O_3   0.090820 0.551650 0.611100 -0.506596
O46   O     O_3   0.286396 0.107561 0.375457 -0.707785
O47   O     O_2   0.132110 0.831396 0.610222 -0.288999
O48   O     O_2   0.170726 0.925713 0.756194 -0.280326
O49   O     O_3   0.417926 0.864928 0.701868 -0.436664
O50   O     O_3   0.561090 0.386750 0.661790 -0.440449
O51   O     O_3   0.273881 0.694947 0.722853 -0.620553
O52   O     O_3   0.598940 0.388670 0.448890 -0.410245
O53   O     O_3   0.128820 0.338650 0.613920 -0.419457
P1    P     P_3+3 0.996530 0.418490 0.288400 1.055759
P2    P     P_3+3 0.693090 0.712100 0.580610 1.059574
P3    P     P_3+3 0.117965 0.777487 0.401234 1.103084
P4    P     P_3+3 0.193180 0.581580 0.711620 1.056088
P5    P     P_3+3 0.081482 0.219550 0.597122 1.125944
P6    P     P_3+3 0.577440 0.603936 0.219952 1.141968
P7    P     P_3+3 0.499047 0.273459 0.418032 1.179577
P8    P     P_3+3 0.615210 0.404912 0.781288 1.102284
S1    S     S_3+6 0.659635 0.856319 0.277366 -0.020294
S2    S     S_3+6 0.898088 0.128736 0.227256 -0.020080
S3    S     S_3+6 0.187040 0.301459 0.836977 -0.034918
S4    S     S_3+6 0.672990 0.210340 0.702838 -0.158613
S5    S     S_3+6 0.761728 0.160965 0.955415 -0.057673
S6    S     S_3+6 0.541075 0.048575 0.808804 0.088400
S7    S     S_3+6 0.381427 0.454093 0.307064 -0.056791
S8    S     S_3+6 0.219683 0.847100 0.704530 -0.008248

loop_
_geom_bond_atom_site_label_1
_geom_bond_atom_site_label_2
_ccdc_geom_bond_type
Ba2   O50   S    
O52   P7    S    
C12   S1    S    
O27   S3    D    
C44   S4    S    
C21   P2    S    
H37   O25   S    
C23   H8    S    
O13   P1    S    
C2    C6    A    
C34   H11   S    
O2    P5    D    
O7    P7    S    
C5    C6    A    
C20   P3    S    
Ba2   O45   S    
C33   H27   S    
C24   C25   A    
Ba2   O34   S    
C20   C30   A    
O44   S7    S    
O49   S8    S    
O51   P4    S    
C26   C27   A    
O32   S5    D    
C34   H10   S    
C1    H6    S    
C41   H4    S    
H48   O49   S    
C13   C14   A    
O21   S2    D    
O28   S3    S    
C15   C18   A    
O45   P4    S    
Ba1   O52   S    
Ba1   Ba2   S    
H39   O31   S    
O53   P5    S    
Ba1   P2    S    
C40   O12   S    
O11   P6    D    
C5    H20   S    
C13   O41   S    
Ba1   O45   S    
C39   H45   S    
C29   C30   A    
C8    C18   A    
C16   H31   S    
O12   P2    S    
C45   O40   S    
C22   C36   A    
Ba1   O16   S    
C7    C8    A    
O20   S1    S    
C19   C46   A    
O15   P2    D    
C25   H30   S    
O48   S8    D    
H47   O46   S    
C4    O23   S    
O26   S3    D    
O19   S1    D    
C42   O3    S    
H42   O39   S    
O23   P3    S    
C1    H13   S    
C42   H15   S    
Ba2   O52   S    
C4    C16   S    
C11   C17   A    
C19   H24   S    
H38   O28   S    
C38   H34   S    
C14   H22   S    
C38   S2    S    
C34   H9    S    
C3    C5    A    
C45   S5    S    
C14   C15   A    
C46   P8    S    
C12   O14   S    
C20   C35   A    
C27   C32   A    
C18   P6    S    
O22   S2    D    
O38   S6    S    
H35   O20   S    
C27   C36   A    
C28   S8    S    
C3    C7    A    
C40   H52   S    
Ba1   O10   S    
C45   S6    S    
C31   H26   S    
C38   O13   S    
C10   C13   A    
Ba2   O4    S    
O34   P4    D    
O17   P3    D    
C31   C32   A    
C6    H21   S    
O3    P5    S    
H44   O41   S    
Ba1   O4    S    
C1    C12   S    
C8    S7    S    
C38   C39   S    
C37   H1    S    
C7    P1    S    
Ba2   O53   S    
C21   C33   A    
C43   H17   S    
C39   H49   S    
C40   C41   S    
C9    C19   A    
Ba1   O1    S    
O37   S6    D    
C42   C43   S    
C9    P4    S    
C2    C46   A    
O50   P8    S    
C35   H25   S    
C44   C45   S    
O18   S1    D    
C43   H16   S    
O5    P2    S    
C26   C29   A    
C16   H14   S    
C23   H7    S    
H40   O35   S    
C22   C24   A    
C9    C10   A    
C1    O25   S    
C41   H2    S    
C4    H28   S    
C3    C17   A    
O36   S6    D    
H36   O24   S    
Ba1   O15   S    
O8    P8    D    
Ba2   O5    S    
O29   S4    D    
H46   O44   S    
C30   C31   A    
O24   S2    S    
C28   H33   S    
C36   P7    S    
C44   H19   S    
C21   C35   A    
C40   H51   S    
C32   O46   S    
O30   S4    D    
C41   H3    S    
C28   O51   S    
O1    P1    D    
Ba2   P4    S    
O6    P7    D    
C37   H12   S    
C15   C17   A    
O35   S5    S    
Ba2   O6    S    
C28   C37   S    
C24   P5    S    
C29   C33   A    
Ba1   P1    S    
O14   P6    S    
O16   P3    S    
C4    O39   S    
C23   C34   S    
O42   S7    D    
H43   O40   S    
C22   H29   S    
C12   H5    S    
C10   C11   A    
O31   S4    S    
C16   H32   S    
H41   O38   S    
C44   O9    S    
C43   H18   S    
C37   H23   S    
C39   H50   S    
O9    P8    S    
O43   S7    D    
C42   S3    S    
O4    P1    S    
O33   S5    D    
C23   O7    S    
O10   P6    S    
O47   S8    D    
C2    C11   A    
Ba1   O5    S    
C25   C26   A    
