data_mof_unit_10964.cif
_audit_creation_date              2012-12-10T19:03:41-0500
_audit_creation_method            fapswitch 2.2
_symmetry_space_group_name_H-M    P1
_symmetry_Int_Tables_number       1
_space_group_crystal_system       triclinic
_cell_length_a                    15.8812
_cell_length_b                    10.827435
_cell_length_c                    9.535471
_cell_angle_alpha                 90.37199
_cell_angle_beta                  90.481129
_cell_angle_gamma                 90.239202
_cell_volume                      1639.54257918

loop_
_atom_site_label
_atom_site_type_symbol
_atom_type_description
_atom_site_fract_x
_atom_site_fract_y
_atom_site_fract_z
_atom_type_partial_charge
C1    C     C_R   0.498862 0.262396 0.499378 0.802449
C2    C     C_3   0.953325 0.395244 0.608412 0.348230
C3    C     C_3   0.917009 0.492201 0.504065 0.139929
C4    C     C_3   0.951959 0.623506 0.538309 -0.399895
C5    C     C_3   0.049671 0.622478 0.545784 -0.395082
C6    C     C_1   0.824822 0.493565 0.505039 -0.013155
C7    C     C_1   0.175164 0.496998 0.495273 -0.066327
C8    C     C_1   0.250657 0.498525 0.497397 -0.189861
C9    C     C_R   0.463153 0.064477 0.611864 0.054911
C10   C     C_R   0.492234 0.129394 0.496025 -0.080478
C11   C     C_R   0.511036 0.063658 0.372748 -0.221200
C12   C     C_R   0.340222 0.499823 0.499401 0.827628
C13   C     C_R   0.512342 0.935090 0.374025 -0.227676
C14   C     C_R   0.493988 0.871015 0.498072 -0.152007
C15   C     C_R   0.463812 0.937428 0.613135 0.133821
C16   C     C_3   0.486477 0.933964 0.765623 0.267445
C17   C     C_3   0.485197 0.074877 0.763709 -0.559786
C18   C     C_R   0.543489 0.588471 0.074736 0.180492
C19   C     C_R   0.450607 0.420334 0.073224 -0.083792
C20   C     C_R   0.450551 0.420402 0.924222 -0.090932
C21   C     C_R   0.543632 0.588049 0.927521 0.274489
C22   C     C_3   0.635756 0.613389 0.921869 0.210116
C23   C     C_R   0.499566 0.737756 0.500197 0.813514
C24   C     C_3   0.635857 0.614648 0.081636 -0.572861
C25   C     C_R   0.659784 0.499243 0.500671 0.826224
C26   C     C_3   0.051916 0.401372 0.608471 -0.572971
C27   C     C_3   0.044798 0.470681 0.341627 0.854790
C28   C     C_3   0.947184 0.454976 0.354918 -0.503373
C29   C     C_1   0.749343 0.496137 0.503005 -0.194886
C30   C     C_3   0.083072 0.494671 0.495100 0.144951
Cu1   Cu    Cu3+1 0.500000 0.499980 0.640670 0.972531
Cu2   Cu    Cu3+1 0.500000 0.500020 0.359330 0.936457
H1    H     H_    0.937323 0.303249 0.562716 0.096116
H2    H     H_    0.529519 0.110985 0.278032 0.158929
H3    H     H_    0.531985 0.886593 0.280223 0.158783
H4    H     H_    0.549447 0.892672 0.784345 0.151008
H5    H     H_    0.433185 0.116616 0.824983 0.206410
H6    H     H_    0.548320 0.116979 0.782362 0.179528
H7    H     H_    0.412006 0.354180 0.128175 0.140376
H8    H     H_    0.078052 0.307666 0.595377 0.138699
H9    H     H_    0.411799 0.354438 0.867270 0.143166
H10   H     H_    0.671251 0.535411 0.873858 0.108041
H11   H     H_    0.672696 0.537269 0.126876 0.194158
H12   H     H_    0.649641 0.706825 0.128760 0.205434
H13   H     H_    0.926368 0.359500 0.328559 0.139927
H14   H     H_    0.914482 0.513763 0.276461 0.193032
H15   H     H_    0.071093 0.642302 0.655059 0.161413
N1    N     N_R   0.500530 0.500930 0.147930 -0.176514
N2    N     N_R   0.500530 0.500890 0.852020 -0.211846
O1    O     O_R   0.500000 0.319640 0.618810 -0.582965
O2    O     O_R   0.500010 0.319680 0.381230 -0.591895
O3    O     O_R   0.379430 0.499990 0.618840 -0.569938
O4    O     O_R   0.379440 0.500030 0.381260 -0.581768
O5    O     O_R   0.499990 0.680320 0.618770 -0.545922
O6    O     O_R   0.500000 0.680360 0.381190 -0.587519
O7    O     O_R   0.620560 0.499970 0.618740 -0.578444
O8    O     O_R   0.620570 0.500010 0.381160 -0.576331
H16   H     H_    0.079432 0.430405 0.710523 0.178631
O9    O     O_3   0.910986 0.394394 0.740212 -0.570538
C31   C     C_3   0.950175 0.462378 0.849725 0.111948
H17   H     H_    0.976499 0.551452 0.814186 0.133752
H18   H     H_    0.000718 0.406211 0.898942 0.157089
C32   C     C_3   0.885544 0.489950 0.962063 -0.817514
H19   H     H_    0.868693 0.404018 0.018531 0.247605
H20   H     H_    0.911873 0.558448 0.037716 0.213915
H21   H     H_    0.827864 0.528556 0.913640 0.230938
H22   H     H_    0.931607 0.688526 0.454768 0.192670
O10   O     O_3   0.419988 0.882114 0.843462 -0.544514
C33   C     C_3   0.441617 0.882756 0.987409 0.077420
H23   H     H_    0.445298 0.979012 0.028649 0.139005
H24   H     H_    0.502978 0.836453 0.006568 0.149426
C34   C     C_3   0.374050 0.813882 0.068054 -0.772710
H25   H     H_    0.368216 0.717600 0.028123 0.248545
H26   H     H_    0.390701 0.811373 0.181229 0.215999
H27   H     H_    0.312663 0.861385 0.055458 0.242779
O11   O     O_3   0.650026 0.731221 0.864141 -0.582350
C35   C     C_3   0.735938 0.745626 0.832149 0.062978
H28   H     H_    0.756399 0.674457 0.754941 0.155310
H29   H     H_    0.775242 0.740114 0.929110 0.151134
C36   C     C_3   0.749322 0.871787 0.766668 -0.818020
H30   H     H_    0.730307 0.945555 0.841262 0.246449
H31   H     H_    0.816818 0.884319 0.740521 0.204280
H32   H     H_    0.711025 0.879519 0.669109 0.243347
O12   O     O_3   0.055132 0.582266 0.263127 -0.615457
C37   C     C_3   0.124072 0.582028 0.169957 0.129807
H33   H     H_    0.109304 0.522663 0.077229 0.171014
H34   H     H_    0.182808 0.549200 0.221346 0.168905
C38   C     C_3   0.139083 0.712691 0.118293 -0.871226
H35   H     H_    0.156917 0.773958 0.207686 0.250889
H36   H     H_    0.190679 0.712591 0.040506 0.216213
H37   H     H_    0.081065 0.748630 0.067392 0.253209
O13   O     O_3   0.079947 0.369753 0.262874 -0.625310
C39   C     C_3   0.085838 0.255116 0.331289 -0.000305
H38   H     H_    0.028323 0.231509 0.390282 0.131394
H39   H     H_    0.142487 0.254471 0.400241 0.165509
C40   C     C_3   0.097644 0.154425 0.221314 -0.780932
H40   H     H_    0.155584 0.172580 0.160169 0.246951
H41   H     H_    0.103581 0.063245 0.273116 0.201881
H42   H     H_    0.042582 0.151821 0.148712 0.248845
H43   H     H_    0.075441 0.699015 0.481489 0.208967
H44   H     H_    0.925366 0.659979 0.637540 0.166500

loop_
_geom_bond_atom_site_label_1
_geom_bond_atom_site_label_2
_ccdc_geom_bond_type
C32   H20   S    
C39   H38   S    
C18   C21   A    
C19   C20   A    
C25   O7    A    
C22   O11   S    
Cu1   O3    S    
C3    C6    S    
C21   N2    A    
C20   H9    S    
C7    C8    T    
C35   H28   S    
C5    H15   S    
C28   H14   S    
C31   C32   S    
C18   C24   S    
C27   O12   S    
C13   H3    S    
C34   H27   S    
C36   H30   S    
C37   C38   S    
C15   C16   S    
C40   H42   S    
C31   H18   S    
C33   H24   S    
O10   C33   S    
C16   C17   S    
C40   H41   S    
C5    H43   S    
C16   O10   S    
Cu1   O7    S    
C1    O1    A    
Cu2   O6    S    
C12   O4    A    
C35   H29   S    
C32   H21   S    
O9    C31   S    
C39   H39   S    
C7    C30   S    
C21   C22   S    
C40   H40   S    
C27   C30   S    
Cu2   N1    S    
C25   O8    A    
Cu2   O8    S    
Cu1   N2    S    
C36   H32   S    
C12   O3    A    
C37   H34   S    
C25   C29   S    
C28   H13   S    
O11   C35   S    
C34   H26   S    
C19   N1    A    
C4    C5    S    
C37   H33   S    
C31   H17   S    
C14   C23   S    
C33   C34   S    
Cu2   O2    S    
C20   N2    A    
C26   H16   S    
Cu1   Cu2   S    
C38   H37   S    
C8    C12   S    
C4    H44   S    
C27   O13   S    
C2    C26   S    
C17   H5    S    
O12   C37   S    
C1    O2    A    
C19   H7    S    
C2    H1    S    
C36   H31   S    
C38   H36   S    
C26   C30   S    
C39   C40   S    
C24   H12   S    
C22   C24   S    
Cu1   O1    S    
C3    C4    S    
Cu2   O4    S    
C23   O5    A    
C5    C30   S    
C9    C10   A    
C35   C36   S    
C9    C17   S    
C3    C28   S    
C2    O9    S    
C11   H2    S    
C1    C10   S    
C34   H25   S    
C18   N1    A    
C4    H22   S    
C23   O6    A    
C2    C3    S    
C9    C15   A    
C16   H4    S    
C11   C13   A    
C26   H8    S    
C22   H10   S    
O13   C39   S    
C17   H6    S    
Cu1   O5    S    
C33   H23   S    
C10   C11   A    
C32   H19   S    
C6    C29   T    
C38   H35   S    
C27   C28   S    
C24   H11   S    
C14   C15   A    
C13   C14   A    
