data_mof_unit_17068.cif
_audit_creation_date              2012-12-10T17:46:15-0500
_audit_creation_method            fapswitch 2.2
_symmetry_space_group_name_H-M    P1
_symmetry_Int_Tables_number       1
_space_group_crystal_system       triclinic
_cell_length_a                    14.148532
_cell_length_b                    10.635663
_cell_length_c                    9.92864
_cell_angle_alpha                 89.925656
_cell_angle_beta                  89.913083
_cell_angle_gamma                 91.588719
_cell_volume                      1493.47461691

loop_
_atom_site_label
_atom_site_type_symbol
_atom_type_description
_atom_site_fract_x
_atom_site_fract_y
_atom_site_fract_z
_atom_type_partial_charge
C1    C     C_R   0.502109 0.260666 0.500100 0.849299
C2    C     C_R   0.436881 0.061960 0.433102 -0.178280
C3    C     C_R   0.437059 0.933471 0.432832 -0.171102
C4    C     C_R   0.329289 0.499616 0.500131 0.879348
C5    C     C_R   0.508838 0.872036 0.499439 -0.054302
C6    C     C_R   0.376845 0.334190 0.140227 -0.223403
C7    C     C_R   0.316721 0.251852 0.070392 -0.233518
C8    C     C_R   0.316713 0.251693 0.930899 0.418886
C9    C     C_R   0.376943 0.334121 0.860624 -0.209202
C10   C     C_R   0.439483 0.418196 0.927986 0.110620
C11   C     C_R   0.439472 0.418243 0.072464 0.180333
C12   C     C_1   0.772185 0.499900 0.499987 -0.152453
C13   C     C_R   0.557999 0.578252 0.071185 -0.082087
C14   C     C_R   0.557982 0.578225 0.928187 -0.064825
C15   C     C_R   0.502513 0.739475 0.499879 0.864863
C16   C     C_R   0.670713 0.500338 0.499919 0.860410
C17   C     C_1   0.227788 0.499159 0.500402 -0.165378
C18   C     C_1   0.142512 0.498899 0.500612 0.040459
C19   C     C_1   0.042598 0.498856 0.500725 0.067397
C20   C     C_1   0.957330 0.499043 0.500634 0.081171
C21   C     C_1   0.857437 0.499467 0.500312 0.070265
C22   C     C_R   0.660913 0.136795 0.622763 -0.310796
C23   C     C_R   0.735605 0.074312 0.682448 0.397944
C24   C     C_R   0.735609 0.942734 0.682521 0.393780
C25   C     C_R   0.661031 0.874838 0.622648 -0.329607
C26   C     C_R   0.584547 0.937215 0.563161 0.041950
C27   C     C_R   0.584427 0.068915 0.563334 0.043025
C28   C     C_R   0.508521 0.128593 0.499917 -0.038641
Cl1   Cl    Cl    0.240503 0.147911 0.843000 -0.547838
Cl2   Cl    Cl    0.829076 0.163599 0.754317 -0.494262
Cl3   Cl    Cl    0.828904 0.860220 0.754904 -0.511858
H1    H     H_    0.605313 0.642261 0.874346 0.162670
H2    H     H_    0.664451 0.238420 0.621679 0.191859
H3    H     H_    0.664646 0.773429 0.621448 0.183206
H4    H     H_    0.380036 0.881540 0.383124 0.160721
H5    H     H_    0.605354 0.642289 0.124552 0.158965
H6    H     H_    0.371794 0.329124 0.246991 0.213759
H7    H     H_    0.269705 0.188148 0.125429 0.192069
H8    H     H_    0.379748 0.109697 0.383525 0.144416
H9    H     H_    0.372325 0.329488 0.753863 0.221987
N1    N     N_R   0.499190 0.498800 0.142780 -0.109845
N2    N     N_R   0.499160 0.498720 0.857170 -0.107152
O1    O     O_R   0.500000 0.316780 0.614690 -0.626596
O2    O     O_R   0.499990 0.316750 0.385360 -0.624425
O3    O     O_R   0.373720 0.500010 0.614690 -0.602389
O4    O     O_R   0.373710 0.499990 0.385360 -0.615364
O5    O     O_R   0.500010 0.683250 0.614640 -0.603776
O6    O     O_R   0.500000 0.683220 0.385310 -0.607919
O7    O     O_R   0.626290 0.500010 0.614640 -0.594626
O8    O     O_R   0.626280 0.499990 0.385310 -0.587744
Zn1   Zn    Zn3+2 0.500010 0.500020 0.653130 0.962674
Zn2   Zn    Zn3+2 0.499990 0.499980 0.346870 0.955314

loop_
_geom_bond_atom_site_label_1
_geom_bond_atom_site_label_2
_ccdc_geom_bond_type
C1    C28   S    
O8    Zn2   S    
C23   C24   A    
C6    C7    A    
C15   O5    A    
C5    C26   A    
C10   N2    A    
C9    C10   A    
C25   H3    S    
N1    Zn2   S    
C19   C20   T    
C3    H4    S    
N2    Zn1   S    
C14   N2    A    
O2    Zn2   S    
C13   N1    A    
C17   C18   T    
C25   C26   A    
C6    H6    S    
C7    C8    A    
C4    O4    A    
C13   C14   A    
C24   C25   A    
O1    Zn1   S    
C26   C27   A    
C15   O6    A    
C4    C17   S    
C2    H8    S    
C7    H7    S    
C16   O8    A    
C11   N1    A    
C2    C3    A    
C22   C27   A    
C6    C11   A    
C5    C15   S    
C10   C11   A    
C8    Cl1   S    
C4    O3    A    
C3    C5    A    
C23   Cl2   S    
O4    Zn2   S    
O6    Zn2   S    
C16   O7    A    
C13   H5    S    
C18   C19   S    
C27   C28   A    
C22   H2    S    
O3    Zn1   S    
C22   C23   A    
C2    C28   A    
C1    O2    A    
C24   Cl3   S    
C20   C21   S    
C12   C21   T    
C1    O1    A    
C9    H9    S    
O5    Zn1   S    
C12   C16   S    
C14   H1    S    
C8    C9    A    
O7    Zn1   S    
