data_mof_unit_52511.cif
_audit_creation_date              2012-12-11T21:12:11-0500
_audit_creation_method            fapswitch 2.2
_symmetry_space_group_name_H-M    P1
_symmetry_Int_Tables_number       1
_space_group_crystal_system       triclinic
_cell_length_a                    8.195996
_cell_length_b                    18.793774
_cell_length_c                    27.00898
_cell_angle_alpha                 99.080646
_cell_angle_beta                  92.17769
_cell_angle_gamma                 88.952586
_cell_volume                      4104.86780267

loop_
_atom_site_label
_atom_site_type_symbol
_atom_type_description
_atom_site_fract_x
_atom_site_fract_y
_atom_site_fract_z
_atom_type_partial_charge
Ba1   Ba    Ba6+2 0.160810 0.465630 0.521640 1.636445
Ba2   Ba    Ba6+2 0.649380 0.534380 0.478400 1.638733
C1    C     C_3   0.390664 0.298478 0.702856 -0.319496
C2    C     C_3   0.412078 0.316031 0.650442 0.337368
C3    C     C_3   0.467069 0.314037 0.397241 0.308098
C4    C     C_3   0.462910 0.232697 0.381709 -0.390802
C5    C     C_3   0.872067 0.722896 0.377680 0.354112
C6    C     C_3   0.877803 0.797577 0.362930 -0.362289
C7    C     C_3   0.361983 0.698577 0.349736 0.294540
C8    C     C_3   0.402429 0.712172 0.297649 -0.346742
C9    C     C_R   0.985304 0.046341 0.471474 0.018704
C10   C     C_R   0.054380 0.094464 0.443227 -0.119798
C11   C     C_R   0.197652 0.950571 0.449486 -0.105510
C12   C     C_3   0.941154 0.271069 0.624258 0.379818
C13   C     C_R   0.050532 0.975230 0.472557 0.014953
C14   C     C_R   0.256813 0.880597 0.449882 -0.095529
C15   C     C_R   0.171230 0.831331 0.472642 -0.031854
C16   C     C_R   0.027577 0.855151 0.498153 0.001819
C17   C     C_R   0.969066 0.927494 0.498941 0.025484
C18   C     C_R   0.223987 0.758791 0.470661 -0.012119
C19   C     C_R   0.127464 0.710217 0.490437 -0.293321
C20   C     C_R   0.989660 0.732995 0.517577 0.040164
C21   C     C_R   0.942734 0.806791 0.523270 -0.036536
C22   C     C_R   0.842297 0.069547 0.497912 0.023828
C23   C     C_3   0.968952 0.196160 0.638512 -0.210301
C24   C     C_R   0.778576 0.141416 0.498555 -0.016395
C25   C     C_R   0.866712 0.191375 0.475549 -0.024945
C26   C     C_R   0.998901 0.165356 0.446124 -0.035410
C27   C     C_R   0.815217 0.834088 0.553967 -0.030177
C28   C     C_R   0.760641 0.904706 0.555751 -0.093622
C29   C     C_R   0.828396 0.951249 0.525872 0.016354
C30   C     C_R   0.760810 0.020821 0.522987 -0.003428
C31   C     C_R   0.604959 0.040038 0.540296 -0.082875
C32   C     C_R   0.624850 0.162124 0.520412 -0.033285
C33   C     C_R   0.531998 0.106606 0.536272 0.039227
C34   C     C_3   0.843036 0.621112 0.631806 0.296369
C35   C     C_R   0.573181 0.236220 0.523871 -0.001763
C36   C     C_R   0.674367 0.285857 0.506234 -0.308595
C37   C     C_R   0.817994 0.265147 0.481355 0.040799
C38   C     C_R   0.290582 0.449684 0.174356 0.587332
C39   C     C_R   0.185458 0.569990 0.176250 0.580979
C40   C     C_2   0.031243 0.528190 0.269527 -0.071142
C41   C     C_3   0.993999 0.521390 0.323200 -0.052258
C42   C     C_1   0.280432 0.493237 0.336505 0.014708
C43   C     C_2   0.316402 0.496144 0.289508 -0.094136
C44   C     C_2   0.184598 0.513742 0.252895 0.205829
C45   C     C_3   0.846511 0.638187 0.688766 -0.358643
C46   C     C_R   0.300747 0.506491 0.099263 -0.079205
C47   C     C_R   0.332620 0.446727 0.123919 -0.032343
C48   C     C_R   0.406906 0.385175 0.097848 -0.062282
C49   C     C_R   0.226134 0.568461 0.125679 -0.029958
C50   C     C_2   0.148701 0.525976 0.355783 -0.289024
C51   C     C_2   0.646915 0.472353 0.637374 -0.295173
C52   C     C_R   0.450703 0.437006 0.970213 0.020963
C53   C     C_R   0.362286 0.563806 0.973527 0.020229
C54   C     C_R   0.427760 0.499148 0.946620 0.049035
C55   C     C_R   0.508599 0.373006 0.941068 -0.103085
C56   C     C_3   0.976638 0.370238 0.365542 0.294158
C57   C     C_R   0.548030 0.370815 0.891348 -0.062280
C58   C     C_R   0.531173 0.432152 0.868122 -0.022960
C59   C     C_R   0.470694 0.496454 0.895504 -0.080824
C60   C     C_R   0.453343 0.557926 0.871789 -0.035009
C61   C     C_R   0.497803 0.554367 0.821259 0.596253
C62   C     C_R   0.572173 0.429718 0.817726 0.572876
C63   C     C_2   0.734514 0.452489 0.724515 -0.084097
C64   C     C_3   0.747830 0.427914 0.669107 -0.044636
C65   C     C_1   0.519419 0.509893 0.656556 0.032255
C66   C     C_2   0.479699 0.513844 0.704349 -0.107731
C67   C     C_3   0.010835 0.340645 0.311024 -0.363201
C68   C     C_2   0.595757 0.486147 0.741769 0.193073
C69   C     C_R   0.414141 0.440390 0.021715 0.020877
C70   C     C_R   0.343147 0.504133 0.048142 0.049351
C71   C     C_R   0.314190 0.565471 0.024043 0.020214
C72   C     C_R   0.447317 0.382045 0.048079 -0.101276
C73   C     C_R   0.193982 0.627710 0.101078 -0.061478
C74   C     C_R   0.348272 0.624819 0.948756 -0.099637
C75   C     C_R   0.392913 0.621833 0.899176 -0.061069
C76   C     C_R   0.236831 0.626391 0.051528 -0.100314
C77   C     C_3   0.333333 0.685399 0.591264 0.317651
C78   C     C_3   0.341182 0.766807 0.606407 -0.383197
H1    H     H_    0.339360 0.365526 0.646824 0.097797
H2    H     H_    0.754367 0.680717 0.701129 0.136824
H3    H     H_    0.818740 0.589324 0.704862 0.071758
H4    H     H_    0.969640 0.657153 0.703011 0.131674
H5    H     H_    0.089902 0.392473 0.384841 0.022155
H6    H     H_    0.881240 0.413019 0.367079 0.042007
H7    H     H_    0.097698 0.294321 0.309273 0.150489
H8    H     H_    0.065363 0.382009 0.292097 0.080957
H9    H     H_    0.895405 0.322228 0.290507 0.117488
H10   H     H_    0.204657 0.669694 0.583697 0.003713
H11   H     H_    0.404237 0.669990 0.556921 0.068686
H12   H     H_    0.271500 0.272482 0.705367 0.146134
H13   H     H_    0.267146 0.784004 0.639903 0.125975
H14   H     H_    0.292942 0.794309 0.575428 0.057525
H15   H     H_    0.469751 0.783305 0.615321 0.120864
H16   H     H_    0.542996 0.325126 0.645685 -0.044636
H17   H     H_    0.393379 0.348989 0.730222 0.118903
H18   H     H_    0.596098 0.330463 0.404697 0.025073
H19   H     H_    0.397993 0.327815 0.432125 0.059640
H20   H     H_    0.533443 0.216722 0.347324 0.134012
H21   H     H_    0.517588 0.205649 0.412167 0.056694
H22   H     H_    0.334673 0.214823 0.374182 0.115229
H23   H     H_    0.489728 0.261498 0.712590 0.117451
H24   H     H_    0.917534 0.155222 0.607951 0.068509
H25   H     H_    0.768488 0.721773 0.402786 0.112143
H26   H     H_    0.987721 0.712623 0.397986 -0.049002
H27   H     H_    0.887425 0.838933 0.397047 0.078216
H28   H     H_    0.985188 0.801612 0.339698 0.119949
H29   H     H_    0.764574 0.808200 0.341220 0.139263
H30   H     H_    0.230963 0.711711 0.355753 -0.015610
H31   H     H_    0.385516 0.640645 0.351357 0.068010
H32   H     H_    0.328254 0.676579 0.269132 0.129313
H33   H     H_    0.533717 0.700391 0.290903 0.152611
H34   H     H_    0.988823 0.270391 0.586271 0.068792
H35   H     H_    0.375257 0.769237 0.293934 0.117429
H36   H     H_    0.165106 0.654249 0.487005 0.071712
H37   H     H_    0.369789 0.865551 0.431437 0.112028
H38   H     H_    0.061407 0.199130 0.424338 0.097652
H39   H     H_    0.755814 0.801551 0.577339 0.094767
H40   H     H_    0.637160 0.341912 0.510095 0.075180
H41   H     H_    0.272474 0.984613 0.431398 0.073240
H42   H     H_    0.154689 0.079433 0.418938 0.062514
H43   H     H_    0.666007 0.921784 0.581872 0.058937
H44   H     H_    0.807335 0.282029 0.622570 -0.076229
H45   H     H_    0.529803 0.000462 0.552928 0.073580
H46   H     H_    0.439789 0.484600 0.277108 0.114757
H47   H     H_    0.435101 0.338738 0.116002 0.122628
H48   H     H_    0.824573 0.433372 0.750017 0.116680
H49   H     H_    0.592025 0.320191 0.871005 0.120687
H50   H     H_    0.522450 0.322676 0.955111 0.068489
H51   H     H_    0.507511 0.333057 0.031740 0.069159
H52   H     H_    0.931877 0.537730 0.243549 0.101074
H53   H     H_    0.135289 0.675915 0.120205 0.121461
H54   H     H_    0.305454 0.676566 0.966849 0.069163
H55   H     H_    0.101860 0.185018 0.642599 0.136988
H56   H     H_    0.379439 0.670288 0.882257 0.121659
H57   H     H_    0.361890 0.535964 0.716405 0.128124
H58   H     H_    0.204945 0.674051 0.035662 0.069132
H59   H     H_    0.150284 0.552954 0.394454 0.069877
H60   H     H_    0.660193 0.460553 0.597079 0.086854
H61   H     H_    0.718559 0.605409 0.618049 0.012252
H62   H     H_    0.929579 0.575895 0.620623 0.078899
N1    N     N_R   0.219941 0.511254 0.200266 -0.426502
N2    N     N_R   0.555438 0.490451 0.794448 -0.422508
O1    O     O_2   0.106080 0.324280 0.466820 -0.465363
O2    O     O_3   0.397734 0.652884 0.630941 -0.623360
O3    O     O_3   0.024396 0.323113 0.659024 -0.599277
O4    O     O_2   0.704230 0.675760 0.533200 -0.465572
O5    O     O_3   0.951180 0.586390 0.529420 -0.492056
O6    O     O_3   0.434080 0.629720 0.443130 -0.475150
O7    O     O_3   0.886808 0.682766 0.612814 -0.641419
O8    O     O_3   0.351080 0.462080 0.440130 -0.473323
O9    O     O_3   0.839200 0.593040 0.416790 -0.485438
O10   O     O_2   0.661726 0.562648 0.332213 -0.493660
O11   O     O_3   0.852652 0.671554 0.334246 -0.594863
O12   O     O_3   0.859130 0.413620 0.470620 -0.484240
O13   O     O_3   0.459240 0.537930 0.559910 -0.487671
O14   O     O_2   0.583120 0.462390 0.379940 -0.464965
O15   O     O_3   0.396657 0.347208 0.358342 -0.633655
O16   O     O_2   0.563819 0.756784 0.478604 -0.490392
O17   O     O_3   0.460776 0.742220 0.385296 -0.607830
O18   O     O_2   0.315211 0.396976 0.195103 -0.598302
O19   O     O_2   0.621703 0.372892 0.794407 -0.623933
O20   O     O_2   0.120672 0.623861 0.198996 -0.601514
O21   O     O_2   0.487041 0.608455 0.801417 -0.597734
O22   O     O_3   0.376230 0.370290 0.556910 -0.484231
O23   O     O_2   0.228109 0.249401 0.525384 -0.492463
O24   O     O_3   0.920660 0.313561 0.387481 -0.645200
O25   O     O_3   0.357392 0.258091 0.615074 -0.616788
O26   O     O_2   0.227190 0.537650 0.620070 -0.467092
O27   O     O_3   0.971110 0.406970 0.583250 -0.480068
O28   O     O_2   0.086203 0.461599 0.675172 -0.501261
P1    P     P_3+3 0.929380 0.335110 0.452880 0.980448
P2    P     P_3+3 0.398530 0.559060 0.613740 0.994329
P3    P     P_3+3 0.958986 0.408213 0.647548 0.941675
P4    P     P_3+3 0.880940 0.664900 0.547160 0.974674
P5    P     P_3+3 0.835818 0.585917 0.351397 0.972121
P6    P     P_3+3 0.385447 0.277187 0.554570 0.927055
P7    P     P_3+3 0.398887 0.440770 0.376986 0.961116
P8    P     P_3+3 0.420059 0.722955 0.444832 0.928360
C79   C     C_3   0.349574 0.108663 0.540903 -0.363397
H63   H     H_    0.294091 0.127907 0.507704 0.141531
H64   H     H_    0.297399 0.054368 0.540128 0.088590
H65   H     H_    0.312662 0.139695 0.576778 0.159609
C80   C     C_3   0.886972 0.189007 0.687252 -0.387397
H66   H     H_    0.909601 0.133992 0.696305 0.118644
H67   H     H_    0.937258 0.228798 0.718677 0.161724
H68   H     H_    0.753088 0.197779 0.683152 0.126603

loop_
_geom_bond_atom_site_label_1
_geom_bond_atom_site_label_2
_ccdc_geom_bond_type
Ba2   O6    S    
C53   C54   A    
C6    H27   S    
C7    H31   S    
C32   C35   A    
Ba1   O26   S    
C60   C75   A    
Ba1   O1    S    
C37   P1    S    
C17   C29   A    
C15   C18   A    
C38   N1    Am   
C5    C6    S    
C18   P8    S    
C28   H43   S    
C79   H63   S    
C13   C17   A    
C35   P6    S    
C27   H39   S    
Ba1   P1    S    
C24   C25   A    
O4    P4    D    
C10   C26   A    
C21   C27   A    
C35   C36   A    
C49   C73   A    
Ba1   Ba2   S    
C19   H36   S    
C3    C4    S    
O3    P3    S    
C41   C50   S    
C80   H67   S    
C65   P2    S    
Ba2   O4    S    
C38   C47   A    
C51   H60   S    
C76   H58   S    
C9    C22   A    
C50   H59   S    
Ba1   O8    S    
C32   C33   A    
C40   C44   D    
C4    H21   S    
C34   H62   S    
O16   P8    D    
C77   H10   S    
Ba2   P4    S    
C2    H16   S    
C9    C13   A    
C24   C32   A    
C46   C49   A    
C57   H49   S    
C52   C69   A    
C3    H19   S    
C25   C37   A    
C14   C15   A    
C3    O15   S    
C40   H52   S    
C61   N2    Am   
C5    H25   S    
C8    H32   S    
O22   P6    S    
C75   H56   S    
C45   H3    S    
C56   O24   S    
C7    C8    S    
C77   H11   S    
C67   H7    S    
O28   P3    D    
Ba2   O14   S    
O13   P2    S    
C36   H40   S    
C42   C50   D    
Ba2   O5    S    
C57   C58   A    
C19   C20   A    
C66   H57   S    
C46   C70   A    
C62   O19   D    
C67   H9    S    
C56   H6    S    
C42   P7    S    
C6    H29   S    
C77   O2    S    
O9    P5    S    
C79   H64   S    
Ba2   O8    S    
O24   P1    S    
O12   P1    S    
C52   C54   A    
Ba1   P2    S    
C12   H44   S    
C2    O25   S    
C2    H1    S    
C16   C21   A    
C63   H48   S    
C55   H50   S    
C74   C75   A    
O15   P7    S    
C56   C67   S    
C74   H54   S    
C16   C17   A    
C80   H68   S    
C62   N2    Am   
C6    H28   S    
C43   C44   S    
O27   P3    S    
C12   O3    S    
Ba1   O27   S    
C65   C66   D    
C58   C59   A    
C78   H15   S    
C4    H20   S    
Ba1   O12   S    
O14   P7    D    
C22   C30   A    
C38   O18   D    
C27   C28   A    
C11   H41   S    
C1    H17   S    
C29   C30   A    
C43   H46   S    
C71   C76   A    
C60   C61   A    
C31   H45   S    
C15   C16   A    
C5    H26   S    
C5    O11   S    
C34   O7    S    
C45   H4    S    
C18   C19   A    
O17   P8    S    
C7    O17   S    
C51   C64   S    
C8    H33   S    
C67   H8    S    
C23   C80   S    
C53   C74   A    
C46   C47   A    
O1    P1    D    
C47   C48   A    
Ba2   O9    S    
C11   C13   A    
C34   C45   S    
C11   C14   A    
C40   C41   S    
C39   O20   D    
C78   H14   S    
C1    C2    S    
C56   H5    S    
O25   P6    S    
C42   C43   D    
O6    P8    S    
O26   P2    D    
C79   H65   S    
C1    H23   S    
C7    H30   S    
C34   H61   S    
C41   P5    S    
Ba2   O12   S    
O7    P4    S    
C54   C59   A    
C45   H2    S    
C22   C24   A    
C70   C71   A    
C69   C72   A    
C20   P4    S    
C9    C10   A    
C73   H53   S    
C23   H24   S    
C39   N1    Am   
C44   N1    S    
C33   C79   S    
C68   N2    S    
C58   C62   A    
O5    P4    S    
C30   C31   A    
O8    P7    S    
C48   C72   A    
C69   C70   A    
C12   H34   S    
C14   H37   S    
C28   C29   A    
C80   H66   S    
C36   C37   A    
C64   P3    S    
Ba1   O22   S    
Ba2   O13   S    
O2    P2    S    
Ba1   O13   S    
C31   C33   A    
C4    H22   S    
C12   C23   S    
C59   C60   A    
C51   C65   D    
C73   C76   A    
C55   C57   A    
C77   C78   S    
C53   C71   A    
O11   P5    S    
C61   O21   D    
O23   P6    D    
C10   H42   S    
C3    H18   S    
C23   H55   S    
C66   C68   S    
C63   C64   S    
O10   P5    D    
C25   C26   A    
C20   C21   A    
C1    H12   S    
Ba1   O5    S    
C26   H38   S    
C48   H47   S    
C78   H13   S    
C72   H51   S    
C39   C49   A    
C8    H35   S    
C63   C68   D    
C52   C55   A    
