data_mof_unit_39353.cif
_audit_creation_date              2012-12-10T21:00:46-0500
_audit_creation_method            fapswitch 2.2
_symmetry_space_group_name_H-M    P1
_symmetry_Int_Tables_number       1
_space_group_crystal_system       triclinic
_cell_length_a                    18.139575
_cell_length_b                    18.233768
_cell_length_c                    18.338284
_cell_angle_alpha                 120.07601
_cell_angle_beta                  89.873625
_cell_angle_gamma                 119.787842
_cell_volume                      4302.37405029

loop_
_atom_site_label
_atom_site_type_symbol
_atom_type_description
_atom_site_fract_x
_atom_site_fract_y
_atom_site_fract_z
_atom_type_partial_charge
C1    C     C_R   0.110843 0.220058 0.609659 0.865069
C2    C     C_R   0.889158 0.779942 0.390341 0.865068
C3    C     C_3   0.983458 0.430052 0.413585 -0.260890
C4    C     C_3   0.016542 0.569948 0.586415 -0.260894
C5    C     C_3   0.414807 0.964660 0.970746 0.720864
C6    C     C_3   0.585192 0.035340 0.029257 0.720871
C7    C     C_3   0.493147 0.034721 0.953291 -0.217014
C8    C     C_3   0.506852 0.965278 0.046711 -0.217012
C9    C     C_3   0.550148 0.103209 0.052265 -0.245133
C10   C     C_3   0.449851 0.896791 0.947738 -0.245127
C11   C     C_3   0.471266 0.033484 0.070600 -0.316493
C12   C     C_3   0.528733 0.966516 0.929402 -0.316511
C13   C     C_3   0.414222 0.433481 0.448511 0.689996
C14   C     C_3   0.585778 0.566519 0.551489 0.689994
C15   C     C_3   0.480817 0.403493 0.445858 -0.490801
C16   C     C_3   0.519183 0.596507 0.554142 -0.490802
C17   C     C_3   0.551315 0.499805 0.449105 -0.399770
C18   C     C_3   0.448685 0.500195 0.550894 -0.399771
C19   C     C_3   0.484528 0.528351 0.450933 0.622364
C20   C     C_3   0.515472 0.471650 0.549067 0.622364
C21   C     C_R   0.128314 0.180582 0.839515 -0.166315
C22   C     C_R   0.871696 0.819416 0.160483 -0.166320
C23   C     C_R   0.392644 0.780938 0.888582 0.889502
C24   C     C_R   0.607356 0.219062 0.111419 0.889555
C25   C     C_R   0.117614 0.135485 0.748125 0.036249
C26   C     C_R   0.882396 0.864515 0.251873 0.036254
C27   C     C_R   0.037952 0.100371 0.690402 0.171803
C28   C     C_R   0.962056 0.899628 0.309597 0.171801
C29   C     C_R   0.971610 0.109533 0.725071 -0.077723
C30   C     C_R   0.028399 0.890465 0.274929 -0.077734
C31   C     C_R   0.983264 0.153197 0.815489 -0.135016
C32   C     C_R   0.016746 0.846801 0.184511 -0.135012
C33   C     C_R   0.061607 0.189221 0.872756 -0.114434
C34   C     C_R   0.938404 0.810777 0.127243 -0.114426
C35   C     C_R   0.965684 0.944902 0.537989 0.640197
C36   C     C_R   0.034323 0.055098 0.462011 0.640207
C37   C     C_R   0.945324 0.892258 0.445180 -0.258468
C38   C     C_R   0.054681 0.107742 0.554820 -0.258466
C39   C     C_R   0.979620 0.948296 0.406870 -0.172872
C40   C     C_R   0.020387 0.051703 0.593129 -0.172872
C41   C     C_R   0.661975 0.677329 0.847787 0.721983
C42   C     C_R   0.338027 0.322682 0.152221 0.721987
C43   C     C_R   0.608876 0.606856 0.867687 -0.197826
C44   C     C_R   0.391127 0.393152 0.132319 -0.197826
C45   C     C_R   0.112021 0.501794 0.890689 0.796477
C46   C     C_R   0.887980 0.498207 0.109312 0.796472
C47   C     C_R   0.597291 0.642090 0.951581 0.001880
C48   C     C_R   0.402708 0.357914 0.048423 0.001880
C49   C     C_R   0.640661 0.748537 0.015850 -0.145685
C50   C     C_R   0.359333 0.251467 0.984155 -0.145702
C51   C     C_R   0.695491 0.820099 0.996923 -0.106716
C52   C     C_R   0.304502 0.179907 0.003085 -0.106706
C53   C     C_R   0.705127 0.783347 0.911891 -0.248670
C54   C     C_R   0.294869 0.216664 0.088118 -0.248671
C55   C     C_R   0.593352 0.567210 0.031273 -0.206752
C56   C     C_R   0.406648 0.432791 0.968728 -0.206743
C57   C     C_R   0.549806 0.499613 0.056305 -0.053655
C58   C     C_R   0.450194 0.500388 0.943696 -0.053641
C59   C     C_R   0.455027 0.431619 0.025147 0.034188
C60   C     C_R   0.544973 0.568383 0.974855 0.034187
C61   C     C_R   0.265139 0.857322 0.089884 -0.301058
C62   C     C_R   0.734858 0.142703 0.910166 -0.301006
C63   C     C_R   0.212130 0.757280 0.069996 -0.087421
C64   C     C_R   0.787869 0.242743 0.930051 -0.087327
C65   C     C_R   0.119200 0.693007 0.020525 0.046050
C66   C     C_R   0.880809 0.306996 0.979483 0.046056
C67   C     C_R   0.392109 0.499950 0.607806 0.945204
C68   C     C_R   0.607891 0.500050 0.392194 0.945199
C69   C     C_R   0.082767 0.729325 0.990721 -0.287645
C70   C     C_R   0.917249 0.270662 0.009257 -0.287670
C71   C     C_R   0.136364 0.829161 0.011965 -0.168353
C72   C     C_R   0.863648 0.170828 0.988016 -0.168403
C73   C     C_R   0.226945 0.893751 0.062956 0.778423
C74   C     C_R   0.773058 0.106255 0.937058 0.778463
C75   C     C_R   0.999863 0.586833 0.056663 -0.198980
C76   C     C_R   0.000139 0.413168 0.943338 -0.198963
C77   C     C_R   0.943669 0.496588 0.052053 -0.018244
C78   C     C_R   0.056332 0.503412 0.947947 -0.018190
C79   C     C_R   0.943242 0.408254 0.994192 0.080663
C80   C     C_R   0.056760 0.591747 0.005810 0.080687
C81   C     C_R   0.394056 0.499768 0.888205 0.837800
C82   C     C_R   0.605944 0.500232 0.111796 0.837805
C83   C     C_R   0.108962 0.500247 0.607851 0.878174
C84   C     C_R   0.891038 0.499753 0.392149 0.878168
C85   C     C_3   0.076742 0.525070 0.483265 0.742791
C86   C     C_3   0.923258 0.474930 0.516735 0.742792
C87   C     C_3   0.042789 0.595027 0.517100 -0.321138
C88   C     C_3   0.957211 0.404973 0.482900 -0.321138
C89   C     C_3   0.949056 0.499642 0.448539 -0.173024
C90   C     C_3   0.050944 0.500358 0.551461 -0.173025
H1    H     H_    0.077833 0.672494 0.529799 0.200015
H2    H     H_    0.922167 0.327506 0.470200 0.200016
H3    H     H_    0.070494 0.223425 0.943046 0.146309
H4    H     H_    0.929517 0.776572 0.056953 0.146315
H5    H     H_    0.187925 0.208097 0.885456 0.160656
H6    H     H_    0.812086 0.791902 0.114541 0.160657
H7    H     H_    0.910432 0.082386 0.681630 0.146594
H8    H     H_    0.089576 0.917612 0.318371 0.146595
H9    H     H_    0.931214 0.158946 0.840901 0.143423
H10   H     H_    0.068796 0.841051 0.159099 0.143415
H11   H     H_    0.746661 0.836599 0.895243 0.230544
H12   H     H_    0.253334 0.163414 0.104768 0.230545
H13   H     H_    0.576827 0.524982 0.818016 0.186740
H14   H     H_    0.423180 0.475027 0.181989 0.186737
H15   H     H_    0.631934 0.775088 0.080692 0.232757
H16   H     H_    0.368058 0.224912 0.919312 0.232764
H17   H     H_    0.666103 0.619145 0.054654 0.192709
H18   H     H_    0.333897 0.380856 0.945347 0.192703
H19   H     H_    0.335596 0.908875 0.129467 0.207589
H20   H     H_    0.664394 0.091166 0.870610 0.207537
H21   H     H_    0.011859 0.681163 0.953318 0.187107
H22   H     H_    0.988163 0.318811 0.046633 0.187109
H23   H     H_    0.106922 0.857297 0.990824 0.201915
H24   H     H_    0.893095 0.142678 0.009131 0.201899
H25   H     H_    0.001598 0.655286 0.102369 0.157164
H26   H     H_    0.998404 0.344714 0.897632 0.157164
H27   H     H_    0.970507 0.373640 0.342409 0.209554
H28   H     H_    0.029492 0.626360 0.657591 0.209549
H29   H     H_    0.448310 0.061616 0.128570 0.234821
H30   H     H_    0.551688 0.938382 0.871432 0.234824
H31   H     H_    0.465611 0.324891 0.401296 0.236227
H32   H     H_    0.534389 0.675110 0.598704 0.236226
O1    O     O_3   0.251620 0.500000 0.748430 -0.534942
O2    O     O_3   0.748380 0.500000 0.251570 -0.534943
O3    O     O_R   0.134680 0.560740 0.864590 -0.634863
O4    O     O_R   0.865320 0.439260 0.135410 -0.634855
O5    O     O_R   0.306670 0.439270 0.571150 -0.581097
O6    O     O_R   0.693330 0.560730 0.428850 -0.581098
O7    O     O_R   0.135450 0.268370 0.694460 -0.675495
O8    O     O_R   0.864550 0.731630 0.305540 -0.675498
O9    O     O_R   0.429670 0.731610 0.863510 -0.610472
O10   O     O_R   0.570330 0.268390 0.136490 -0.610475
O11   O     O_R   0.134680 0.268390 0.572240 -0.556649
O12   O     O_R   0.865320 0.731610 0.427760 -0.556649
O13   O     O_R   0.306670 0.731630 0.863510 -0.606144
O14   O     O_R   0.693330 0.268370 0.136490 -0.606129
O15   O     O_R   0.135450 0.439270 0.865360 -0.641218
O16   O     O_R   0.864550 0.560730 0.134640 -0.641217
O17   O     O_R   0.429670 0.560710 0.692610 -0.624417
O18   O     O_R   0.570330 0.439290 0.307390 -0.624421
O19   O     O_R   0.308540 0.439240 0.865360 -0.649202
O20   O     O_R   0.691460 0.560760 0.134640 -0.649199
O21   O     O_R   0.133580 0.439310 0.571150 -0.600189
O22   O     O_R   0.866420 0.560690 0.428850 -0.600190
O23   O     O_R   0.430770 0.560690 0.864590 -0.631259
O24   O     O_R   0.569230 0.439310 0.135410 -0.631254
O25   O     O_R   0.133580 0.560760 0.692610 -0.641412
O26   O     O_R   0.866420 0.439240 0.307390 -0.641413
Zn1   Zn    Zn3+2 0.207400 0.586780 0.791530 1.024358
Zn2   Zn    Zn3+2 0.792600 0.413220 0.208470 1.024395
Zn3   Zn    Zn3+2 0.208510 0.413230 0.792630 0.974962
Zn4   Zn    Zn3+2 0.791490 0.586770 0.207370 0.974974
Zn5   Zn    Zn3+2 0.383150 0.586740 0.791530 1.034571
Zn6   Zn    Zn3+2 0.616850 0.413260 0.208470 1.034590
Zn7   Zn    Zn3+2 0.207400 0.413250 0.618010 1.098377
Zn8   Zn    Zn3+2 0.792600 0.586750 0.381990 1.098373
C91   C     C_2   0.190789 0.127858 0.716282 0.922006
O27   O     O_2   0.177251 0.069785 0.637033 -0.619558
O28   O     O_R   0.276007 0.187257 0.777794 -0.832283
H33   H     H_    0.320218 0.175638 0.748601 0.360804
C92   C     C_2   0.809221 0.872144 0.283715 0.922001
O29   O     O_2   0.822760 0.930222 0.362963 -0.619556
O30   O     O_R   0.724003 0.812743 0.222203 -0.832287
H34   H     H_    0.679793 0.824364 0.251396 0.360802
F1    F     F_    0.932583 0.893051 0.576464 -0.611141
F2    F     F_    0.067425 0.106949 0.423536 -0.611139
F3    F     F_    0.672869 0.642968 0.766586 -0.561407
F4    F     F_    0.327134 0.357048 0.233423 -0.561403
F5    F     F_    0.157476 0.551184 0.466828 -0.612256
F6    F     F_    0.842524 0.448816 0.533172 -0.612255
C93   C     C_2   0.743619 0.932632 0.066409 1.059179
O31   O     O_2   0.792876 0.995001 0.050597 -0.571197
O32   O     O_R   0.733464 0.967932 0.150698 -0.773509
H35   H     H_    0.769433 0.046131 0.192092 0.364049
C94   C     C_2   0.256368 0.067373 0.933599 1.059185
O33   O     O_2   0.207115 0.005007 0.949416 -0.571221
O34   O     O_R   0.266512 0.032068 0.849306 -0.773494
H36   H     H_    0.230540 0.953869 0.807913 0.364044
F7    F     F_    0.277402 0.992815 0.088115 -0.632293
F8    F     F_    0.722597 0.007191 0.911898 -0.632298
C95   C     C_2   0.255361 0.724528 0.104298 0.912452
O35   O     O_2   0.212288 0.663037 0.122873 -0.620405
O36   O     O_R   0.346628 0.765689 0.116705 -0.803704
H37   H     H_    0.368726 0.737817 0.140230 0.353760
C96   C     C_2   0.744633 0.275517 0.895791 0.912416
O37   O     O_2   0.787671 0.336919 0.877118 -0.620370
O38   O     O_R   0.653402 0.234482 0.883539 -0.803765
H38   H     H_    0.631296 0.262360 0.860030 0.353737
C97   C     C_2   0.481648 0.070866 0.899580 1.040296
O39   O     O_2   0.466188 0.136688 0.930680 -0.598136
O40   O     O_R   0.487056 0.027679 0.813524 -0.778340
H39   H     H_    0.476259 0.056661 0.783099 0.367564
C98   C     C_2   0.518352 0.929137 0.100426 1.040248
O41   O     O_2   0.533774 0.863283 0.069313 -0.598185
O42   O     O_R   0.512995 0.972368 0.186500 -0.778263
H40   H     H_    0.523796 0.943392 0.216928 0.367591
F9    F     F_    0.326433 0.927401 0.937626 -0.608488
F10   F     F_    0.673565 0.072599 0.062378 -0.608488
F11   F     F_    0.324746 0.365535 0.395865 -0.527605
F12   F     F_    0.675254 0.634465 0.604136 -0.527605
F13   F     F_    0.468731 0.556571 0.398584 -0.578498
F14   F     F_    0.531270 0.443430 0.601416 -0.578498

loop_
_geom_bond_atom_site_label_1
_geom_bond_atom_site_label_2
_ccdc_geom_bond_type
C30   C32   A    
C93   O31   D    
O1    Zn1   S    
C91   O27   D    
C63   C95   S    
O2    Zn6   S    
C27   C29   A    
C69   H21   S    
O30   H34   S    
C76   C79   A    
C82   O20   A    
C54   H12   S    
C61   H19   S    
C6    C9    S    
C63   C65   A    
C92   O29   D    
C44   H14   S    
C94   O34   S    
C4    C87   S    
O1    Zn7   S    
O32   H35   S    
C66   C79   S    
C93   O32   S    
C2    O12   A    
C21   C25   A    
C13   C18   S    
C53   H11   S    
O25   Zn1   S    
C76   C78   A    
C5    C11   S    
C1    O7    A    
C29   H7    S    
C6    C12   S    
C86   C88   S    
C96   O38   S    
C21   C33   A    
O17   Zn5   S    
C58   C60   A    
C72   H24   S    
C71   C73   A    
C19   F13   S    
C71   H23   S    
C15   C17   S    
O20   Zn4   S    
C69   C71   A    
C16   H32   S    
C56   H18   S    
C62   C64   A    
C3    H27   S    
C82   O24   A    
C47   C60   S    
C12   H30   S    
O21   Zn7   S    
C74   F8    S    
O12   Zn8   S    
C88   H2    S    
C42   F4    S    
C28   C30   A    
C49   C51   A    
C62   H20   S    
C50   C52   A    
C31   C33   A    
O18   Zn6   S    
C45   C78   S    
C31   H9    S    
C67   O17   A    
C75   C80   A    
C68   O6    A    
C18   C20   S    
C64   C96   S    
C46   O16   A    
O23   Zn5   S    
C24   O14   A    
C81   O19   A    
O2    Zn4   S    
C11   H29   S    
C91   O28   S    
C65   C80   S    
O11   Zn7   S    
C55   C60   A    
C41   C43   A    
C14   C17   S    
C4    H28   S    
C15   C20   S    
C42   C44   A    
C1    O11   A    
C36   F2    S    
C70   H22   S    
C92   O30   S    
C52   C54   A    
C4    C90   S    
C85   C87   S    
C16   C19   S    
C7    C12   S    
C22   C34   A    
O1    Zn3   S    
O16   Zn4   S    
C87   H1    S    
C13   C19   S    
O40   H39   S    
C14   C20   S    
O9    Zn5   S    
O14   Zn2   S    
C72   C74   A    
C95   O36   S    
O5    Zn7   S    
C5    C7    S    
C17   C19   S    
C6    C8    S    
C21   H5    S    
C28   C39   S    
C98   O42   S    
C18   C67   S    
C95   O35   D    
C14   F12   S    
C85   F5    S    
C32   H10   S    
C55   H17   S    
C51   C53   A    
C32   C34   A    
O22   Zn8   S    
C84   O26   A    
O36   H37   S    
C67   O5    A    
C9    C11   S    
C24   O10   A    
O10   Zn6   S    
O28   H33   S    
O24   Zn6   S    
O2    Zn8   S    
C27   C40   S    
C29   C31   A    
C83   O21   A    
C45   O15   A    
C77   C79   A    
C23   O9    A    
C8    C98   S    
C55   C57   A    
C75   C77   A    
C52   C94   S    
C41   C53   A    
C10   C12   S    
C1    C38   S    
C83   O25   A    
C16   C18   S    
C88   C90   S    
O34   H36   S    
C81   O23   A    
C13   C15   S    
O8    Zn4   S    
C25   C27   A    
C14   C16   S    
C3    C85   S    
C68   O18   A    
C75   H25   S    
C84   C89   S    
C36   C38   A    
C2    O8    A    
O19   Zn3   S    
C48   C59   S    
C6    F10   S    
O1    Zn5   S    
C7    C9    S    
C83   C90   S    
O2    Zn2   S    
C58   C81   S    
C17   C68   S    
C13   F11   S    
C35   C37   A    
C3    C88   S    
C86   F6    S    
C22   H6    S    
C46   O4    A    
C36   C39   A    
C62   C74   A    
C34   H4    S    
O26   Zn2   S    
C86   C89   S    
C33   H3    S    
C7    C97   S    
C46   C77   S    
C5    F9    S    
C85   C90   S    
C9    C24   S    
O7    Zn3   S    
C35   F1    S    
C10   C23   S    
C47   C49   A    
C30   H8    S    
C26   C92   S    
C26   C28   A    
C56   C59   A    
C23   O13   A    
C3    C89   S    
C61   C73   A    
C51   C93   S    
C35   C40   A    
C20   F14   S    
C5    C10   S    
C37   C39   A    
C94   O33   D    
O13   Zn1   S    
C42   C54   A    
C38   C40   A    
O4    Zn2   S    
C2    C37   S    
C96   O37   D    
C66   C70   A    
C8    C11   S    
C65   C69   A    
C41   F3    S    
C48   C50   A    
C76   H26   S    
C56   C58   A    
C78   C80   A    
C15   H31   S    
C97   O39   D    
O3    Zn1   S    
C43   H13   S    
C57   C59   A    
O6    Zn8   S    
C25   C91   S    
O42   H40   S    
C73   F7    S    
O38   H38   S    
C4    C86   S    
C8    C10   S    
C98   O41   D    
C22   C26   A    
C45   O3    A    
C50   H16   S    
C87   C89   S    
C84   O22   A    
C57   C82   S    
O15   Zn3   S    
C70   C72   A    
C49   H15   S    
C97   O40   S    
C43   C47   A    
C44   C48   A    
C64   C66   A    
C61   C63   A    
