data_mof_unit_9316.cif
_audit_creation_date              2012-12-10T17:31:10-0500
_audit_creation_method            fapswitch 2.2
_symmetry_space_group_name_H-M    P1
_symmetry_Int_Tables_number       1
_space_group_crystal_system       triclinic
_cell_length_a                    12.057347
_cell_length_b                    12.890885
_cell_length_c                    15.429747
_cell_angle_alpha                 85.891499
_cell_angle_beta                  114.720196
_cell_angle_gamma                 93.762166
_cell_volume                      2171.18918386

loop_
_atom_site_label
_atom_site_type_symbol
_atom_type_description
_atom_site_fract_x
_atom_site_fract_y
_atom_site_fract_z
_atom_type_partial_charge
C1    C     C_R   0.476788 0.299685 0.497666 0.905453
C2    C     C_R   0.523082 0.700337 0.502058 0.913324
C3    C     C_R   0.633614 0.625995 0.091690 -0.132942
C4    C     C_R   0.348905 0.571955 0.880027 -0.146674
C5    C     C_R   0.718454 0.635356 0.051710 -0.217486
C6    C     C_R   0.262858 0.571003 0.918319 -0.198555
C7    C     C_R   0.536670 0.811777 0.502761 -0.144285
C8    C     C_R   0.462714 0.188298 0.496067 -0.146085
C9    C     C_R   0.356239 0.028141 0.511241 0.531272
C10   C     C_R   0.642616 0.971921 0.486743 0.532554
C11   C     C_R   0.362552 0.136210 0.505067 -0.261215
C12   C     C_R   0.636606 0.863850 0.493372 -0.253770
C13   C     C_R   0.553848 0.133817 0.488064 -0.263635
C14   C     C_R   0.445127 0.866301 0.510121 -0.257577
C15   C     C_R   0.549269 0.026687 0.493152 -0.007777
C16   C     C_R   0.449566 0.973411 0.504790 -0.007646
C17   C     C_R   0.008525 0.603756 0.413260 -0.379240
C18   C     C_R   0.991135 0.396015 0.586006 -0.374020
C19   C     C_R   0.129910 0.595332 0.422586 0.601291
C20   C     C_R   0.869965 0.404340 0.576867 0.595398
C21   C     C_R   0.156756 0.452606 0.535480 0.451580
C22   C     C_R   0.842486 0.546935 0.463593 0.462173
C23   C     C_R   0.575866 0.496876 0.680363 0.939859
C24   C     C_R   0.424436 0.505391 0.319287 0.929822
C25   C     C_R   0.037338 0.461668 0.530701 -0.100095
C26   C     C_R   0.962212 0.538311 0.468681 -0.096667
C27   C     C_R   0.623523 0.516321 0.782453 -0.316189
C28   C     C_R   0.378838 0.520037 0.214437 -0.294947
C29   C     C_R   0.774164 0.598141 0.923237 -0.312874
C30   C     C_R   0.214997 0.545522 0.056123 -0.345379
C31   C     C_R   0.743416 0.557049 0.834170 0.464981
C32   C     C_R   0.252337 0.527380 0.155466 0.489050
C33   C     C_R   0.540408 0.509132 0.824510 0.391216
C34   C     C_R   0.464591 0.532289 0.173891 0.414070
C35   C     C_R   0.565414 0.563351 0.906581 -0.044032
C36   C     C_R   0.427102 0.565804 0.077767 -0.046304
C37   C     C_R   0.686526 0.600160 0.960437 0.038020
C38   C     C_R   0.301003 0.562701 0.017353 0.045819
C39   C     C_R   0.475004 0.574104 0.940359 0.076949
C40   C     C_R   0.512598 0.588998 0.037913 0.076799
H1    H     H_    0.810414 0.664824 0.093961 0.137361
H2    H     H_    0.166617 0.569987 0.870590 0.156638
H3    H     H_    0.950514 0.660113 0.361984 0.208109
H4    H     H_    0.049046 0.339453 0.637075 0.212611
H5    H     H_    0.866036 0.629574 0.962362 0.156891
H6    H     H_    0.119201 0.543818 0.008250 0.156992
H7    H     H_    0.662232 0.650985 0.163587 0.219074
H8    H     H_    0.316148 0.574285 0.803085 0.197347
H9    H     H_    0.369740 0.825042 0.520014 0.216883
H10   H     H_    0.629127 0.175129 0.478070 0.215849
H11   H     H_    0.709053 0.821279 0.489991 0.216650
H12   H     H_    0.290145 0.178749 0.508495 0.217877
N1    N     N_R   0.799120 0.480200 0.517090 -0.157911
N2    N     N_R   0.200880 0.519800 0.482910 -0.161527
O1    O     O_R   0.580150 0.341050 0.504560 -0.604754
O2    O     O_R   0.419850 0.658950 0.495440 -0.607178
O3    O     O_R   0.388090 0.353760 0.493600 -0.581390
O4    O     O_R   0.611910 0.646240 0.506400 -0.579883
O5    O     O_R   0.650890 0.490020 0.640860 -0.554640
O6    O     O_R   0.349110 0.509980 0.359140 -0.535455
O7    O     O_R   0.458830 0.502730 0.629890 -0.547803
O8    O     O_R   0.541170 0.497270 0.370110 -0.541240
Zn1   Zn    Zn3+2 0.628240 0.491510 0.507320 1.056622
Zn2   Zn    Zn3+2 0.371760 0.508490 0.492680 1.061519
O9    O     O_3   0.822299 0.343205 0.632134 -0.593709
C41   C     C_3   0.858228 0.239125 0.645053 -0.340098
H13   H     H_    0.948922 0.231066 0.706092 0.162603
H14   H     H_    0.858330 0.209253 0.579093 0.200542
H15   H     H_    0.791648 0.189513 0.663410 0.205391
O10   O     O_3   0.177381 0.655324 0.366496 -0.565458
C42   C     C_3   0.139876 0.759054 0.350940 -0.321228
H16   H     H_    0.138989 0.790758 0.415940 0.193673
H17   H     H_    0.049213 0.765257 0.289529 0.152347
H18   H     H_    0.206014 0.808310 0.331766 0.204918
O11   O     O_3   0.584150 0.503861 0.226528 -0.557495
C43   C     C_3   0.592706 0.398000 0.213205 -0.262929
H19   H     H_    0.571418 0.384718 0.137290 0.144002
H20   H     H_    0.532122 0.347128 0.237729 0.140610
H21   H     H_    0.688051 0.375126 0.256862 0.187569
O12   O     O_3   0.437752 0.443430 0.788011 -0.561385
C44   C     C_3   0.466193 0.345666 0.837744 -0.221730
H22   H     H_    0.494524 0.351813 0.915822 0.129569
H23   H     H_    0.538350 0.308935 0.824513 0.141160
H24   H     H_    0.383195 0.293513 0.811318 0.212240
O13   O     O_3   0.169378 0.503457 0.196199 -0.566940
C45   C     C_3   0.060003 0.557194 0.150181 -0.239288
H25   H     H_    0.076249 0.639818 0.130516 0.149494
H26   H     H_    0.995900 0.515052 0.087118 0.140619
H27   H     H_    0.015427 0.557790 0.200113 0.201687
O14   O     O_3   0.830114 0.560464 0.797289 -0.583397
C46   C     C_3   0.893438 0.467097 0.826759 -0.240183
H28   H     H_    0.963344 0.468726 0.797468 0.192315
H29   H     H_    0.941169 0.458305 0.905883 0.120707
H30   H     H_    0.830922 0.398090 0.799161 0.193948
O15   O     O_3   0.255399 0.976196 0.517330 -0.629992
C47   C     C_3   0.267439 0.977615 0.612152 -0.331557
H31   H     H_    0.353548 0.941798 0.663463 0.157436
H32   H     H_    0.190191 0.930768 0.618115 0.205814
H33   H     H_    0.262911 0.058065 0.631902 0.189831
O16   O     O_3   0.743349 0.023806 0.480452 -0.628815
C48   C     C_3   0.730249 0.023346 0.385302 -0.338716
H34   H     H_    0.807757 0.069721 0.379294 0.203009
H35   H     H_    0.644431 0.060219 0.334799 0.152742
H36   H     H_    0.733372 0.943053 0.364535 0.193830
Cl1   Cl    Cl    0.748984 0.645912 0.389826 -0.631883
Cl2   Cl    Cl    0.247676 0.350908 0.605731 -0.632128

loop_
_geom_bond_atom_site_label_1
_geom_bond_atom_site_label_2
_ccdc_geom_bond_type
C41   H14   S    
C8    C13   A    
C5    C37   A    
C1    C8    S    
O15   C47   S    
C43   H21   S    
C12   H11   S    
C44   H22   S    
O13   C45   S    
C27   C33   A    
C23   O5    A    
C48   H34   S    
C17   C26   A    
C35   C37   A    
C9    C16   A    
C43   H20   S    
C18   H4    S    
C10   C15   A    
C21   N2    A    
C45   H26   S    
C41   H15   S    
C15   C16   A    
C47   H33   S    
C30   C38   A    
C5    H1    S    
C11   H12   S    
C33   C35   A    
C7    C14   A    
C2    C7    S    
C47   H32   S    
O1    Zn1   S    
C6    C38   A    
O10   C42   S    
C23   C27   S    
C9    O15   S    
C18   C20   A    
C21   Cl2   S    
C34   O11   S    
C41   H13   S    
C28   C34   A    
C48   H35   S    
C18   C25   A    
C44   H23   S    
C22   N1    A    
C7    C12   A    
C27   C31   A    
C20   O9    S    
C28   C32   A    
C43   H19   S    
C4    C6    A    
C39   C40   A    
C42   H17   S    
C45   H25   S    
O12   C44   S    
C25   C26   A    
C29   H5    S    
O7    Zn2   S    
C35   C39   A    
O11   C43   S    
C17   H3    S    
O8    Zn1   S    
C1    O3    A    
C46   H29   S    
C4    C39   A    
C36   C40   A    
C24   O6    A    
C31   O14   S    
C47   H31   S    
O2    Zn2   S    
C10   O16   S    
C9    C11   A    
C10   C12   A    
C19   N2    A    
C3    C40   A    
C48   H36   S    
C13   C15   A    
C22   C26   A    
C14   C16   A    
C46   H28   S    
C44   H24   S    
O3    Zn2   S    
C4    H8    S    
O4    Zn1   S    
C21   C25   A    
C24   O8    A    
C30   H6    S    
C24   C28   S    
C20   N1    A    
C3    C5    A    
C45   H27   S    
C42   H18   S    
C2    O4    A    
C33   O12   S    
C22   Cl1   S    
O5    Zn1   S    
O6    Zn2   S    
C36   C38   A    
C1    O1    A    
C42   H16   S    
C29   C31   A    
C2    O2    A    
C46   H30   S    
C30   C32   A    
N1    Zn1   S    
O14   C46   S    
N2    Zn2   S    
C8    C11   A    
C32   O13   S    
C3    H7    S    
O16   C48   S    
C17   C19   A    
C34   C36   A    
C13   H10   S    
C14   H9    S    
C23   O7    A    
O9    C41   S    
C6    H2    S    
C29   C37   A    
C19   O10   S    
