data_mof_unit_32874.cif
_audit_creation_date              2012-12-10T20:42:37-0500
_audit_creation_method            fapswitch 2.2
_symmetry_space_group_name_H-M    P1
_symmetry_Int_Tables_number       1
_space_group_crystal_system       triclinic
_cell_length_a                    8.892287
_cell_length_b                    10.682585
_cell_length_c                    9.89612
_cell_angle_alpha                 89.82584
_cell_angle_beta                  90.251607
_cell_angle_gamma                 90.239117
_cell_volume                      940.036743442

loop_
_atom_site_label
_atom_site_type_symbol
_atom_type_description
_atom_site_fract_x
_atom_site_fract_y
_atom_site_fract_z
_atom_type_partial_charge
C1    C     C_R   0.507730 0.260238 0.500053 0.888811
C2    C     C_R   0.593543 0.932909 0.395018 -0.220306
C3    C     C_R   0.521776 0.870992 0.501753 -0.132843
C4    C     C_R   0.481242 0.936278 0.616632 0.107480
C5    C     C_3   0.342346 0.931910 0.702054 -0.013859
C6    C     C_3   0.351508 0.074218 0.704786 -0.460837
C7    C     C_R   0.367508 0.491732 0.070381 0.124707
C8    C     C_R   0.629279 0.517876 0.072222 -0.122665
C9    C     C_R   0.629254 0.517911 0.928698 -0.110577
C10   C     C_R   0.368294 0.492474 0.927780 0.089522
C11   C     C_3   0.256179 0.389907 0.916287 -0.526091
C12   C     C_R   0.218844 0.500285 0.499871 0.930819
C13   C     C_3   0.255673 0.385218 0.069867 0.716183
C14   C     C_R   0.503141 0.739666 0.499909 0.886647
C15   C     C_R   0.781185 0.500202 0.500222 0.921319
C16   C     C_1   0.065466 0.500631 0.500052 -0.224771
C17   C     C_1   0.934563 0.500536 0.500444 -0.203166
C18   C     C_R   0.488069 0.063292 0.617741 0.036175
C19   C     C_R   0.530941 0.128431 0.501999 -0.105592
C20   C     C_R   0.600098 0.063381 0.393962 0.171421
H1    H     H_    0.303767 0.305317 0.868565 0.216593
H2    H     H_    0.638555 0.880310 0.310946 0.168241
H3    H     H_    0.362773 0.887944 0.802468 0.176830
H4    H     H_    0.257180 0.123536 0.653296 0.205050
H5    H     H_    0.380614 0.110156 0.806763 0.199063
H6    H     H_    0.734273 0.530594 0.125998 0.152048
H7    H     H_    0.734239 0.530600 0.875641 0.148905
H8    H     H_    0.149697 0.423319 0.869355 0.177431
N1    N     N_R   0.499010 0.499140 0.142800 -0.091555
N2    N     N_R   0.499010 0.499180 0.857150 -0.088031
O1    O     O_R   0.500020 0.316790 0.614690 -0.620253
O2    O     O_R   0.500000 0.316760 0.385350 -0.568290
O3    O     O_R   0.285350 0.500020 0.614650 -0.616362
O4    O     O_R   0.285340 0.499980 0.385310 -0.609222
O5    O     O_R   0.500000 0.683240 0.614650 -0.618872
O6    O     O_R   0.499980 0.683210 0.385310 -0.623190
O7    O     O_R   0.714660 0.500020 0.614690 -0.625783
O8    O     O_R   0.714650 0.499980 0.385350 -0.632042
Zn1   Zn    Zn3+2 0.500010 0.500020 0.653130 0.944720
Zn2   Zn    Zn3+2 0.499990 0.499980 0.346870 0.974920
C21   C     C_3   0.676713 0.128388 0.277237 -0.810870
H9    H     H_    0.755681 0.200977 0.315656 0.228332
H10   H     H_    0.743030 0.061650 0.215861 0.217971
H11   H     H_    0.591911 0.171800 0.209397 0.296359
C22   C     C_3   0.101426 0.415375 0.129805 -0.867951
H12   H     H_    0.100132 0.393431 0.239022 0.270179
H13   H     H_    0.071826 0.515326 0.113873 0.191940
H14   H     H_    0.013725 0.355976 0.081472 0.225766
F1    F     F_    0.315830 0.274985 0.120196 -0.651895
C23   C     C_3   0.201894 0.881852 0.629365 -0.862209
H15   H     H_    0.190612 0.923036 0.526521 0.251376
H16   H     H_    0.208218 0.778480 0.620686 0.242725
H17   H     H_    0.100343 0.905494 0.688804 0.245698

loop_
_geom_bond_atom_site_label_1
_geom_bond_atom_site_label_2
_ccdc_geom_bond_type
C2    H2    S    
C7    C10   A    
C23   H16   S    
C15   O8    A    
C7    N1    A    
C8    H6    S    
C21   H9    S    
C10   N2    A    
O5    Zn1   S    
C19   C20   A    
C5    H3    S    
C7    C13   S    
C6    H4    S    
C22   H13   S    
C2    C3    A    
C4    C18   A    
O7    Zn1   S    
C22   H12   S    
C13   C22   S    
C11   C13   S    
O3    Zn1   S    
C3    C14   S    
C11   H8    S    
O4    Zn2   S    
C8    N1    A    
C9    N2    A    
N1    Zn2   S    
O8    Zn2   S    
O1    Zn1   S    
N2    Zn1   S    
C23   H15   S    
O2    Zn2   S    
C14   O6    A    
C5    C6    S    
C6    C18   S    
C21   H11   S    
C13   F1    S    
C5    C23   S    
C1    C19   S    
C23   H17   S    
C16   C17   T    
C10   C11   S    
C2    C20   A    
C3    C4    A    
C6    H5    S    
C1    O1    A    
C9    H7    S    
C18   C19   A    
C22   H14   S    
C14   O5    A    
C15   C17   S    
C4    C5    S    
O6    Zn2   S    
C12   O3    A    
C12   O4    A    
C11   H1    S    
C1    O2    A    
C15   O7    A    
C21   H10   S    
C12   C16   S    
C20   C21   S    
C8    C9    A    
