data_mof_unit_16538.cif
_audit_creation_date              2012-10-26T18:50:27-0400
_audit_creation_method            fapswitch 2.2
_symmetry_space_group_name_H-M    P1
_symmetry_Int_Tables_number       1
_space_group_crystal_system       triclinic
_cell_length_a                    9.612926
_cell_length_b                    10.858783
_cell_length_c                    15.453382
_cell_angle_alpha                 86.991404
_cell_angle_beta                  74.402229
_cell_angle_gamma                 89.947818
_cell_volume                      1551.40319364

loop_
_atom_site_label
_atom_site_type_symbol
_atom_type_description
_atom_site_fract_x
_atom_site_fract_y
_atom_site_fract_z
_atom_type_partial_charge
C1    C     C_R   0.003657 0.263260 0.493003 0.567761
C2    C     C_R   0.232816 0.572196 0.043940 0.046919
C3    C     C_R   0.330008 0.529977 0.093233 0.032955
C4    C     C_R   0.918108 0.500522 0.672140 0.564181
C5    C     C_R   0.086491 0.589034 0.087800 -0.145046
C6    C     C_R   0.034441 0.562229 0.180030 -0.145479
C7    C     C_R   0.273445 0.498787 0.185458 -0.134952
C8    C     C_R   0.279340 0.121611 0.441709 -0.068396
C9    C     C_R   0.402996 0.062595 0.452041 -0.114264
C10   C     C_R   0.391018 0.947082 0.496441 -0.116162
C11   C     C_R   0.257863 0.885560 0.522195 -0.090518
C12   C     C_R   0.675071 0.518420 0.908341 0.034574
C13   C     C_R   0.133817 0.938605 0.502641 0.026083
C14   C     C_R   0.141163 0.064879 0.475675 0.039478
C15   C     C_R   0.009978 0.129504 0.485000 -0.004640
C16   C     C_R   0.999188 0.737434 0.504837 0.530071
C17   C     C_R   0.879874 0.063874 0.498773 -0.159828
C18   C     C_R   0.877811 0.936537 0.506317 -0.161316
C19   C     C_R   0.003124 0.872091 0.508468 -0.007962
C20   C     C_R   0.697678 0.659203 0.376716 -0.097136
C21   C     C_R   0.652385 0.737012 0.315805 -0.182595
C22   C     C_R   0.508911 0.738117 0.315995 -0.166490
C23   C     C_R   0.775274 0.491652 0.959132 0.050823
C24   C     C_R   0.409903 0.661223 0.376945 -0.088627
C25   C     C_R   0.451796 0.577706 0.438623 0.122718
C26   C     C_R   0.601213 0.577495 0.438761 0.142479
C27   C     C_R   0.550155 0.429691 0.560034 -0.003295
C28   C     C_R   0.081758 0.502681 0.327896 0.523342
C29   C     C_R   0.402033 0.430616 0.562215 0.143167
C30   C     C_R   0.871907 0.501874 0.770881 -0.002886
C31   C     C_R   0.128194 0.517763 0.229357 -0.001832
C32   C     C_R   0.921663 0.474802 0.915798 -0.143041
C33   C     C_R   0.970021 0.482470 0.822358 -0.134926
C34   C     C_R   0.527340 0.538858 0.953468 0.032753
C35   C     C_R   0.725797 0.519895 0.813991 -0.128819
C36   C     C_2   0.306753 0.360356 0.640452 0.570942
C37   C     C_R   0.479759 0.519824 0.048813 0.031832
C38   C     C_R   0.583921 0.494689 0.096812 -0.138334
C39   C     C_R   0.728675 0.481586 0.052599 -0.137062
C40   C     C_R   0.426415 0.580373 0.906788 -0.120718
C41   C     C_R   0.282563 0.598011 0.951569 -0.130851
Cu1   Cu    Cu3+1 0.140660 0.499990 0.500010 0.958754
Cu2   Cu    Cu3+1 0.859340 0.500010 0.499990 0.924068
H1    H     H_    0.804509 0.462021 0.092090 0.111992
H2    H     H_    0.809014 0.668166 0.373177 0.183818
H3    H     H_    0.729090 0.798293 0.269030 0.121170
H4    H     H_    0.340053 0.458326 0.225015 0.120150
H5    H     H_    0.473287 0.800656 0.269605 0.128176
H6    H     H_    0.301721 0.673833 0.374021 0.188383
H7    H     H_    0.922042 0.578838 0.212845 0.123043
H8    H     H_    0.209412 0.631366 0.913313 0.115058
H9    H     H_    0.998724 0.454245 0.954162 0.116453
H10   H     H_    0.083316 0.470466 0.790523 0.166803
H11   H     H_    0.652684 0.531300 0.772404 0.136236
H12   H     H_    0.012703 0.624938 0.050924 0.110205
H13   H     H_    0.558161 0.488339 0.169194 0.110902
H14   H     H_    0.455901 0.604577 0.835666 0.122575
H15   H     H_    0.266361 0.312899 0.773176 0.332662
H16   H     H_    0.778773 0.110872 0.503760 0.137878
H17   H     H_    0.294163 0.210446 0.405317 0.134957
H18   H     H_    0.507466 0.108140 0.427988 0.106904
H19   H     H_    0.485492 0.903868 0.509426 0.114250
H20   H     H_    0.254218 0.798964 0.560265 0.152118
H21   H     H_    0.776667 0.888606 0.512019 0.137360
H22   H     H_    0.587091 0.372489 0.608773 0.154608
N1    N     N_R   0.648320 0.501210 0.499140 -0.267841
N2    N     N_R   0.352470 0.501290 0.499110 -0.276909
O1    O     O_R   0.118810 0.319640 0.500010 -0.454820
O2    O     O_R   0.330398 0.370761 0.725283 -0.755029
O3    O     O_R   0.881240 0.319660 0.500000 -0.508210
O4    O     O_R   0.055570 0.499980 0.629840 -0.472285
O5    O     O_R   0.818000 0.500010 0.629830 -0.506173
O6    O     O_R   0.118760 0.680340 0.500000 -0.541645
O7    O     O_R   0.881190 0.680360 0.499990 -0.522564
O8    O     O_R   0.182000 0.499990 0.370170 -0.536704
O9    O     O_R   0.944430 0.500020 0.370160 -0.520456
O10   O     O_2   0.217507 0.286217 0.631370 -0.480788

loop_
_geom_bond_atom_site_label_1
_geom_bond_atom_site_label_2
_ccdc_geom_bond_type
C22   H5    S    
Cu2   O5    S    
C27   C29   A    
C34   C37   A    
C25   N2    A    
C29   C36   S    
Cu1   O8    S    
C30   C35   A    
C34   C40   A    
C11   H20   S    
C36   O10   D    
Cu2   N1    S    
C5    C6    A    
C2    C41   A    
Cu2   O9    S    
C1    O1    A    
C18   C19   A    
C32   H9    S    
C29   N2    A    
C8    C9    A    
C1    C15   S    
C9    C10   A    
C20   H2    S    
Cu2   O7    S    
C6    C31   A    
C13   C14   A    
C35   H11   S    
Cu1   O1    S    
C10   H19   S    
C33   H10   S    
C7    C31   A    
C13   C19   A    
C16   O6    A    
C26   N1    A    
C24   C25   A    
C25   C26   A    
C7    H4    S    
C37   C38   A    
C27   H22   S    
C12   C23   A    
C17   C18   A    
C6    H7    S    
C12   C35   A    
C17   H16   S    
C40   C41   A    
Cu2   O3    S    
Cu1   N2    S    
C9    H18   S    
C2    C5    A    
Cu1   Cu2   S    
C12   C34   A    
C28   O9    A    
C4    O5    A    
C36   O2    S    
C21   H3    S    
C24   H6    S    
C15   C17   A    
Cu1   O6    S    
C8    C14   A    
C40   H14   S    
C30   C33   A    
C5    H12   S    
C28   C31   S    
C23   C32   A    
H15   O2    S    
C39   H1    S    
C16   O7    A    
C3    C7    A    
C1    O3    A    
C32   C33   A    
C2    C3    A    
C27   N1    A    
C8    H17   S    
C11   C13   A    
C18   H21   S    
C38   C39   A    
C20   C26   A    
C16   C19   S    
C23   C39   A    
Cu1   O4    S    
C22   C24   A    
C10   C11   A    
C38   H13   S    
C20   C21   A    
C3    C37   A    
C14   C15   A    
C21   C22   A    
C28   O8    A    
C41   H8    S    
C4    O4    A    
C4    C30   S    
