data_mof_unit_37060.cif
_audit_creation_date              2013-03-05T15:46:43-0500
_audit_creation_method            fapswitch 2.2
_symmetry_space_group_name_H-M    P1
_symmetry_Int_Tables_number       1
_space_group_crystal_system       triclinic
_cell_length_a                    8.258209
_cell_length_b                    16.364437
_cell_length_c                    19.017699
_cell_angle_alpha                 107.996965
_cell_angle_beta                  85.353356
_cell_angle_gamma                 97.47701
_cell_volume                      2421.26985377

loop_
_atom_site_label
_atom_site_type_symbol
_atom_site_description
_atom_site_fract_x
_atom_site_fract_y
_atom_site_fract_z
_atom_type_partial_charge
P1    P     P_3+3 0.391560 0.302240 0.409860 0.487677
O1    O     O_2   0.558990 0.288510 0.428270 -0.342670
O2    O     O_3   0.341190 0.396600 0.446070 -0.406386
O3    O     O_3   0.809080 0.340350 0.563320 -0.377412
O4    O     O_2   0.632692 0.191687 0.499333 -0.378834
O5    O     O_3   0.406584 0.274792 0.313064 -0.585888
O6    O     O_3   0.748004 0.205804 0.627945 -0.545004
H1    H     H_    0.765533 0.332178 0.697274 0.169674
C1    C     C_3   0.837840 0.245235 0.752558 -0.146799
H2    H     H_    0.864602 0.176893 0.735144 0.136960
P2    P     P_3+3 0.873530 0.566630 0.670640 0.470124
P3    P     P_3+3 0.379429 0.383400 0.697797 0.483619
O7    O     O_2   0.692320 0.540420 0.676730 -0.396353
O8    O     O_3   0.406060 0.383660 0.606030 -0.354476
O9    O     O_2   0.522118 0.445643 0.738988 -0.364023
O10   O     O_3   0.917532 0.679217 0.709714 -0.544609
O11   O     O_3   0.420735 0.281521 0.700892 -0.489530
C2    C     C_3   0.276784 0.226688 0.707332 0.593155
H3    H     H_    0.173121 0.264075 0.729974 -0.065624
C3    C     C_3   0.306183 0.179780 0.763910 -0.315272
H4    H     H_    0.399869 0.134289 0.742259 0.230446
H5    H     H_    0.358465 0.231071 0.812331 0.222821
C4    C     C_3   0.312498 0.652751 0.706209 0.248735
H6    H     H_    0.197721 0.633031 0.676724 0.130224
H7    H     H_    0.384718 0.596600 0.691713 0.063804
C5    C     C_3   0.273374 0.680057 0.790110 -0.108078
H8    H     H_    0.197300 0.626196 0.804465 0.064309
H9    H     H_    0.387203 0.691781 0.819988 0.114043
Ba1   Ba    Ba6+2 0.640410 0.457420 0.526150 1.564486
C6    C     C_3   0.449816 0.345939 0.286480 0.179643
H10   H     H_    0.584912 0.357040 0.282084 0.116515
H11   H     H_    0.401926 0.406153 0.322003 0.124988
C7    C     C_3   0.378922 0.321809 0.209606 -0.112889
H12   H     H_    0.376572 0.251011 0.182054 0.156390
H13   H     H_    0.250382 0.337128 0.215589 0.145663
C8    C     C_3   0.786838 0.726802 0.712105 0.698751
H14   H     H_    0.681870 0.687160 0.681188 0.093891
C9    C     C_3   0.849193 0.796625 0.675820 -0.989475
H15   H     H_    0.953276 0.839794 0.705534 0.287030
H16   H     H_    0.751005 0.836862 0.676211 0.208656
H17   H     H_    0.893956 0.765476 0.618538 0.261466
P4    P     P_3+3 0.418740 0.697770 0.590200 0.495181
O12   O     O_2   0.251320 0.711540 0.571760 -0.317633
O13   O     O_3   0.469110 0.603410 0.553990 -0.402569
O14   O     O_3   0.001220 0.659660 0.436740 -0.344889
O15   O     O_3   0.402920 0.721449 0.686658 -0.565942
P5    P     P_3+3 0.426288 0.614882 0.300922 0.492434
O16   O     O_3   0.861890 0.456640 0.409240 -0.392611
O17   O     O_3   0.404240 0.616350 0.394030 -0.369828
O18   O     O_2   0.287170 0.549897 0.259739 -0.337235
O19   O     O_3   0.378085 0.713041 0.293163 -0.485827
Ba2   Ba    Ba6+2 0.169770 0.542590 0.473910 1.585144
P6    P     P_3+3 0.788718 0.228672 0.543643 0.462641
C10   C     C_3   0.829097 0.273038 0.683421 0.344628
H18   H     H_    0.957354 0.288289 0.664576 -0.037806
H19   H     H_    0.937430 0.286396 0.786458 0.062706
O20   O     O_3   0.948410 0.543360 0.590820 -0.369479
C11   C     C_3   0.952183 0.280113 0.324924 0.423417
H20   H     H_    0.078901 0.304512 0.342513 0.086038
H21   H     H_    0.866352 0.291697 0.374218 0.122733
C12   C     C_3   0.944320 0.183149 0.287476 -0.976520
H22   H     H_    0.031815 0.169434 0.238837 0.266839
H23   H     H_    0.976585 0.150524 0.326763 0.216687
H24   H     H_    0.818728 0.156887 0.268988 0.272524
P7    P     P_3+3 0.929247 0.431822 0.316177 0.449801
O21   O     O_2   0.117990 0.459640 0.323300 -0.372147
O22   O     O_3   0.908053 0.319741 0.274597 -0.556596
C13   C     C_3   0.514068 0.776517 0.307570 0.713704
H25   H     H_    0.632047 0.748503 0.298676 -0.040899
C14   C     C_3   0.498991 0.834161 0.387604 -0.942873
H26   H     H_    0.480510 0.793530 0.425047 0.271570
H27   H     H_    0.611362 0.879918 0.402212 0.187008
H28   H     H_    0.392898 0.871965 0.396116 0.278339
P8    P     P_3+3 0.018259 0.771883 0.457839 0.478960
C15   C     C_3   0.959612 0.779169 0.330092 0.423027
H29   H     H_    0.870594 0.827055 0.353218 0.034144
O23   O     O_2   0.159054 0.809815 0.511370 -0.377379
O24   O     O_3   0.089995 0.797435 0.377367 -0.481238
H30   H     H_    0.898641 0.712278 0.321866 0.062365
H31   H     H_    0.920761 0.773723 0.217538 0.204670
C16   C     C_3   0.023735 0.786737 0.254895 -0.931992
H32   H     H_    0.112027 0.738923 0.229848 0.286634
H33   H     H_    0.085088 0.852916 0.260823 0.253707
C17   C     C_2   0.699193 0.753646 0.508414 -0.475917
C18   C     C_R   0.098466 0.248508 0.477532 -0.538244
C19   C     C_2   0.530260 0.862893 0.585387 -0.270598
C20   C     C_2   0.554968 0.779106 0.558154 0.314377
C21   C     C_2   0.824158 0.812821 0.501025 0.133478
C22   C     C_3   0.817456 0.907565 0.544282 0.028972
C23   C     C_3   0.641290 0.931445 0.562435 0.026267
C24   C     C_2   0.930814 0.969159 0.512494 -0.193969
C25   C     C_2   0.882446 0.034354 0.492924 -0.174617
C26   C     C_R   0.148212 0.074479 0.432498 0.003455
C27   C     C_R   0.002095 0.099482 0.471707 -0.006120
C28   C     C_R   0.267818 0.135437 0.416051 -0.269035
C29   C     C_R   0.244591 0.223120 0.439695 0.348934
C30   C     C_R   0.975552 0.187461 0.492584 0.189232
H34   H     H_    0.425934 0.882094 0.622705 0.170389
H35   H     H_    0.377859 0.114058 0.384647 0.161362
H36   H     H_    0.708619 0.685238 0.482673 0.176344
H37   H     H_    0.079171 0.316055 0.493782 0.180677
H38   H     H_    0.060506 0.963145 0.510723 0.181440
H39   H     H_    0.754064 0.043725 0.497515 0.175061
C31   C     C_R   0.099927 0.461499 0.692731 -0.497065
C32   C     C_R   0.964319 0.505717 0.722683 0.289727
C33   C     C_R   0.909876 0.512017 0.795976 -0.247619
C34   C     C_R   0.995940 0.479484 0.840760 0.058769
C35   C     C_R   0.136588 0.438735 0.810357 -0.331004
C36   C     C_R   0.187114 0.428731 0.736489 0.210346
C37   C     C_R   0.951532 0.424852 0.951633 -0.110822
C38   C     C_R   0.907285 0.436491 0.026387 -0.070845
C39   C     C_R   0.855189 0.515087 0.071801 0.140986
C40   C     C_R   0.846670 0.581337 0.040000 -0.168793
C41   C     C_R   0.890415 0.569554 0.965028 -0.144103
C42   C     C_R   0.943984 0.491232 0.919931 0.166744
C43   C     C_R   0.670900 0.569574 0.185165 -0.191546
C44   C     C_R   0.620914 0.574794 0.258613 0.205083
C45   C     C_R   0.841855 0.494328 0.266142 0.316841
C46   C     C_R   0.894281 0.490096 0.193369 -0.175852
C47   C     C_R   0.808767 0.527144 0.151637 0.065839
C48   C     C_R   0.708931 0.538720 0.298945 -0.483551
H40   H     H_    0.998093 0.455479 0.168798 0.147224
H41   H     H_    0.912002 0.383229 0.048330 0.155104
H42   H     H_    0.990317 0.363373 0.918437 0.121921
H43   H     H_    0.801727 0.543140 0.818528 0.154399
H44   H     H_    0.809196 0.642971 0.073419 0.118348
H45   H     H_    0.886030 0.622607 0.942820 0.134099
H46   H     H_    0.597329 0.593983 0.153246 0.142809
H47   H     H_    0.208488 0.415952 0.844175 0.156462
H48   H     H_    0.667034 0.539909 0.354632 0.160191
H49   H     H_    0.143158 0.457033 0.636583 0.171428
N1    N     N_R   0.188367 0.757744 0.817243 0.288225
O25   O     O_R   0.181126 0.808688 0.777149 -0.351479
O26   O     O_R   0.136076 0.781919 0.886115 -0.402035
N2    N     N_R   0.475107 0.366397 0.162099 0.244873
O27   O     O_R   0.405243 0.414036 0.132706 -0.376072
O28   O     O_R   0.619058 0.344055 0.136690 -0.403510
C49   C     C_3   0.732831 0.770798 0.793235 -0.354671
C50   C     C_3   0.713524 0.709747 0.840568 -0.856318
H50   H     H_    0.638357 0.648645 0.812891 0.241815
H51   H     H_    0.835495 0.695178 0.850527 0.282945
H52   H     H_    0.653618 0.741054 0.894956 0.254670
H53   H     H_    0.824088 0.826034 0.819392 0.241724
H54   H     H_    0.615041 0.797273 0.794480 0.196223
N3    N     N_R   0.689015 0.254755 0.799350 0.269872
O29   O     O_R   0.638591 0.330845 0.826591 -0.377713
O30   O     O_R   0.639635 0.195997 0.831709 -0.403001
C51   C     C_3   0.155612 0.135196 0.796198 -0.382340
C52   C     C_3   0.092794 0.045632 0.746483 -0.781185
H55   H     H_    0.036360 0.049311 0.696966 0.244032
H56   H     H_    0.193254 0.003619 0.729613 0.262382
H57   H     H_    0.997160 0.014993 0.777730 0.257735
H58   H     H_    0.192033 0.126163 0.848120 0.242850
H59   H     H_    0.056715 0.177564 0.812944 0.200771
C53   C     C_3   0.516748 0.831868 0.255141 -0.376439
C54   C     C_3   0.536385 0.778593 0.174059 -0.890816
H60   H     H_    0.653526 0.749742 0.164011 0.228903
H61   H     H_    0.433519 0.726427 0.158587 0.279290
H62   H     H_    0.537232 0.821060 0.138386 0.268148
H63   H     H_    0.401412 0.862566 0.263150 0.217457
H64   H     H_    0.620304 0.884155 0.268082 0.175654
C55   C     C_3   0.234233 0.165750 0.629619 -0.357741
C56   C     C_3   0.346747 0.094278 0.598322 -0.781248
H65   H     H_    0.476205 0.120624 0.606823 0.310088
H66   H     H_    0.317031 0.042269 0.624692 0.232570
H67   H     H_    0.331613 0.064558 0.538191 0.241934
H68   H     H_    0.105252 0.136910 0.629530 0.157281
H69   H     H_    0.243724 0.205565 0.591363 0.197326

loop_
_geom_bond_atom_site_label_1
_geom_bond_atom_site_label_2
_geom_bond_distance
_ccdc_geom_bond_type
C9    H16   1.107271 S    
C26   C27   1.404863 A    
O3    P6    1.736625 S    
C2    C55   1.544146 S    
C28   C29   1.398861 A    
C17   C20   1.479878 S    
C48   H48   1.082255 S    
C13   C53   1.537660 S    
C41   C42   1.407422 A    
C49   C50   1.524754 S    
C5    N1    1.464064 S    
N2    O27   1.300657 A    
P5    O17   1.758325 S    
C53   H64   1.112467 S    
C33   H43   1.078124 S    
C5    H8    1.105838 S    
C55   C56   1.532517 S    
C51   H59   1.103591 S    
O1    Ba1   2.845538 S    
O7    Ba1   2.805916 S    
C54   H60   1.108334 S    
C56   H66   1.107065 S    
C2    H3    1.098359 S    
P3    C36   1.842287 S    
C49   H53   1.112678 S    
C52   H56   1.110371 S    
C31   C36   1.404198 A    
C18   C29   1.397021 A    
C28   H35   1.081948 S    
O12   Ba2   2.845987 S    
C33   C34   1.410914 A    
C11   H21   1.111162 S    
C35   C36   1.398230 A    
O2    Ba1   2.906696 S    
P1    O1    1.514179 D    
P4    O15   1.751393 S    
C4    C5    1.537364 S    
C12   H23   1.109071 S    
C44   C48   1.395326 A    
C45   C46   1.399688 A    
C39   C40   1.406414 A    
C25   H39   1.083612 S    
C37   H42   1.082560 S    
C37   C38   1.399100 A    
C54   H61   1.110635 S    
C38   C39   1.408079 A    
N1    O25   1.301207 A    
P7    O22   1.750036 S    
C31   H49   1.081574 S    
P3    O11   1.763877 S    
P2    C32   1.860033 S    
C4    H6    1.100762 S    
C3    C51   1.540297 S    
C14   H26   1.104999 S    
O16   P7    1.749801 S    
C22   C24   1.515612 S    
C1    H2    1.110367 S    
O3    Ba1   2.793024 S    
C21   C22   1.520019 S    
O13   Ba2   2.907540 S    
C11   C12   1.520394 S    
C26   C28   1.398162 A    
C4    O15   1.398034 S    
P4    O13   1.579657 S    
C25   C27   1.483949 S    
C31   C32   1.398232 A    
C16   H33   1.110530 S    
N3    O29   1.301397 A    
P5    O18   1.541874 D    
N3    O30   1.300952 A    
Ba1   O16   2.760162 S    
C38   H41   1.082401 S    
P1    O5    1.752828 S    
C17   H36   1.084788 S    
C56   H67   1.106131 S    
C51   C52   1.528554 S    
C9    H17   1.106276 S    
C19   C23   1.503243 S    
C52   H57   1.110525 S    
H1    C10   1.110778 S    
C24   C25   1.347827 D    
C39   C47   1.493772 S    
C19   C20   1.344155 D    
C13   H25   1.108894 S    
P5    O19   1.755814 S    
C40   H44   1.081790 S    
O14   Ba2   2.792422 S    
P6    C30   1.844367 S    
C11   H20   1.109891 S    
P8    O23   1.545006 D    
C16   H32   1.110249 S    
C43   C47   1.414032 A    
O14   P8    1.743542 S    
P1    O2    1.579657 S    
C45   C48   1.392278 A    
C12   H24   1.110736 S    
C15   H29   1.110183 S    
P2    O10   1.761320 S    
C7    N2    1.455958 S    
P3    O9    1.543948 D    
O16   Ba2   2.909018 S    
C6    H10   1.107342 S    
C50   H50   1.108308 S    
O17   Ba2   2.749947 S    
C24   H38   1.085106 S    
C14   H28   1.110292 S    
P1    Ba1   3.386854 S    
O11   C2    1.414237 S    
C1    H19   1.104133 S    
C50   H51   1.108416 S    
C46   C47   1.412698 A    
C34   C42   1.491959 S    
C35   H47   1.082984 S    
C55   H69   1.109225 S    
N1    O26   1.300456 A    
O5    C6    1.401732 S    
Ba1   O20   2.909819 S    
P7    C45   1.837780 S    
Ba1   O13   2.822345 S    
C43   H46   1.081630 S    
P4    O12   1.514523 D    
O6    P6    1.753303 S    
C34   C35   1.408042 A    
C22   C23   1.540003 S    
C18   H37   1.081427 S    
C40   C41   1.401913 A    
C46   H40   1.082664 S    
O4    P6    1.547404 D    
N2    O28   1.300477 A    
C10   H18   1.112455 S    
C8    H14   1.103853 S    
C6    C7    1.535529 S    
C53   H63   1.111984 S    
C54   H62   1.110199 S    
C15   C16   1.520048 S    
C17   C21   1.350180 D    
C3    H5    1.109671 S    
H31   C16   1.109272 S    
O2    Ba2   2.822936 S    
P4    C20   1.846368 S    
C32   C33   1.406188 A    
C5    H9    1.102516 S    
C27   C30   1.411839 A    
C8    C9    1.524283 S    
P3    O8    1.742494 S    
C49   H54   1.110890 S    
C52   H55   1.105007 S    
O10   C8    1.400798 S    
C6    H11   1.109293 S    
C41   H45   1.081967 S    
P2    O7    1.507438 D    
C9    H15   1.109588 S    
C8    C49   1.543859 S    
C50   H52   1.110262 S    
P1    C29   1.845213 S    
C1    N3    1.453830 S    
C7    H13   1.111148 S    
C7    H12   1.112612 S    
C43   C44   1.403853 A    
C2    C3    1.551502 S    
O19   C13   1.409082 S    
C4    H7    1.111532 S    
C12   H22   1.110735 S    
C19   H34   1.085477 S    
C15   O24   1.401438 S    
C56   H65   1.104506 S    
C18   C30   1.405704 A    
Ba2   O20   2.759598 S    
C55   H68   1.107366 S    
C11   O22   1.403899 S    
P5    C44   1.843851 S    
Ba2   O21   2.806111 S    
C3    H4    1.109581 S    
P2    Ba1   3.373133 S    
C13   C14   1.527967 S    
P7    O21   1.570509 D    
P8    O24   1.747003 S    
C53   C54   1.526327 S    
C14   H27   1.109683 S    
C1    C10   1.527930 S    
O8    Ba1   2.749349 S    
O6    C10   1.406249 S    
P8    C21   1.849019 S    
C51   H58   1.112321 S    
P2    O20   1.543923 S    
C15   H30   1.113425 S    
C37   C42   1.405629 A    
P4    Ba2   3.387413 S    
Ba1   Ba2   4.574565 S    
