data_mof_unit_54915.cif
_audit_creation_date              2012-12-10T18:23:51-0500
_audit_creation_method            fapswitch 2.2
_symmetry_space_group_name_H-M    P1
_symmetry_Int_Tables_number       1
_space_group_crystal_system       triclinic
_cell_length_a                    22.53781
_cell_length_b                    22.447689
_cell_length_c                    14.629803
_cell_angle_alpha                 89.99864
_cell_angle_beta                  90.090696
_cell_angle_gamma                 89.999794
_cell_volume                      7401.52625518

loop_
_atom_site_label
_atom_site_type_symbol
_atom_type_description
_atom_site_fract_x
_atom_site_fract_y
_atom_site_fract_z
_atom_type_partial_charge
C1    C     C_R   0.419849 0.919689 0.499936 0.819608
C2    C     C_R   0.580142 0.080319 0.500064 0.819916
C3    C     C_R   0.580143 0.919681 0.500065 0.819922
C4    C     C_R   0.419850 0.080311 0.499934 0.819604
C5    C     C_R   0.919858 0.419681 0.499936 0.819918
C6    C     C_R   0.080151 0.580310 0.500064 0.819608
C7    C     C_R   0.080150 0.419688 0.500066 0.819604
C8    C     C_R   0.919857 0.580319 0.499935 0.819922
C9    C     C_1   0.337732 0.162839 0.499699 0.099863
C10   C     C_1   0.662232 0.837125 0.500292 0.099925
C11   C     C_1   0.662230 0.162877 0.500286 0.099927
C12   C     C_1   0.337728 0.837164 0.499710 0.099863
C13   C     C_1   0.837769 0.662876 0.499709 0.099919
C14   C     C_1   0.162266 0.337159 0.500300 0.099859
C15   C     C_1   0.162272 0.662835 0.500292 0.099866
C16   C     C_1   0.837769 0.337123 0.499711 0.099931
C17   C     C_1   0.499979 1.000000 0.194102 0.117554
C18   C     C_1   0.500015 0.000000 0.805897 0.117451
C19   C     C_1   0.999985 0.499999 0.194103 0.117442
C20   C     C_1   0.000021 0.500000 0.805897 0.117544
C21   C     C_3   0.529598 0.047843 0.969293 -0.144048
C22   C     C_3   0.470389 0.952157 0.030707 -0.144223
C23   C     C_3   0.473522 0.049660 0.030712 -0.144134
C24   C     C_3   0.526465 0.950341 0.969288 -0.143954
C25   C     C_3   0.034256 0.544609 0.969306 -0.144393
C26   C     C_3   0.965756 0.455390 0.030694 -0.144229
C27   C     C_3   0.978647 0.552081 0.030727 -0.143843
C28   C     C_3   0.021365 0.447918 0.969273 -0.144020
C29   C     C_3   0.697193 0.723837 0.513498 0.359980
C30   C     C_3   0.302363 0.275676 0.481283 0.360015
C31   C     C_3   0.302358 0.724338 0.481188 0.360009
C32   C     C_3   0.697197 0.276160 0.513558 0.359962
C33   C     C_3   0.197635 0.224321 0.518714 0.360011
C34   C     C_3   0.802809 0.776165 0.486505 0.359975
C35   C     C_3   0.802803 0.223840 0.486439 0.359962
C36   C     C_3   0.197643 0.775661 0.518817 0.360008
C37   C     C_3   0.237031 0.209252 0.436115 -0.076319
C38   C     C_3   0.761119 0.788892 0.567339 -0.076133
C39   C     C_3   0.761140 0.211082 0.567294 -0.076142
C40   C     C_3   0.236996 0.790786 0.436190 -0.076317
C41   C     C_3   0.738882 0.711110 0.432664 -0.076149
C42   C     C_3   0.262967 0.290746 0.563882 -0.076332
C43   C     C_3   0.263004 0.709214 0.563814 -0.076294
C44   C     C_3   0.738860 0.288917 0.432702 -0.076118
C45   C     C_1   0.375304 0.125134 0.499795 -0.163356
C46   C     C_1   0.624671 0.874841 0.500200 -0.163225
C47   C     C_1   0.624670 0.125160 0.500196 -0.163225
C48   C     C_1   0.375301 0.874869 0.499802 -0.163357
C49   C     C_1   0.875330 0.625159 0.499800 -0.163232
C50   C     C_1   0.124695 0.374866 0.500204 -0.163363
C51   C     C_1   0.124699 0.625130 0.500199 -0.163353
C52   C     C_1   0.875330 0.374840 0.499803 -0.163220
C53   C     C_3   0.252269 0.224145 0.582763 0.324497
C54   C     C_3   0.750006 0.778178 0.418975 0.324421
C55   C     C_3   0.749978 0.221854 0.418948 0.324441
C56   C     C_3   0.252310 0.775802 0.582801 0.324512
C57   C     C_3   0.749996 0.721823 0.581028 0.324419
C58   C     C_3   0.247728 0.275853 0.417235 0.324495
C59   C     C_3   0.247691 0.724198 0.417203 0.324514
C60   C     C_3   0.750022 0.278146 0.581048 0.324443
C61   C     C_3   0.291954 0.208408 0.499710 -0.079538
C62   C     C_3   0.708015 0.791561 0.500286 -0.079586
C63   C     C_3   0.708013 0.208441 0.500281 -0.079592
C64   C     C_3   0.291951 0.791595 0.499722 -0.079553
C65   C     C_3   0.791987 0.708441 0.499716 -0.079582
C66   C     C_3   0.208044 0.291590 0.500287 -0.079533
C67   C     C_3   0.208049 0.708405 0.500282 -0.079560
C68   C     C_3   0.791987 0.291559 0.499715 -0.079599
C69   C     C_3   0.556058 0.998184 0.030938 -0.141213
C70   C     C_3   0.443929 0.001817 0.969061 -0.141619
C71   C     C_3   0.055604 0.492527 0.030937 -0.141630
C72   C     C_3   0.944408 0.507472 0.969063 -0.141236
C73   C     C_3   0.499983 1.000000 0.091259 0.083605
C74   C     C_3   0.500004 0.000000 0.908740 0.083640
C75   C     C_3   0.999995 0.499999 0.091260 0.083659
C76   C     C_3   0.000016 0.500000 0.908740 0.083626
Cu1   Cu    Cu3+1 0.500000 0.000000 0.590220 0.992614
Cu2   Cu    Cu3+1 0.500000 0.000000 0.409780 0.993033
Cu3   Cu    Cu3+1 0.000000 0.500000 0.590220 0.993031
Cu4   Cu    Cu3+1 0.000000 0.500000 0.409780 0.992612
H1    H     H_    0.397502 0.003321 0.943721 0.131411
H2    H     H_    0.602485 0.996679 0.056277 0.131575
H3    H     H_    0.898368 0.513661 0.943724 0.131585
H4    H     H_    0.101644 0.486338 0.056277 0.131417
H5    H     H_    0.451599 0.090781 0.055862 0.128405
H6    H     H_    0.548387 0.909219 0.944138 0.128405
H7    H     H_    0.554115 0.087461 0.944148 0.128229
H8    H     H_    0.445871 0.912539 0.055851 0.128201
H9    H     H_    0.960957 0.595208 0.055889 0.128713
H10   H     H_    0.039055 0.404791 0.944111 0.128752
H11   H     H_    0.062619 0.581550 0.944173 0.127926
H12   H     H_    0.937393 0.418450 0.055828 0.128004
N1    N     N_1   0.499980 0.000000 0.274190 -0.151598
N2    N     N_1   0.500020 0.000000 0.725810 -0.151632
N3    N     N_1   0.999980 0.500000 0.274190 -0.151632
N4    N     N_1   0.000020 0.500000 0.725810 -0.151597
O1    O     O_R   0.439540 0.939530 0.576170 -0.563329
O2    O     O_R   0.560460 0.060470 0.423830 -0.563030
O3    O     O_R   0.560460 0.939530 0.423830 -0.563034
O4    O     O_R   0.439540 0.060470 0.576170 -0.563333
O5    O     O_R   0.939540 0.439530 0.576170 -0.563019
O6    O     O_R   0.060460 0.560470 0.423830 -0.563318
O7    O     O_R   0.060460 0.439530 0.423830 -0.563352
O8    O     O_R   0.939540 0.560470 0.576170 -0.563054
O9    O     O_R   0.439530 0.939530 0.423800 -0.575150
O10   O     O_R   0.560470 0.060470 0.576200 -0.575276
O11   O     O_R   0.560470 0.939530 0.576200 -0.575274
O12   O     O_R   0.439530 0.060470 0.423800 -0.575152
O13   O     O_R   0.939530 0.439530 0.423800 -0.575281
O14   O     O_R   0.060470 0.560470 0.576200 -0.575154
O15   O     O_R   0.060470 0.439530 0.576200 -0.575140
O16   O     O_R   0.939530 0.560470 0.423800 -0.575261
N5    N     N_3   0.224006 0.163462 0.368475 -0.600323
H13   H     H_    0.189789 0.179464 0.326934 0.239502
H14   H     H_    0.261534 0.158287 0.327437 0.212772
N6    N     N_3   0.772179 0.832707 0.638778 -0.600211
H15   H     H_    0.805236 0.815527 0.681427 0.239481
H16   H     H_    0.733534 0.836714 0.677605 0.212841
N7    N     N_3   0.772223 0.167239 0.638687 -0.600233
H17   H     H_    0.805293 0.184401 0.681325 0.239465
H18   H     H_    0.733591 0.163217 0.677541 0.212809
N8    N     N_3   0.223933 0.836616 0.368629 -0.600335
H19   H     H_    0.189696 0.820638 0.327106 0.239484
H20   H     H_    0.261439 0.841822 0.327553 0.212735
N9    N     N_3   0.727822 0.667295 0.361225 -0.600197
H21   H     H_    0.694766 0.684475 0.318576 0.239483
H22   H     H_    0.766467 0.663287 0.322398 0.212897
N10   N     N_3   0.275992 0.336536 0.631522 -0.600313
H23   H     H_    0.310209 0.320533 0.673063 0.239502
H24   H     H_    0.238464 0.341711 0.672560 0.212825
N11   N     N_3   0.276067 0.663383 0.631375 -0.600353
H25   H     H_    0.310304 0.679361 0.672898 0.239491
H26   H     H_    0.238561 0.658178 0.672451 0.212682
N12   N     N_3   0.727777 0.332761 0.361309 -0.600255
H27   H     H_    0.694707 0.315599 0.318671 0.239471
H28   H     H_    0.766410 0.336783 0.322455 0.212754
O17   O     O_3   0.639684 0.701014 0.528656 -0.574700
C77   C     C_3   0.641245 0.638184 0.530628 0.112855
H29   H     H_    0.680021 0.620518 0.569376 0.173311
H30   H     H_    0.642382 0.620463 0.459766 0.177111
C78   C     C_3   0.585265 0.615291 0.576654 -0.816956
H31   H     H_    0.545476 0.630875 0.538753 0.257321
H32   H     H_    0.585508 0.565819 0.577552 0.196757
H33   H     H_    0.583084 0.631908 0.648078 0.250155
O18   O     O_3   0.359382 0.297953 0.460810 -0.574756
C79   C     C_3   0.357760 0.360675 0.454852 0.113151
H34   H     H_    0.358692 0.380338 0.524510 0.177119
H35   H     H_    0.317895 0.377329 0.417704 0.173272
C80   C     C_3   0.412337 0.382162 0.403551 -0.817507
H36   H     H_    0.412405 0.363621 0.333166 0.249975
H37   H     H_    0.412093 0.431569 0.399517 0.197233
H38   H     H_    0.453190 0.367518 0.439599 0.257233
O19   O     O_3   0.359369 0.702081 0.460617 -0.574740
C81   C     C_3   0.357753 0.639363 0.454564 0.113118
H39   H     H_    0.317882 0.622732 0.417409 0.173299
H40   H     H_    0.358701 0.619652 0.524191 0.177110
C82   C     C_3   0.412321 0.617915 0.403204 -0.817468
H41   H     H_    0.453181 0.632538 0.439256 0.257231
H42   H     H_    0.412082 0.568511 0.399096 0.197228
H43   H     H_    0.412375 0.636503 0.332847 0.249987
O20   O     O_3   0.639694 0.298979 0.528782 -0.574702
C83   C     C_3   0.641257 0.361809 0.530793 0.112867
H44   H     H_    0.642356 0.379551 0.459941 0.177095
H45   H     H_    0.680054 0.379463 0.569503 0.173316
C84   C     C_3   0.585303 0.384689 0.576906 -0.816950
H46   H     H_    0.583161 0.368050 0.648322 0.250161
H47   H     H_    0.585546 0.434161 0.577834 0.196759
H48   H     H_    0.545493 0.369116 0.539047 0.257317
O21   O     O_3   0.140615 0.202045 0.539187 -0.574760
C85   C     C_3   0.142237 0.139323 0.545145 0.113160
H49   H     H_    0.182101 0.122669 0.582295 0.173274
H50   H     H_    0.141306 0.119660 0.475487 0.177122
C86   C     C_3   0.087660 0.117836 0.596444 -0.817542
H51   H     H_    0.046807 0.132480 0.560393 0.257233
H52   H     H_    0.087903 0.068429 0.600478 0.197239
H53   H     H_    0.087590 0.136378 0.666829 0.249961
O22   O     O_3   0.860318 0.798987 0.471347 -0.574702
C87   C     C_3   0.858757 0.861818 0.469375 0.112861
H54   H     H_    0.857619 0.879538 0.540237 0.177114
H55   H     H_    0.819982 0.879483 0.430625 0.173312
C88   C     C_3   0.914738 0.884710 0.423352 -0.816985
H56   H     H_    0.916920 0.868093 0.351928 0.250142
H57   H     H_    0.914495 0.934182 0.422453 0.196762
H58   H     H_    0.954526 0.869126 0.461254 0.257322
O23   O     O_3   0.860306 0.201021 0.471214 -0.574699
C89   C     C_3   0.858742 0.138190 0.469203 0.112858
H59   H     H_    0.819945 0.120537 0.430496 0.173311
H60   H     H_    0.857646 0.120449 0.540056 0.177093
C90   C     C_3   0.914695 0.115311 0.423087 -0.816933
H61   H     H_    0.954506 0.130884 0.460942 0.257316
H62   H     H_    0.914452 0.065839 0.422159 0.196753
H63   H     H_    0.916835 0.131949 0.351670 0.250174
O24   O     O_3   0.140631 0.797919 0.539387 -0.574736
C91   C     C_3   0.142248 0.860636 0.545440 0.113111
H64   H     H_    0.141298 0.880348 0.475813 0.177107
H65   H     H_    0.182120 0.877268 0.582592 0.173291
C92   C     C_3   0.087681 0.882085 0.596804 -0.817448
H66   H     H_    0.087631 0.863497 0.667161 0.250002
H67   H     H_    0.087920 0.931489 0.600911 0.197220
H68   H     H_    0.046820 0.867461 0.560756 0.257231
O25   O     O_3   0.746452 0.811633 0.337450 -0.570778
C93   C     C_3   0.786647 0.789312 0.272014 0.080670
H69   H     H_    0.765531 0.752275 0.233617 0.143724
H70   H     H_    0.829049 0.773247 0.302560 0.169031
C94   C     C_3   0.801555 0.838588 0.204533 -0.794002
H71   H     H_    0.822766 0.876467 0.240884 0.245809
H72   H     H_    0.832683 0.821486 0.151946 0.197686
H73   H     H_    0.760517 0.854508 0.170217 0.253486
O26   O     O_3   0.258106 0.193020 0.666133 -0.570716
C95   C     C_3   0.219789 0.217253 0.732634 0.081099
H74   H     H_    0.176547 0.232453 0.703901 0.169002
H75   H     H_    0.241933 0.255344 0.767015 0.143642
C96   C     C_3   0.206867 0.169995 0.804356 -0.795159
H76   H     H_    0.248855 0.155052 0.836934 0.253299
H77   H     H_    0.177242 0.188632 0.857772 0.197538
H78   H     H_    0.184693 0.131119 0.772084 0.245884
O27   O     O_3   0.258182 0.806875 0.666210 -0.570681
C97   C     C_3   0.219906 0.782590 0.732726 0.081052
H79   H     H_    0.242080 0.744485 0.767030 0.143554
H80   H     H_    0.176655 0.767392 0.704024 0.169008
C98   C     C_3   0.207003 0.829799 0.804529 -0.795030
H81   H     H_    0.184793 0.868685 0.772338 0.245878
H82   H     H_    0.177417 0.811118 0.857960 0.197536
H83   H     H_    0.249002 0.844742 0.837071 0.253353
O28   O     O_3   0.746395 0.188431 0.337398 -0.570740
C99   C     C_3   0.786570 0.210773 0.271950 0.080639
H84   H     H_    0.828986 0.226816 0.302476 0.169069
H85   H     H_    0.765447 0.247832 0.233607 0.143634
C100  C     C_3   0.801445 0.161524 0.204407 -0.793879
H86   H     H_    0.760392 0.145630 0.170106 0.253533
H87   H     H_    0.832561 0.178642 0.151815 0.197701
H88   H     H_    0.822657 0.123624 0.240705 0.245814
O29   O     O_3   0.241890 0.306978 0.333866 -0.570751
C101  C     C_3   0.280206 0.282747 0.267363 0.081080
H89   H     H_    0.258064 0.244653 0.232984 0.143609
H90   H     H_    0.323450 0.267549 0.296094 0.169017
C102  C     C_3   0.293124 0.330004 0.195638 -0.795268
H91   H     H_    0.315298 0.368882 0.227907 0.245905
H92   H     H_    0.322748 0.311367 0.142220 0.197575
H93   H     H_    0.251134 0.344945 0.163063 0.253175
O30   O     O_3   0.753551 0.688368 0.662552 -0.570815
C103  C     C_3   0.713356 0.710688 0.727989 0.080642
H94   H     H_    0.670953 0.726749 0.697444 0.169052
H95   H     H_    0.734471 0.747727 0.766383 0.143690
C104  C     C_3   0.698453 0.661412 0.795474 -0.794089
H96   H     H_    0.739493 0.645495 0.829788 0.253366
H97   H     H_    0.667325 0.678514 0.848063 0.197725
H98   H     H_    0.677243 0.623532 0.759126 0.245832
O31   O     O_3   0.753603 0.311569 0.662598 -0.570705
C105  C     C_3   0.713429 0.289225 0.728046 0.080607
H99   H     H_    0.734553 0.252168 0.766392 0.143655
H100  H     H_    0.671014 0.273178 0.697519 0.169039
C106  C     C_3   0.698549 0.338474 0.795586 -0.793765
H101  H     H_    0.677336 0.376373 0.759286 0.245811
H102  H     H_    0.667433 0.321355 0.848177 0.197642
H103  H     H_    0.739600 0.354370 0.829890 0.253638
O32   O     O_3   0.241820 0.693126 0.333793 -0.570650
C107  C     C_3   0.280095 0.717412 0.267278 0.081018
H104  H     H_    0.323345 0.732614 0.295982 0.168981
H105  H     H_    0.257920 0.755515 0.232972 0.143577
C108  C     C_3   0.293004 0.670203 0.195478 -0.794903
H106  H     H_    0.251007 0.655257 0.162933 0.253453
H107  H     H_    0.322591 0.688885 0.142049 0.197476
H108  H     H_    0.315215 0.631319 0.227671 0.245878

loop_
_geom_bond_atom_site_label_1
_geom_bond_atom_site_label_2
_ccdc_geom_bond_type
C26   H12   S    
C91   H65   S    
C21   H7    S    
C9    C45   T    
C84   H46   S    
C92   H68   S    
C33   C53   S    
C26   C72   S    
O21   C85   S    
C11   C47   T    
C40   N8    S    
C72   C76   S    
C58   O29   S    
C33   O21   S    
N10   H23   S    
O18   C79   S    
C97   H79   S    
C36   C67   S    
C19   C75   S    
C14   C50   T    
C88   H56   S    
C4    O12   A    
O31   C105  S    
C82   H41   S    
C93   H70   S    
C97   C98   S    
Cu2   O9    S    
C9    C61   S    
Cu1   O10   S    
N5    H13   S    
C100  H88   S    
C11   C63   S    
C39   C63   S    
C80   H37   S    
C42   C53   S    
C106  H101  S    
C12   C64   S    
C39   N7    S    
C87   H55   S    
C88   H58   S    
C91   C92   S    
C37   N5    S    
C85   H49   S    
C39   C60   S    
Cu2   N1    S    
C105  H100  S    
C83   C84   S    
C102  H92   S    
Cu1   N2    S    
N6    H15   S    
C20   C76   S    
Cu1   O4    S    
Cu2   O12   S    
O30   C103  S    
O25   C93   S    
C31   C59   S    
C92   H67   S    
C70   H1    S    
C36   O24   S    
C57   O30   S    
C69   H2    S    
N8    H19   S    
C59   C67   S    
C53   C61   S    
C58   C66   S    
C7    O15   A    
C93   C94   S    
C55   C63   S    
Cu4   O13   S    
C70   C74   S    
C103  H95   S    
C56   C64   S    
C5    C52   S    
Cu1   O1    S    
C25   C71   S    
C22   H8    S    
C6    C51   S    
C92   H66   S    
O29   C101  S    
C104  H98   S    
C81   H40   S    
C37   C58   S    
C12   C48   T    
C29   C41   S    
C105  C106  S    
C96   H77   S    
C91   H64   S    
C20   N4    T    
C82   H42   S    
C40   C59   S    
C7    O7    A    
C104  H96   S    
C32   O20   S    
C17   C73   S    
C6    O14   A    
C23   C70   S    
C10   C62   S    
C78   H31   S    
C101  H90   S    
C23   C73   S    
C95   H74   S    
C27   C75   S    
C34   C65   S    
C56   O27   S    
C31   O19   S    
C100  H86   S    
C24   C69   S    
O26   C95   S    
C79   H35   S    
C4    C45   S    
N7    H18   S    
C21   C23   S    
C44   N12   S    
C5    O5    A    
C25   H11   S    
C103  C104  S    
C93   H69   S    
C79   H34   S    
Cu4   O7    S    
C35   C55   S    
C72   H3    S    
C41   N9    S    
C36   C40   S    
C32   C63   S    
C81   C82   S    
C102  H93   S    
C88   H57   S    
C1    O1    A    
C108  H107  S    
N12   H28   S    
C54   C62   S    
C3    O11   A    
O27   C97   S    
Cu1   Cu2   S    
C38   C62   S    
C25   C27   S    
C21   C74   S    
C2    O10   A    
C78   H33   S    
C33   C37   S    
Cu4   O6    S    
C101  C102  S    
C59   O32   S    
C71   H4    S    
C90   H63   S    
C107  H105  S    
C43   C67   S    
Cu2   O2    S    
C98   H81   S    
C36   C56   S    
N9    H22   S    
C108  H108  S    
C79   C80   S    
C38   N6    S    
C18   C74   S    
C97   H80   S    
C15   C51   T    
Cu1   O11   S    
C35   O23   S    
C15   C67   S    
C33   C66   S    
Cu4   O16   S    
O28   C99   S    
C14   C66   S    
Cu4   N3    S    
C69   C73   S    
C8    O8    A    
C2    O2    A    
C81   H39   S    
C86   H52   S    
C31   C43   S    
O22   C87   S    
C13   C49   T    
C94   H71   S    
C53   O26   S    
C84   H48   S    
C29   C57   S    
C99   H84   S    
C82   H43   S    
C99   H85   S    
C104  H97   S    
C23   H5    S    
N9    H21   S    
C18   N2    T    
C22   C24   S    
Cu3   O8    S    
C80   H38   S    
C28   C71   S    
C17   N1    T    
C60   O31   S    
C32   C60   S    
C89   H60   S    
N11   H25   S    
C54   O25   S    
C10   C46   T    
O32   C107  S    
N8    H20   S    
C19   N3    T    
C30   O18   S    
C106  H102  S    
C83   H44   S    
C32   C44   S    
C94   H73   S    
C96   H78   S    
C29   C62   S    
Cu3   O14   S    
C103  H94   S    
C34   C38   S    
C26   C28   S    
C31   C64   S    
C30   C42   S    
C16   C52   T    
C7    C50   S    
C57   C65   S    
N11   H26   S    
C77   C78   S    
N10   H24   S    
C106  H103  S    
C37   C61   S    
N7    H17   S    
C24   C74   S    
C1    C48   S    
C34   C54   S    
N12   H27   S    
C77   H30   S    
C42   N10   S    
C2    C47   S    
C98   H83   S    
C95   C96   S    
C29   O17   S    
O17   C77   S    
C3    C46   S    
C95   H75   S    
C40   C64   S    
C4    O4    A    
Cu3   O15   S    
C98   H82   S    
C16   C68   S    
C26   C75   S    
C25   C76   S    
C89   C90   S    
C78   H32   S    
C107  H104  S    
O19   C81   S    
Cu3   N4    S    
C100  H87   S    
C83   H45   S    
O20   C83   S    
C80   H36   S    
C71   C75   S    
C44   C55   S    
C55   O28   S    
O23   C89   S    
C108  H106  S    
C38   C57   S    
C85   H50   S    
C35   C68   S    
C96   H76   S    
C35   C39   S    
C30   C58   S    
C43   N11   S    
C86   H53   S    
C8    O16   A    
N6    H16   S    
C27   H9    S    
C6    O6    A    
C41   C65   S    
C90   H61   S    
C13   C65   S    
C41   C54   S    
C105  H99   S    
C87   C88   S    
C44   C68   S    
C77   H29   S    
C86   H51   S    
Cu3   Cu4   S    
C107  C108  S    
C3    O3    A    
C43   C56   S    
C99   C100  S    
C60   C68   S    
C84   H47   S    
O24   C91   S    
C101  H89   S    
C30   C61   S    
C21   C69   S    
Cu2   O3    S    
C42   C66   S    
Cu3   O5    S    
C34   O22   S    
C28   H10   S    
C5    O13   A    
C22   C73   S    
C90   H62   S    
C89   H59   S    
C102  H91   S    
C94   H72   S    
C24   H6    S    
C8    C49   S    
C22   C70   S    
C27   C72   S    
C1    O9    A    
C87   H54   S    
N5    H14   S    
C85   C86   S    
C28   C76   S    
