data_mof_unit_43745.cif
_audit_creation_date              2012-12-10T17:52:04-0500
_audit_creation_method            fapswitch 2.2
_symmetry_space_group_name_H-M    P1
_symmetry_Int_Tables_number       1
_space_group_crystal_system       triclinic
_cell_length_a                    14.6553
_cell_length_b                    14.493852
_cell_length_c                    19.248022
_cell_angle_alpha                 76.571727
_cell_angle_beta                  102.389658
_cell_angle_gamma                 115.050334
_cell_volume                      3571.18667677

loop_
_atom_site_label
_atom_site_type_symbol
_atom_type_description
_atom_site_fract_x
_atom_site_fract_y
_atom_site_fract_z
_atom_type_partial_charge
C1    C     C_R   0.880556 0.311462 0.509184 0.764001
C2    C     C_R   0.119408 0.688581 0.490793 0.762201
C3    C     C_R   0.813862 0.202368 0.506733 -0.153264
C4    C     C_R   0.185833 0.797772 0.493354 -0.157402
C5    C     C_R   0.773021 0.030880 0.483691 -0.084323
C6    C     C_R   0.225526 0.969380 0.515659 -0.083754
C7    C     C_R   0.843252 0.132930 0.485310 -0.023581
C8    C     C_R   0.155446 0.867398 0.513614 -0.018466
C9    C     C_R   0.714314 0.169611 0.520599 -0.204562
C10   C     C_R   0.285942 0.830561 0.480684 -0.200823
C11   C     C_R   0.639735 0.075001 0.504532 0.060564
C12   C     C_R   0.359952 0.925515 0.496701 0.061528
C13   C     C_R   0.672170 0.999448 0.496779 0.048151
C14   C     C_R   0.326946 0.000870 0.503889 0.044350
C15   C     C_R   0.534407 0.053093 0.497843 0.008575
C16   C     C_R   0.465356 0.947721 0.504015 0.012807
C17   C     C_R   0.504932 0.868572 0.520016 0.007647
C18   C     C_R   0.494792 0.132260 0.482379 0.004044
C19   C     C_R   0.604178 0.894860 0.504898 -0.033351
C20   C     C_R   0.395000 0.105407 0.496730 -0.033014
C21   C     C_R   0.714961 0.668077 0.376104 -0.007652
C22   C     C_R   0.285668 0.332876 0.624485 0.046215
C23   C     C_R   0.000262 0.501512 0.632054 0.751882
C24   C     C_R   0.999897 0.498631 0.367937 0.749783
C25   C     C_R   0.797396 0.638199 0.397682 0.072414
C26   C     C_R   0.202744 0.361940 0.602425 0.053908
C27   C     C_R   0.716035 0.512950 0.492168 0.014046
C28   C     C_R   0.284136 0.487371 0.508013 0.006217
C29   C     C_R   0.628488 0.536563 0.472192 -0.009624
C30   C     C_R   0.371854 0.464074 0.528184 -0.041236
C31   C     C_R   0.623538 0.605881 0.407148 0.022919
C32   C     C_R   0.377080 0.395436 0.593539 0.110808
C33   C     C_R   0.545811 0.492337 0.513965 0.081433
C34   C     C_R   0.454504 0.508098 0.486365 0.032224
C35   C     C_R   0.445734 0.561295 0.415739 -0.218599
C36   C     C_R   0.554530 0.438984 0.584562 -0.313014
C37   C     C_R   0.527465 0.608005 0.375416 -0.042730
C38   C     C_R   0.473376 0.393710 0.625138 -0.035048
C39   C     C_R   0.929722 0.429441 0.748456 -0.013485
C40   C     C_R   0.074556 0.575228 0.253498 -0.022642
C41   C     C_R   0.933318 0.436691 0.820113 -0.143717
C42   C     C_R   0.074775 0.570728 0.181968 -0.130101
C43   C     C_R   0.008818 0.519011 0.851955 -0.036060
C44   C     C_R   0.002416 0.488709 0.148489 -0.043929
C45   C     C_R   0.081345 0.600417 0.810809 0.092527
C46   C     C_R   0.929595 0.404402 0.187668 0.096448
C47   C     C_R   0.076190 0.595888 0.736946 0.006777
C48   C     C_R   0.928680 0.407531 0.261035 0.005916
C49   C     C_R   0.002770 0.508270 0.707262 -0.200133
C50   C     C_R   0.999800 0.494671 0.292531 -0.208217
C51   C     C_R   0.003945 0.496208 0.071368 0.396809
C52   C     C_R   0.008939 0.515612 0.928888 0.398986
Cu1   Cu    Cu3+1 0.081740 0.475680 0.518680 0.925705
Cu2   Cu    Cu3+1 0.918260 0.524320 0.481320 0.918529
H1    H     H_    0.278968 0.546377 0.463351 0.126090
H2    H     H_    0.721161 0.453913 0.536815 0.120359
H3    H     H_    0.134725 0.320831 0.628327 0.133100
H4    H     H_    0.865300 0.678936 0.371637 0.131447
H5    H     H_    0.373322 0.562247 0.389216 0.188104
H6    H     H_    0.626691 0.437257 0.611231 0.141692
H7    H     H_    0.878278 0.375846 0.852556 0.192329
H8    H     H_    0.130258 0.633475 0.150869 0.195478
H9    H     H_    0.305615 0.781722 0.457306 0.154708
H10   H     H_    0.695652 0.218103 0.545065 0.148202
H11   H     H_    0.796976 0.977741 0.469270 0.209530
H12   H     H_    0.200860 0.022499 0.529323 0.210176
N1    N     N_R   0.923280 0.502991 0.952995 -0.228650
N2    N     N_R   0.089455 0.508418 0.047369 -0.214476
N3    N     N_R   0.921032 0.494142 0.023029 -0.236246
N4    N     N_R   0.091510 0.516883 0.977361 -0.234836
N5    N     N_R   0.795420 0.560800 0.453240 -0.196304
N6    N     N_R   0.204580 0.439200 0.546760 -0.194533
O1    O     O_R   0.977910 0.338110 0.524620 -0.593491
O2    O     O_R   0.022090 0.661890 0.475380 -0.595285
O3    O     O_R   0.839850 0.379180 0.493080 -0.582915
O4    O     O_R   0.160150 0.620820 0.506920 -0.582243
O5    O     O_R   0.069040 0.479450 0.615630 -0.581118
O6    O     O_R   0.930960 0.520550 0.384370 -0.586481
O7    O     O_R   0.930990 0.520520 0.584090 -0.573597
O8    O     O_R   0.069010 0.479480 0.415910 -0.569529
C53   C     C_2   0.849773 0.338530 0.717542 0.351347
H13   H     H_    0.847744 0.329020 0.662914 0.061673
O9    O     O_2   0.784613 0.272603 0.752880 -0.551503
C54   C     C_2   0.151966 0.665609 0.286384 0.395177
H14   H     H_    0.150726 0.673553 0.340771 0.050669
O10   O     O_2   0.218673 0.732888 0.252953 -0.512111
C55   C     C_2   0.505630 0.643395 0.297069 0.352780
H15   H     H_    0.554914 0.649362 0.260057 0.074106
O11   O     O_2   0.431695 0.664984 0.272793 -0.504901
C56   C     C_2   0.498701 0.360819 0.703250 0.335479
H16   H     H_    0.560295 0.334440 0.721799 0.101727
O12   O     O_2   0.455256 0.368409 0.747815 -0.536899
C57   C     C_3   0.731803 0.771615 0.327543 -0.479982
C58   C     C_3   0.826008 0.859962 0.356988 -0.319318
C59   C     C_3   0.830437 0.965137 0.315804 -0.745060
H17   H     H_    0.830628 0.969464 0.257455 0.246791
H18   H     H_    0.764227 0.978688 0.323229 0.254380
H19   H     H_    0.901007 0.026830 0.336394 0.286095
H20   H     H_    0.824239 0.857041 0.414890 0.272553
H21   H     H_    0.896442 0.852136 0.352065 0.220884
H22   H     H_    0.740442 0.766352 0.272794 0.199320
H23   H     H_    0.666576 0.793164 0.323413 0.220855
C60   C     C_3   0.269375 0.229770 0.673505 -0.405902
C61   C     C_3   0.177075 0.140524 0.643323 -0.377697
C62   C     C_3   0.173217 0.035847 0.685222 -0.750956
H24   H     H_    0.241067 0.023637 0.679705 0.252837
H25   H     H_    0.170208 0.031232 0.743150 0.249180
H26   H     H_    0.104263 0.973435 0.663645 0.288509
H27   H     H_    0.105496 0.147297 0.646695 0.228115
H28   H     H_    0.180954 0.143561 0.585806 0.272081
H29   H     H_    0.335879 0.209673 0.679267 0.213415
H30   H     H_    0.258309 0.234715 0.727662 0.233400
C63   C     C_3   0.162288 0.691233 0.845270 -0.363681
C64   C     C_3   0.118338 0.768049 0.850669 -0.304787
C65   C     C_3   0.200627 0.862876 0.880025 -0.813040
H31   H     H_    0.236142 0.839954 0.934587 0.263752
H32   H     H_    0.259982 0.903796 0.843506 0.263238
H33   H     H_    0.166411 0.916497 0.883823 0.243699
H34   H     H_    0.083155 0.793319 0.796611 0.259227
H35   H     H_    0.058500 0.730489 0.886931 0.221268
H36   H     H_    0.195595 0.664569 0.899259 0.204653
H37   H     H_    0.228755 0.731156 0.815164 0.228542
C66   C     C_3   0.854817 0.312774 0.151088 -0.344547
C67   C     C_3   0.747464 0.312403 0.134348 -0.334319
C68   C     C_3   0.673454 0.221497 0.096894 -0.781269
H38   H     H_    0.698107 0.226150 0.045038 0.259568
H39   H     H_    0.669219 0.147518 0.131944 0.261157
H40   H     H_    0.596557 0.223133 0.085640 0.247673
H41   H     H_    0.719061 0.307243 0.184652 0.229445
H42   H     H_    0.749170 0.385327 0.098779 0.234197
H43   H     H_    0.878751 0.313003 0.100162 0.192508
H44   H     H_    0.854784 0.239253 0.184181 0.244648
C69   C     C_2   0.143786 0.682875 0.688765 0.264487
H45   H     H_    0.173353 0.667350 0.647799 0.095702
O13   O     O_2   0.162739 0.772519 0.691660 -0.579334
C70   C     C_2   0.855513 0.321590 0.306616 0.270669
H46   H     H_    0.827156 0.338279 0.347712 0.095333
O14   O     O_2   0.829442 0.231330 0.301540 -0.576261
C71   C     C_2   0.635956 0.811017 0.502164 0.299291
H47   H     H_    0.583421 0.746960 0.475156 0.095265
O15   O     O_2   0.716788 0.808900 0.534020 -0.522768
C72   C     C_2   0.362592 0.188626 0.499819 0.286463
H48   H     H_    0.413539 0.250902 0.528957 0.083316
O16   O     O_2   0.283249 0.192316 0.465976 -0.520954
C73   C     C_2   0.053353 0.836222 0.534750 0.412137
H49   H     H_    0.009474 0.756765 0.555846 0.112400
O17   O     O_2   0.017563 0.900015 0.530229 -0.508060
C74   C     C_2   0.944518 0.164507 0.462755 0.410111
H50   H     H_    0.987773 0.244104 0.441506 0.108981
O18   O     O_2   0.980401 0.101020 0.466497 -0.506491
C75   C     C_3   0.452546 0.762033 0.564862 -0.399057
C76   C     C_3   0.422688 0.769232 0.634678 -0.326319
C77   C     C_3   0.380549 0.662871 0.680653 -0.800892
H51   H     H_    0.313324 0.609638 0.649893 0.261564
H52   H     H_    0.439358 0.629852 0.697332 0.272512
H53   H     H_    0.357178 0.669715 0.729793 0.239235
H54   H     H_    0.490572 0.820487 0.666279 0.233156
H55   H     H_    0.363985 0.801929 0.622819 0.237391
H56   H     H_    0.387335 0.708952 0.533468 0.190768
H57   H     H_    0.504507 0.720922 0.582662 0.213428
C78   C     C_3   0.547967 0.239971 0.439190 -0.400318
C79   C     C_3   0.577677 0.235421 0.368559 -0.298120
C80   C     C_3   0.620624 0.343175 0.324508 -0.842650
H58   H     H_    0.562891 0.377601 0.309971 0.257351
H59   H     H_    0.689025 0.394240 0.355753 0.265635
H60   H     H_    0.642303 0.338213 0.274131 0.235495
H61   H     H_    0.635797 0.202115 0.379220 0.238218
H62   H     H_    0.509541 0.185895 0.336117 0.233294
H63   H     H_    0.496714 0.281901 0.422543 0.212036
H64   H     H_    0.613196 0.291672 0.471384 0.187803

loop_
_geom_bond_atom_site_label_1
_geom_bond_atom_site_label_2
_ccdc_geom_bond_type
C15   C18   A    
C30   C32   A    
C55   H15   S    
C57   C58   S    
C66   H44   S    
C27   C29   A    
C9    H10   S    
C26   N6    A    
C40   C54   S    
C2    C4    S    
C8    C73   S    
C41   H7    S    
C4    C8    A    
C10   H9    S    
C64   C65   S    
C59   H19   S    
C27   N5    A    
C66   C67   S    
C39   C41   A    
C28   N6    A    
Cu1   Cu2   S    
C62   H25   S    
C22   C32   A    
C35   H5    S    
C80   H59   S    
C74   O18   D    
C79   C80   S    
C3    C7    A    
C61   H27   S    
C18   C78   S    
C43   C52   S    
C23   C49   S    
C15   C16   A    
C29   C33   A    
C33   C36   A    
C79   H61   S    
C60   H29   S    
C34   C35   A    
C73   O17   D    
Cu2   O2    S    
C11   C15   A    
C24   O8    A    
C63   H37   S    
C12   C16   A    
C16   C17   A    
C65   H32   S    
C68   H40   S    
C75   C76   S    
C25   N5    A    
C32   C38   A    
C77   H52   S    
C42   H8    S    
C5    C13   A    
C64   H34   S    
C2    O2    A    
C78   H63   S    
C48   C50   A    
C47   C69   S    
C41   C43   A    
C17   C75   S    
C42   C44   A    
C61   C62   S    
C53   O9    D    
C28   H1    S    
C44   C46   A    
C73   H49   S    
C46   C48   A    
C45   C47   A    
C24   C50   S    
C62   H26   S    
C76   H55   S    
C30   C34   A    
C71   O15   D    
C1    O3    A    
C14   C20   A    
C80   H60   S    
C54   H14   S    
C39   C53   S    
C70   O14   D    
C57   H22   S    
C5    C7    A    
C13   C19   A    
C27   H2    S    
C6    C8    A    
C66   H43   S    
C53   H13   S    
C22   C60   S    
C31   C37   A    
C60   H30   S    
C1    C3    S    
C75   H56   S    
Cu1   O5    S    
C3    C9    A    
C20   C72   S    
C6    C14   A    
C21   C31   A    
C56   O12   D    
C58   H21   S    
C65   H33   S    
Cu1   O8    S    
C33   C34   A    
C67   H42   S    
C23   O5    A    
C77   H53   S    
C9    C11   A    
C52   N1    A    
C10   C12   A    
C79   H62   S    
C78   H64   S    
C44   C51   S    
C5    H11   S    
C39   C49   A    
C12   C14   A    
C55   O11   D    
C69   H45   S    
C72   O16   D    
C46   C66   S    
Cu1   O4    S    
C25   H4    S    
C4    C10   A    
C36   C38   A    
C2    O4    A    
C68   H39   S    
C63   C64   S    
C24   O6    A    
C21   C25   A    
C76   H54   S    
C35   C37   A    
Cu1   O1    S    
C48   C70   S    
C37   C55   S    
Cu2   N5    S    
C54   O10   D    
C70   H46   S    
C36   H6    S    
C57   H23   S    
C7    C74   S    
C71   H47   S    
C59   H18   S    
C23   O7    A    
C47   C49   A    
C62   H24   S    
C38   C56   S    
C1    O1    A    
C75   H57   S    
C28   C30   A    
C59   H17   S    
C43   C45   A    
C78   C79   S    
C61   H28   S    
C11   C13   A    
C56   H16   S    
C68   H38   S    
C21   C57   S    
C58   H20   S    
C40   C50   A    
C40   C42   A    
C17   C19   A    
C67   H41   S    
C18   C20   A    
C51   N2    A    
C58   C59   S    
C26   H3    S    
C80   H58   S    
C52   N4    A    
Cu2   O7    S    
Cu2   O3    S    
C45   C63   S    
C6    H12   S    
C63   H36   S    
C76   C77   S    
C29   C31   A    
C22   C26   A    
C60   C61   S    
C69   O13   D    
N2    N4    A    
C72   H48   S    
C51   N3    A    
N1    N3    A    
C77   H51   S    
Cu1   N6    S    
C74   H50   S    
C19   C71   S    
C64   H35   S    
C65   H31   S    
C67   C68   S    
Cu2   O6    S    
