data_mof_unit_56117.cif
_audit_creation_date              2013-03-05T15:43:06-0500
_audit_creation_method            fapswitch 2.2
_symmetry_space_group_name_H-M    P1
_symmetry_Int_Tables_number       1
_space_group_crystal_system       triclinic
_cell_length_a                    10.974825
_cell_length_b                    19.084383
_cell_length_c                    18.455815
_cell_angle_alpha                 90.01168
_cell_angle_beta                  89.712872
_cell_angle_gamma                 89.447952
_cell_volume                      3865.30109395

loop_
_atom_site_label
_atom_site_type_symbol
_atom_site_description
_atom_site_fract_x
_atom_site_fract_y
_atom_site_fract_z
_atom_type_partial_charge
O1    O     O_R   0.575450 0.828820 0.667950 -0.530731
O2    O     O_R   0.575450 0.828820 0.832050 -0.535779
O3    O     O_R   0.575450 0.171180 0.332050 -0.500665
O4    O     O_R   0.575450 0.171180 0.167950 -0.499542
O5    O     O_R   0.075450 0.328820 0.667950 -0.526687
O6    O     O_R   0.075450 0.328820 0.832050 -0.505105
O7    O     O_R   0.075450 0.671180 0.332050 -0.508610
O8    O     O_R   0.075450 0.671180 0.167950 -0.524380
O9    O     O_R   0.416860 0.942890 0.674680 -0.527115
O10   O     O_R   0.416860 0.942890 0.825320 -0.525020
O11   O     O_R   0.416860 0.057110 0.325320 -0.535284
O12   O     O_R   0.416860 0.057110 0.174680 -0.539251
O13   O     O_R   0.916860 0.442890 0.674680 -0.528419
O14   O     O_R   0.916860 0.442890 0.825320 -0.538262
O15   O     O_R   0.916860 0.557110 0.325320 -0.534583
O16   O     O_R   0.916860 0.557110 0.174680 -0.526572
C1    C     C_R   0.321087 0.970321 0.646773 0.589905
C2    C     C_R   0.320625 0.969873 0.853751 0.584614
C3    C     C_R   0.319995 0.030167 0.353736 0.567445
C4    C     C_R   0.320491 0.029360 0.146966 0.568873
C5    C     C_R   0.821270 0.470553 0.647077 0.588908
C6    C     C_R   0.819038 0.469580 0.853859 0.575029
C7    C     C_R   0.819757 0.530540 0.354113 0.571766
C8    C     C_R   0.822056 0.530011 0.146694 0.588392
O17   O     O_R   0.213790 0.953680 0.668330 -0.466004
O18   O     O_R   0.213790 0.953680 0.831670 -0.467057
O19   O     O_R   0.213790 0.046320 0.331670 -0.462441
O20   O     O_R   0.213790 0.046320 0.168330 -0.459506
O21   O     O_R   0.713790 0.453680 0.668330 -0.464828
O22   O     O_R   0.713790 0.453680 0.831670 -0.457514
O23   O     O_R   0.713790 0.546320 0.331670 -0.460618
O24   O     O_R   0.713790 0.546320 0.168330 -0.471722
O25   O     O_R   0.121360 0.817890 0.672660 -0.510067
O26   O     O_R   0.121360 0.817890 0.827340 -0.511241
O27   O     O_R   0.121360 0.182110 0.327340 -0.512775
O28   O     O_R   0.121360 0.182110 0.172660 -0.504823
O29   O     O_R   0.621360 0.317890 0.672660 -0.507725
O30   O     O_R   0.621360 0.317890 0.827340 -0.514863
O31   O     O_R   0.621360 0.682110 0.327340 -0.515398
O32   O     O_R   0.621360 0.682110 0.172660 -0.513547
C9    C     C_R   0.134369 0.758001 0.643618 0.545045
C10   C     C_R   0.137072 0.758964 0.857439 0.543630
C11   C     C_R   0.130323 0.243212 0.354802 0.537915
C12   C     C_R   0.133135 0.242594 0.143975 0.537187
C13   C     C_R   0.634361 0.257994 0.643628 0.545555
C14   C     C_R   0.629267 0.256532 0.854696 0.536146
C15   C     C_R   0.630201 0.743267 0.354740 0.533551
C16   C     C_R   0.633213 0.742338 0.144016 0.540825
O33   O     O_R   0.206850 0.711370 0.665820 -0.529577
O34   O     O_R   0.206850 0.711370 0.834180 -0.523836
O35   O     O_R   0.206850 0.288630 0.334180 -0.530286
O36   O     O_R   0.206850 0.288630 0.165820 -0.538762
O37   O     O_R   0.706850 0.211370 0.665820 -0.529070
O38   O     O_R   0.706850 0.211370 0.834180 -0.529077
O39   O     O_R   0.706850 0.788630 0.334180 -0.531160
O40   O     O_R   0.706850 0.788630 0.165820 -0.523848
O41   O     O_R   0.457710 0.733190 0.672630 -0.459264
O42   O     O_R   0.457710 0.733190 0.827370 -0.451024
O43   O     O_R   0.457710 0.266810 0.327370 -0.432760
O44   O     O_R   0.457710 0.266810 0.172630 -0.436233
O45   O     O_R   0.957710 0.233190 0.672630 -0.448693
O46   O     O_R   0.957710 0.233190 0.827370 -0.434242
O47   O     O_R   0.957710 0.766810 0.327370 -0.439760
O48   O     O_R   0.957710 0.766810 0.172630 -0.457088
C17   C     C_R   0.539273 0.769996 0.643713 0.593195
C18   C     C_R   0.543076 0.768585 0.854725 0.593690
C19   C     C_R   0.497780 0.213014 0.363123 0.566823
C20   C     C_R   0.495763 0.212200 0.137378 0.560979
C21   C     C_R   0.039388 0.269954 0.643765 0.605427
C22   C     C_R   0.994814 0.288409 0.862523 0.564359
C23   C     C_R   0.997747 0.713000 0.363119 0.563511
C24   C     C_R   0.040197 0.729880 0.144184 0.607028
Cr1   Cr    Cr6+3 0.488160 0.884660 0.750000 1.011319
Cr2   Cr    Cr6+3 0.488160 0.115340 0.250000 1.022377
Cr3   Cr    Cr6+3 0.988160 0.384660 0.750000 1.016526
Cr4   Cr    Cr6+3 0.988160 0.615340 0.250000 1.019940
Cr5   Cr    Cr6+3 0.173480 0.883120 0.750000 1.087326
Cr6   Cr    Cr6+3 0.173480 0.116880 0.250000 1.088665
Cr7   Cr    Cr6+3 0.673480 0.383120 0.750000 1.088892
Cr8   Cr    Cr6+3 0.673480 0.616880 0.250000 1.081791
Cr9   Cr    Cr6+3 0.333410 0.727260 0.750000 1.117690
Cr10  Cr    Cr6+3 0.333410 0.272740 0.250000 1.108385
Cr11  Cr    Cr6+3 0.833410 0.227260 0.750000 1.114899
Cr12  Cr    Cr6+3 0.833410 0.772740 0.250000 1.114503
O49   O     O_3   0.331690 0.831680 0.750000 -0.295807
O50   O     O_3   0.331690 0.168320 0.250000 -0.331902
O51   O     O_3   0.831690 0.331680 0.750000 -0.316377
O52   O     O_3   0.831690 0.668320 0.250000 -0.312314
C25   C     C_3   0.011992 0.798781 0.477815 -0.088002
C26   C     C_3   0.029126 0.808075 0.024242 -0.092071
C27   C     C_3   0.171885 0.226786 0.533007 -0.138359
C28   C     C_3   0.001672 0.205831 0.979142 -0.094562
C29   C     C_3   0.512129 0.298813 0.477830 -0.087614
C30   C     C_3   0.446068 0.270693 0.008992 -0.135874
C31   C     C_3   0.671611 0.726999 0.532871 -0.140312
C32   C     C_3   0.679707 0.719662 0.964639 -0.122091
C33   C     C_3   0.142598 0.789989 0.507216 -0.098209
C34   C     C_3   0.157380 0.804382 0.989560 -0.095151
C35   C     C_3   0.172321 0.290463 0.481915 -0.112358
C36   C     C_3   0.133010 0.211392 0.007554 -0.101590
C37   C     C_3   0.642710 0.289961 0.507246 -0.098074
C38   C     C_3   0.564865 0.304908 0.981802 -0.115154
C39   C     C_3   0.671922 0.790689 0.481830 -0.111082
C40   C     C_3   0.686615 0.783556 0.015608 -0.122166
H1    H     H_    0.211169 0.832150 0.511893 0.123195
H2    H     H_    0.218089 0.849054 0.977292 0.121777
H3    H     H_    0.251909 0.322970 0.467372 0.130280
H4    H     H_    0.200714 0.167953 0.011350 0.121008
H5    H     H_    0.711295 0.332121 0.511914 0.123522
H6    H     H_    0.579546 0.359664 0.964998 0.139227
H7    H     H_    0.751530 0.823176 0.467305 0.129536
H8    H     H_    0.768009 0.813921 0.030912 0.131207
H9    H     H_    0.969325 0.846656 0.455113 0.155066
H10   H     H_    0.976938 0.853592 0.045001 0.145368
H11   H     H_    0.244107 0.201034 0.564931 0.155019
H12   H     H_    0.955021 0.161527 0.953809 0.144550
H13   H     H_    0.469679 0.346819 0.455273 0.159014
H14   H     H_    0.364905 0.300929 0.026825 0.123314
H15   H     H_    0.743907 0.701213 0.564678 0.154583
H16   H     H_    0.753842 0.692003 0.935100 0.149112
C41   C     C_3   0.090106 0.748764 0.571111 0.049321
C42   C     C_3   0.105642 0.754483 0.932515 0.051322
C43   C     C_3   0.091702 0.249808 0.429130 0.061526
C44   C     C_3   0.083755 0.253651 0.072119 0.049281
C45   C     C_3   0.590139 0.248744 0.571123 0.049503
C46   C     C_3   0.579849 0.245404 0.926931 0.055868
C47   C     C_3   0.591377 0.750012 0.429024 0.062031
C48   C     C_3   0.600505 0.746891 0.068730 0.056761
C49   C     C_3   0.960843 0.758314 0.543614 -0.154684
C50   C     C_3   0.979054 0.758815 0.965312 -0.163096
C51   C     C_3   0.091529 0.186119 0.479637 -0.112603
C52   C     C_3   0.953068 0.247383 0.045343 -0.140813
C53   C     C_3   0.460904 0.258343 0.543610 -0.155179
C54   C     C_3   0.461498 0.211150 0.952276 -0.147901
C55   C     C_3   0.591300 0.686342 0.479498 -0.113947
C56   C     C_3   0.594109 0.682584 0.018879 -0.098224
C57   C     C_3   0.975641 0.688099 0.501861 -0.142389
C58   C     C_3   0.011827 0.694195 0.011946 -0.119942
C59   C     C_3   0.974645 0.215414 0.515966 -0.114176
C60   C     C_3   0.969314 0.317079 0.003204 -0.134259
C61   C     C_3   0.475653 0.188125 0.501844 -0.143554
C62   C     C_3   0.537323 0.168185 0.007320 -0.133252
C63   C     C_3   0.474392 0.715529 0.515861 -0.115001
C64   C     C_3   0.481175 0.716118 0.982591 -0.107270
C65   C     C_3   0.106425 0.679286 0.530643 -0.110752
C66   C     C_3   0.139655 0.690476 0.978040 -0.113646
C67   C     C_3   0.974929 0.278618 0.463378 -0.155892
C68   C     C_3   0.101054 0.322863 0.031440 -0.110324
C69   C     C_3   0.606414 0.179262 0.530645 -0.110774
C70   C     C_3   0.655738 0.202520 0.981311 -0.109095
C71   C     C_3   0.474558 0.778736 0.463299 -0.156137
C72   C     C_3   0.488511 0.779919 0.034246 -0.163548
C73   C     C_3   0.158264 0.720221 0.465962 -0.099784
C74   C     C_3   0.190270 0.739744 0.036154 -0.127424
C75   C     C_3   0.055095 0.319414 0.516725 -0.124267
C76   C     C_3   0.150102 0.280676 0.966406 -0.102870
C77   C     C_3   0.658322 0.220193 0.465975 -0.100037
C78   C     C_3   0.639808 0.262007 0.036646 -0.104168
C79   C     C_3   0.554651 0.819536 0.516679 -0.122057
C80   C     C_3   0.573717 0.816458 0.980527 -0.127172
C81   C     C_3   0.028088 0.728802 0.437646 0.064263
C82   C     C_3   0.063942 0.743659 0.069367 0.074518
C83   C     C_3   0.057269 0.256350 0.567692 0.064798
C84   C     C_3   0.019633 0.275045 0.938733 0.050680
C85   C     C_3   0.528160 0.228830 0.437640 0.062256
C86   C     C_3   0.522600 0.227382 0.062119 0.052465
C87   C     C_3   0.556977 0.756453 0.567604 0.066453
C88   C     C_3   0.568047 0.753113 0.929905 0.076449
H17   H     H_    0.888517 0.778508 0.580361 0.126575
H18   H     H_    0.900579 0.770669 0.929940 0.117759
H19   H     H_    0.108727 0.132699 0.458667 0.141454
H20   H     H_    0.880125 0.229545 0.082323 0.133613
H21   H     H_    0.388561 0.278544 0.580345 0.127687
H22   H     H_    0.389999 0.190305 0.916134 0.162049
H23   H     H_    0.608549 0.633011 0.458437 0.141650
H24   H     H_    0.602197 0.627908 0.038549 0.141259
H25   H     H_    0.906732 0.646307 0.496747 0.114341
H26   H     H_    0.950668 0.649671 0.023783 0.128512
H27   H     H_    0.895017 0.183967 0.533053 0.129442
H28   H     H_    0.899758 0.359301 0.998854 0.120922
H29   H     H_    0.406794 0.146291 0.496740 0.114469
H30   H     H_    0.527720 0.113337 0.023890 0.149483
H31   H     H_    0.394782 0.684069 0.532916 0.127664
H32   H     H_    0.400063 0.686307 0.965727 0.140202
H33   H     H_    0.149459 0.632019 0.554302 0.139681
H34   H     H_    0.192081 0.646059 0.955846 0.142498
H35   H     H_    0.896878 0.300821 0.432727 0.138803
H36   H     H_    0.146346 0.368961 0.054971 0.139039
H37   H     H_    0.649307 0.131930 0.554278 0.140320
H38   H     H_    0.740943 0.172994 0.969437 0.126400
H39   H     H_    0.396482 0.800911 0.432663 0.138403
H40   H     H_    0.416281 0.808622 0.064588 0.133208
H41   H     H_    0.238263 0.704173 0.432662 0.139827
H42   H     H_    0.269875 0.728271 0.070803 0.126074
H43   H     H_    0.033872 0.372188 0.536729 0.161837
H44   H     H_    0.228720 0.294741 0.931479 0.146423
H45   H     H_    0.738339 0.204131 0.432694 0.140682
H46   H     H_    0.706827 0.285265 0.073615 0.170664
H47   H     H_    0.533168 0.872182 0.536855 0.162041
H48   H     H_    0.559031 0.869770 0.960553 0.169192
C89   C     C_R   0.326062 0.995451 0.425430 0.001124
C90   C     C_R   0.326967 0.991671 0.076825 0.005827
C91   C     C_R   0.332245 0.007892 0.576863 0.003831
C92   C     C_R   0.330920 0.004720 0.925279 0.000918
C93   C     C_R   0.825006 0.497131 0.426564 0.000628
C94   C     C_R   0.835686 0.492625 0.077011 0.003446
C95   C     C_R   0.833213 0.509241 0.577948 0.005080
C96   C     C_R   0.823545 0.503641 0.925797 0.000670
C97   C     C_R   0.545474 0.974751 0.422806 -0.071342
C98   C     C_R   0.546207 0.971454 0.077182 -0.084892
C99   C     C_R   0.558252 0.004497 0.570584 -0.096586
C100  C     C_R   0.556868 0.004111 0.929710 -0.092513
C101  C     C_R   0.044540 0.475074 0.423236 -0.072050
C102  C     C_R   0.060582 0.499155 0.068711 -0.078336
C103  C     C_R   0.058921 0.504672 0.570956 -0.095936
C104  C     C_R   0.043446 0.521686 0.920109 -0.072514
C105  C     C_R   0.656469 0.971410 0.457996 -0.131365
C106  C     C_R   0.657035 0.970339 0.040922 -0.137000
C107  C     C_R   0.663872 0.987925 0.531394 -0.152178
C108  C     C_R   0.663361 0.988956 0.967904 -0.149237
C109  C     C_R   0.156097 0.471922 0.457947 -0.132308
C110  C     C_R   0.165352 0.508360 0.027055 -0.145073
C111  C     C_R   0.164202 0.488353 0.531338 -0.152574
C112  C     C_R   0.156300 0.518167 0.952552 -0.137276
C113  C     C_R   0.442955 0.002365 0.536973 -0.025075
C114  C     C_R   0.441935 0.998696 0.964029 -0.028757
C115  C     C_R   0.438389 0.992129 0.461126 -0.017292
C116  C     C_R   0.438408 0.987604 0.039879 -0.030260
C117  C     C_R   0.943329 0.503020 0.537672 -0.024240
C118  C     C_R   0.936990 0.508626 0.960263 -0.018642
C119  C     C_R   0.937809 0.492862 0.461867 -0.018069
C120  C     C_R   0.944407 0.500454 0.036206 -0.018221
H49   H     H_    0.734554 0.952959 0.427917 0.127256
H50   H     H_    0.735720 0.951709 0.069617 0.126577
H51   H     H_    0.750183 0.984704 0.558924 0.117736
H52   H     H_    0.749133 0.987021 0.939385 0.122146
H53   H     H_    0.234378 0.454044 0.427513 0.131218
H54   H     H_    0.253017 0.508266 0.053083 0.109612
H55   H     H_    0.250962 0.485578 0.558464 0.116950
H56   H     H_    0.234883 0.527493 0.918988 0.134788
H57   H     H_    0.542798 0.959430 0.366336 0.143406
H58   H     H_    0.544246 0.956189 0.133703 0.145683
H59   H     H_    0.567609 0.018382 0.627098 0.147449
H60   H     H_    0.565228 0.019402 0.873483 0.151655
H61   H     H_    0.041325 0.459683 0.366811 0.145601
H62   H     H_    0.072364 0.487248 0.125528 0.145979
H63   H     H_    0.068770 0.518377 0.627492 0.146860
H64   H     H_    0.040270 0.535940 0.863381 0.145459
C121  C     C_R   0.222144 0.018145 0.539122 -0.056990
C122  C     C_R   0.221220 0.013306 0.964604 -0.052673
C123  C     C_R   0.217549 0.994240 0.467092 -0.051825
C124  C     C_R   0.218205 0.989325 0.036587 -0.044169
C125  C     C_R   0.723230 0.521341 0.540973 -0.056914
C126  C     C_R   0.715972 0.501905 0.968773 -0.057298
C127  C     C_R   0.716535 0.497802 0.468839 -0.053682
C128  C     C_R   0.726502 0.478361 0.040747 -0.061111
C129  C     C_R   0.113181 0.043068 0.573269 0.217864
C130  C     C_R   0.111991 0.038873 0.932707 0.217678
C131  C     C_R   0.103214 0.975847 0.437414 0.215475
C132  C     C_R   0.104661 0.972291 0.068745 0.219657
C133  C     C_R   0.615776 0.546409 0.576724 0.220467
C134  C     C_R   0.597770 0.518689 0.941975 0.214880
C135  C     C_R   0.600666 0.480203 0.440455 0.214082
C136  C     C_R   0.622732 0.451474 0.077520 0.213854
C137  C     C_R   0.001818 0.032881 0.538653 -0.169122
C138  C     C_R   0.001504 0.028463 0.968709 -0.170067
C139  C     C_R   0.997087 0.998031 0.472801 -0.180351
C140  C     C_R   0.998133 0.995433 0.035448 -0.169802
C141  C     C_R   0.503056 0.536262 0.543843 -0.166877
C142  C     C_R   0.496101 0.497870 0.982198 -0.183583
C143  C     C_R   0.495826 0.501988 0.477719 -0.181444
C144  C     C_R   0.507913 0.462555 0.047525 -0.172182
H65   H     H_    0.918315 0.052758 0.562524 0.140486
H66   H     H_    0.917551 0.047374 0.945446 0.129131
H67   H     H_    0.910547 0.989842 0.448228 0.138321
H68   H     H_    0.912602 0.989275 0.062378 0.138682
H69   H     H_    0.420388 0.555280 0.569513 0.140552
H70   H     H_    0.407004 0.508347 0.962341 0.140417
H71   H     H_    0.408025 0.493526 0.454726 0.137991
H72   H     H_    0.427295 0.443543 0.074776 0.146644
N1    N     N_R   0.094060 0.933450 0.372915 0.098627
O53   O     O_R   0.181492 0.890170 0.354911 -0.329252
O54   O     O_R   0.993862 0.933243 0.335485 -0.304244
N2    N     N_R   0.096919 0.931429 0.134512 0.094118
O55   O     O_R   0.997110 0.931494 0.172905 -0.302922
O56   O     O_R   0.185589 0.889453 0.153096 -0.341644
N3    N     N_R   0.114092 0.080893 0.640981 0.097584
O57   O     O_R   0.212298 0.111147 0.664104 -0.340957
O58   O     O_R   0.014183 0.087794 0.678612 -0.284964
N4    N     N_R   0.112536 0.078972 0.866594 0.101724
O59   O     O_R   0.014157 0.083974 0.827866 -0.284611
O60   O     O_R   0.206636 0.116235 0.848582 -0.333806
N5    N     N_R   0.588335 0.437792 0.376216 0.099633
O61   O     O_R   0.674060 0.393753 0.357295 -0.312187
O62   O     O_R   0.486618 0.438125 0.340245 -0.319832
N6    N     N_R   0.632874 0.413636 0.144993 0.099098
O63   O     O_R   0.538735 0.407726 0.187590 -0.257339
O64   O     O_R   0.734995 0.383709 0.163794 -0.348477
N7    N     N_R   0.619847 0.582923 0.645224 0.094750
O65   O     O_R   0.718619 0.613787 0.666570 -0.358330
O66   O     O_R   0.523499 0.586200 0.686517 -0.277268
N8    N     N_R   0.579033 0.560649 0.877662 0.105817
O67   O     O_R   0.471841 0.564633 0.847985 -0.328621
O68   O     O_R   0.666131 0.598671 0.850920 -0.326584

loop_
_geom_bond_atom_site_label_1
_geom_bond_atom_site_label_2
_geom_bond_distance
_ccdc_geom_bond_type
O46   Cr11  1.983728 S    
C64   H32   1.107001 S    
C103  H63   1.081848 S    
O26   C10   1.265091 A    
C134  N8    1.446393 S    
Cr7   O51   1.986383 S    
O6    Cr3   2.083755 S    
C51   H19   1.104602 S    
O9    Cr1   1.942783 S    
O31   C15   1.276632 A    
N2    O55   1.301599 A    
C27   C51   1.540092 S    
C122  C124  1.405556 A    
C25   C49   1.545360 S    
O46   C22   1.306872 A    
C89   C115  1.401579 A    
O3    Cr2   2.092860 S    
O48   Cr12  1.972355 S    
C126  C128  1.407309 A    
C102  C110  1.392515 A    
N3    O58   1.300578 A    
C67   C75   1.539857 S    
C121  C129  1.426465 A    
C8    C94   1.476819 S    
C33   H1    1.110616 S    
C143  H71   1.068531 S    
C9    O33   1.257943 A    
O38   Cr11  2.102759 S    
C132  N2    1.445423 S    
C25   H9    1.106104 S    
C131  N1    1.443665 S    
C129  C137  1.397157 A    
C98   H58   1.083279 S    
C105  H49   1.075126 S    
C95   C117  1.419621 A    
C42   C66   1.527143 S    
C4    O20   1.272605 A    
C31   H15   1.101622 S    
C5    O21   1.285176 A    
C109  H53   1.076762 S    
C36   C44   1.532091 S    
C7    O23   1.269997 A    
C8    O24   1.286943 A    
C70   H38   1.108028 S    
C40   C48   1.532215 S    
C139  H67   1.067383 S    
O12   C4    1.294903 A    
O13   C5    1.278125 A    
C58   C82   1.535382 S    
C118  C120  1.412945 A    
C28   H12   1.098290 S    
C45   C69   1.530354 S    
N6    O63   1.300885 A    
C62   H30   1.096475 S    
C127  C135  1.420961 A    
C128  C136  1.422859 A    
C117  C119  1.414048 A    
C142  C144  1.387410 A    
O28   C12   1.277431 A    
C104  H64   1.082420 S    
C97   H57   1.083008 S    
C50   C58   1.544658 S    
C91   C113  1.420539 A    
C124  C132  1.418180 A    
O4    C20   1.299213 A    
C125  C133  1.426939 A    
O32   C16   1.272785 A    
C23   C81   1.449158 S    
C98   C116  1.403517 A    
Cr12  O52   1.993064 S    
C26   C34   1.544333 S    
O11   Cr2   1.945793 S    
O2    C18   1.276486 A    
C68   H36   1.104575 S    
O27   Cr6   1.972728 S    
C69   H37   1.105376 S    
C34   H2    1.109734 S    
O47   Cr12  1.982261 S    
C97   C105  1.384268 A    
O31   Cr8   1.972728 S    
O25   C9    1.268787 A    
Cr8   O52   2.002851 S    
C111  H55   1.078838 S    
C57   C81   1.530178 S    
C142  H70   1.063139 S    
O10   C2    1.280565 A    
C78   H46   1.102149 S    
C79   C87   1.527567 S    
C61   H29   1.108915 S    
C26   H10   1.103383 S    
C59   H27   1.109387 S    
C49   C57   1.552393 S    
C46   C54   1.530888 S    
C72   H40   1.108646 S    
C52   H20   1.105623 S    
C53   H21   1.107818 S    
O34   Cr9   2.102759 S    
O41   C17   1.259754 A    
C20   C86   1.448324 S    
C56   H24   1.107773 S    
O43   Cr10  1.982261 S    
C100  H60   1.081707 S    
C38   C78   1.538528 S    
C26   C82   1.531478 S    
C28   C52   1.546308 S    
C50   H18   1.105010 S    
C29   C53   1.545419 S    
C3    C89   1.481399 S    
C44   C52   1.525134 S    
C1    C91   1.481328 S    
C33   C41   1.530938 S    
C47   C71   1.523981 S    
C48   C72   1.518602 S    
O13   Cr3   1.942783 S    
C68   C76   1.537319 S    
O1    C17   1.275991 A    
C132  C140  1.391728 A    
O27   C11   1.276256 A    
C133  C141  1.395794 A    
C101  C119  1.406941 A    
C19   C85   1.449151 S    
C135  C143  1.397307 A    
C133  N7    1.444528 S    
Cr5   O49   1.986383 S    
C144  H72   1.081293 S    
C7    C93   1.482639 S    
C29   H13   1.106154 S    
C97   C115  1.405485 A    
C31   C39   1.537950 S    
N8    O68   1.301006 A    
C36   H4    1.110382 S    
C107  H51   1.078384 S    
C75   H43   1.095171 S    
C39   C47   1.534714 S    
C77   C85   1.531089 S    
C40   H8    1.107246 S    
C28   C36   1.540904 S    
C90   C116  1.398788 A    
C75   C83   1.527761 S    
C65   H33   1.105201 S    
C71   C79   1.539824 S    
C110  C112  1.391639 A    
N5    O61   1.301837 A    
C62   C86   1.523033 S    
C137  C139  1.386759 A    
C130  N4    1.440439 S    
C106  C108  1.395288 A    
C54   H22   1.109084 S    
C63   C87   1.537994 S    
C140  H68   1.067456 S    
C32   C88   1.520914 S    
C141  H69   1.081016 S    
C101  H61   1.082785 S    
C112  H56   1.075569 S    
Cr1   O49   2.001161 S    
O2    Cr1   2.083755 S    
C138  C140  1.384250 A    
C10   O34   1.256528 A    
O22   Cr7   2.073230 S    
C137  H65   1.080287 S    
C93   C119  1.403550 A    
C130  C138  1.395684 A    
C11   C43   1.438872 S    
Cr3   O51   2.001161 S    
C34   C42   1.534172 S    
C63   C71   1.548097 S    
C6    O22   1.267052 A    
C21   C83   1.439860 S    
O16   Cr4   1.951066 S    
C74   C82   1.514254 S    
C38   C46   1.528538 S    
C31   C87   1.512559 S    
C15   C47   1.438992 S    
O7    Cr4   2.092860 S    
C60   C84   1.532579 S    
C99   C107  1.396875 A    
C61   C85   1.530280 S    
O14   C6    1.293498 A    
N2    O56   1.301848 A    
C4    C90   1.481852 S    
C64   C72   1.549209 S    
C46   C70   1.538293 S    
O25   Cr5   1.983802 S    
C16   C48   1.439255 S    
C58   C66   1.534273 S    
N6    O64   1.301669 A    
C113  C115  1.414553 A    
C41   C65   1.530256 S    
O30   C14   1.277638 A    
C51   C59   1.544368 S    
C73   H41   1.109805 S    
C126  C134  1.424267 A    
C24   C82   1.428821 S    
C2    C92   1.483329 S    
C27   C35   1.538346 S    
Cr9   O49   1.992701 S    
Cr11  O51   1.992701 S    
O12   Cr2   1.951066 S    
C2    O18   1.283767 A    
O19   Cr6   2.068086 S    
C102  C120  1.411795 A    
C30   C86   1.531427 S    
C34   C74   1.544812 S    
O23   Cr8   2.068086 S    
C32   C56   1.545636 S    
C80   C88   1.529621 S    
C44   C68   1.532376 S    
O11   C3    1.294068 A    
C57   C65   1.540663 S    
C76   H44   1.109484 S    
C47   C55   1.531233 S    
C48   C56   1.536042 S    
O26   Cr5   1.980038 S    
O10   Cr1   1.936837 S    
O30   Cr7   1.980038 S    
C37   H5    1.110701 S    
O24   Cr8   2.064452 S    
C39   H7    1.108041 S    
N4    O59   1.300575 A    
O33   Cr9   2.112930 S    
O5    C21   1.275953 A    
C123  C131  1.418828 A    
C91   C121  1.409778 A    
C101  C109  1.385433 A    
C89   C123  1.414706 A    
C35   C75   1.533317 S    
C33   C73   1.541419 S    
C93   C127  1.420022 A    
C100  C114  1.413307 A    
C36   C76   1.537523 S    
C79   H47   1.094583 S    
O15   Cr4   1.945793 S    
C15   O39   1.269678 A    
C37   C77   1.541510 S    
C136  C144  1.393181 A    
C27   C83   1.512779 S    
C40   C80   1.530320 S    
C25   C81   1.535627 S    
C32   H16   1.106777 S    
O40   Cr12  2.109176 S    
O8    C24   1.261189 A    
C94   C120  1.416920 A    
C99   H59   1.081728 S    
O45   Cr11  1.973896 S    
O42   Cr9   1.983728 S    
C141  C143  1.387463 A    
C67   H35   1.109623 S    
Cr10  O50   1.993064 S    
C12   C44   1.449839 S    
C103  C111  1.396833 A    
C63   H31   1.109212 S    
O5    Cr3   2.076450 S    
N7    O65   1.301418 A    
C54   C62   1.546776 S    
C100  C108  1.395836 A    
N3    O57   1.301398 A    
O21   Cr7   2.070405 S    
C14   O38   1.262418 A    
C135  N5    1.443044 S    
C38   H6    1.103180 S    
N1    O54   1.301599 A    
C29   C37   1.542793 S    
C78   C86   1.524060 S    
O6    C22   1.304826 A    
C70   C78   1.535011 S    
C43   C51   1.531906 S    
C66   H34   1.097941 S    
C41   C49   1.518405 S    
C52   C60   1.552229 S    
C35   H3    1.108149 S    
C17   C87   1.440056 S    
C53   C61   1.552508 S    
C18   C88   1.445631 S    
O37   Cr11  2.112930 S    
O1    Cr1   2.076450 S    
O14   Cr3   1.936837 S    
C62   C70   1.535887 S    
C56   C64   1.545154 S    
C92   C114  1.419561 A    
C11   O35   1.269838 A    
C138  H66   1.077559 S    
C59   C83   1.538169 S    
C27   H11   1.101908 S    
C77   H45   1.109841 S    
C131  C139  1.394677 A    
C26   C50   1.544078 S    
O44   C20   1.293247 A    
C109  C111  1.393723 A    
C73   C81   1.531017 S    
C136  N6    1.443878 S    
O39   Cr12  2.098804 S    
C69   C77   1.536672 S    
C90   C124  1.410026 A    
C72   C80   1.532059 S    
C30   H14   1.105360 S    
O8    Cr4   2.086218 S    
C94   C128  1.404342 A    
C60   C68   1.544264 S    
C104  C112  1.379446 A    
C61   C69   1.540649 S    
C80   H48   1.092993 S    
O29   Cr7   1.983802 S    
C59   C67   1.548368 S    
C64   C88   1.535212 S    
O17   Cr5   2.070405 S    
C49   H17   1.107764 S    
O7    C23   1.294134 A    
C134  C142  1.397966 A    
C129  N3    1.443187 S    
C9    C41   1.437306 S    
O44   Cr10  1.972355 S    
O42   C18   1.267167 A    
C108  H52   1.076505 S    
C13   C45   1.437145 S    
C66   C74   1.535777 S    
C104  C118  1.404753 A    
O32   Cr8   1.977240 S    
O20   Cr6   2.064452 S    
Cr4   O52   1.984371 S    
O4    Cr2   2.086218 S    
O43   C19   1.295115 A    
C28   C84   1.530934 S    
C71   H39   1.109495 S    
C29   C85   1.535799 S    
O16   C8    1.277666 A    
C96   C126  1.419633 A    
C39   C79   1.533319 S    
C121  C123  1.406687 A    
O18   Cr5   2.073230 S    
C6    C96   1.479406 S    
C106  H50   1.073002 S    
C125  C127  1.407453 A    
N1    O53   1.301835 A    
C110  H54   1.077507 S    
C25   C33   1.542848 S    
C55   H23   1.103728 S    
C37   C45   1.530935 S    
C45   C53   1.518322 S    
C31   C55   1.539726 S    
C102  H62   1.081123 S    
Cr2   O50   1.984371 S    
O36   Cr10  2.109176 S    
N7    O66   1.301314 A    
O35   Cr10  2.098804 S    
O9    C1    1.280248 A    
C43   C67   1.523934 S    
C114  C116  1.416223 A    
O41   Cr9   1.973896 S    
C58   H26   1.108990 S    
C3    O19   1.271753 A    
C10   C42   1.428988 S    
C35   C43   1.534735 S    
O45   C21   1.259798 A    
C65   C73   1.536598 S    
C16   O40   1.269805 A    
N8    O67   1.301715 A    
C103  C117  1.412888 A    
C14   C46   1.453139 S    
O3    C19   1.294089 A    
C60   H28   1.107813 S    
O47   C23   1.295164 A    
C1    O17   1.283885 A    
C22   C84   1.456086 S    
C12   O36   1.267176 A    
C105  C107  1.393698 A    
C98   C106  1.385298 A    
C5    C95   1.480073 S    
C32   C40   1.542577 S    
C95   C125  1.406734 A    
C92   C122  1.410837 A    
N5    O62   1.301641 A    
O28   Cr6   1.977240 S    
Cr6   O50   2.002851 S    
O15   C7    1.296163 A    
C55   C63   1.544113 S    
C30   C54   1.552298 S    
C42   C50   1.514154 S    
N4    O60   1.301369 A    
O48   C24   1.254858 A    
C13   O37   1.257837 A    
C74   H42   1.105482 S    
C57   H25   1.108726 S    
C76   C84   1.527399 S    
C99   C113  1.412955 A    
O29   C13   1.268833 A    
C122  C130  1.420423 A    
C30   C38   1.545316 S    
C96   C118  1.404984 A    
