data_mof_unit_39482.cif
_audit_creation_date              2012-10-26T19:35:34-0400
_audit_creation_method            fapswitch 2.2
_symmetry_space_group_name_H-M    P1
_symmetry_Int_Tables_number       1
_space_group_crystal_system       triclinic
_cell_length_a                    15.871298
_cell_length_b                    10.845652
_cell_length_c                    9.572104
_cell_angle_alpha                 90.135125
_cell_angle_beta                  90.521158
_cell_angle_gamma                 90.787381
_cell_volume                      1647.46123346

loop_
_atom_site_label
_atom_site_type_symbol
_atom_type_description
_atom_site_fract_x
_atom_site_fract_y
_atom_site_fract_z
_atom_type_partial_charge
C1    C     C_R   0.500744 0.262662 0.499834 0.570738
C2    C     C_R   0.506623 0.129981 0.498343 -0.024180
C3    C     C_R   0.506224 0.066173 0.370827 -0.158339
C4    C     C_R   0.339962 0.499549 0.499445 0.545478
C5    C     C_R   0.502842 0.937208 0.368406 0.244392
C6    C     C_R   0.505614 0.871446 0.496402 0.010842
C7    C     C_R   0.516265 0.937015 0.621123 -0.105735
C8    C     C_3   0.468261 0.927379 0.754490 -0.222229
C9    C     C_3   0.466977 0.068456 0.755449 0.489921
C10   C     C_R   0.556681 0.571302 0.074724 0.150152
C11   C     C_R   0.438360 0.439343 0.070598 0.324974
C12   C     C_3   0.083371 0.497975 0.497766 0.005979
C13   C     C_R   0.438528 0.441308 0.922883 0.088885
C14   C     C_R   0.556649 0.571235 0.927576 0.121573
C15   C     C_3   0.650280 0.563586 0.922980 -0.261385
C16   C     C_R   0.500207 0.737721 0.499468 0.563844
C17   C     C_3   0.650387 0.563342 0.081389 -0.262808
C18   C     C_R   0.660057 0.500251 0.500573 0.543726
C19   C     C_3   0.972482 0.417784 0.591371 0.240061
C20   C     C_3   0.026612 0.384406 0.463994 -0.137652
C21   C     C_1   0.250374 0.498732 0.498339 -0.005876
C22   C     C_1   0.749674 0.500288 0.501664 -0.012283
C23   C     C_3   0.974596 0.610925 0.533008 0.269563
C24   C     C_3   0.029389 0.528593 0.625102 0.263416
C25   C     C_3   0.337585 0.112237 0.855921 0.010296
C26   C     C_3   0.250988 0.165125 0.826314 -0.372043
C27   C     C_3   0.007861 0.815289 0.575180 -0.011013
C28   C     C_3   0.974467 0.935773 0.632852 -0.356144
C29   C     C_3   0.418453 0.903468 0.175158 -0.016733
C30   C     C_3   0.388228 0.792468 0.090074 -0.351820
C31   C     C_3   0.916746 0.499670 0.500281 0.068819
C32   C     C_3   0.028561 0.581591 0.403496 -0.152246
C33   C     C_3   0.970149 0.468177 0.370913 -0.176786
C34   C     C_1   0.174901 0.498149 0.497911 -0.015852
C35   C     C_1   0.825161 0.500136 0.501595 0.018848
C36   C     C_R   0.515967 0.064039 0.622193 0.057019
Cu1   Cu    Cu3+1 0.500000 0.499980 0.640670 0.975182
Cu2   Cu    Cu3+1 0.500000 0.500020 0.359330 0.972067
H1    H     H_    0.048830 0.290813 0.436874 0.119570
H2    H     H_    0.503857 0.115544 0.272654 0.151725
H3    H     H_    0.405443 0.882510 0.738880 0.126030
H4    H     H_    0.367217 0.166718 0.942304 0.195359
H5    H     H_    0.328963 0.014977 0.889941 0.105367
H6    H     H_    0.218664 0.110959 0.742504 0.146747
H7    H     H_    0.212272 0.161101 0.922287 0.112855
H8    H     H_    0.257176 0.262709 0.792471 0.173399
H9    H     H_    0.569349 0.087302 0.871323 0.309418
H10   H     H_    0.395184 0.338892 0.219344 0.370229
H11   H     H_    0.992074 0.292761 0.728497 0.327533
H12   H     H_    0.507227 0.887211 0.839486 0.119292
H13   H     H_    0.031398 0.832852 0.467825 0.124542
H14   H     H_    0.061060 0.785773 0.643415 0.164759
H15   H     H_    0.951144 0.921775 0.740788 0.166793
H16   H     H_    0.025599 0.006741 0.634996 0.092964
H17   H     H_    0.922051 0.969091 0.565837 0.175420
H18   H     H_    0.011746 0.575566 0.815547 0.340462
H19   H     H_    0.428046 0.982789 0.103521 0.146284
H20   H     H_    0.367387 0.926180 0.250201 0.115888
H21   H     H_    0.376060 0.712947 0.160282 0.190136
H22   H     H_    0.328975 0.814832 0.033662 0.086379
H23   H     H_    0.390296 0.390938 0.865181 0.159770
H24   H     H_    0.436486 0.766511 0.012806 0.150189
H25   H     H_    0.672331 0.475293 0.877829 0.172000
H26   H     H_    0.679595 0.648085 0.877984 0.140161
H27   H     H_    0.672471 0.474823 0.126103 0.156991
H28   H     H_    0.679949 0.647581 0.127912 0.147237
H29   H     H_    0.944310 0.443186 0.266312 0.133763
H30   H     H_    0.052950 0.648232 0.325344 0.114690
N1    N     N_R   0.500530 0.500930 0.147930 -0.243397
N2    N     N_R   0.500530 0.500890 0.852020 -0.267346
O1    O     O_R   0.500000 0.319640 0.618810 -0.443284
O2    O     O_3   0.512859 0.125352 0.865605 -0.698411
O3    O     O_3   0.374163 0.372845 0.131125 -0.731421
O4    O     O_3   0.941631 0.333757 0.689572 -0.697625
O5    O     O_3   0.942182 0.726339 0.572293 -0.556057
O6    O     O_3   0.061658 0.558537 0.757457 -0.706643
O7    O     O_3   0.495904 0.875442 0.241665 -0.531588
O8    O     O_R   0.500010 0.319680 0.381230 -0.547657
O9    O     O_R   0.379070 0.499970 0.618770 -0.508434
O10   O     O_R   0.379080 0.500010 0.381190 -0.495811
O11   O     O_R   0.499990 0.680320 0.618770 -0.513733
O12   O     O_R   0.500000 0.680360 0.381190 -0.445370
O13   O     O_R   0.620920 0.499990 0.618810 -0.499919
O14   O     O_R   0.620930 0.500030 0.381230 -0.508382
O15   O     O_3   0.386272 0.119691 0.733314 -0.533523

loop_
_geom_bond_atom_site_label_1
_geom_bond_atom_site_label_2
_ccdc_geom_bond_type
H18   O6    S    
C7    C36   A    
C19   C20   S    
C9    O2    S    
C19   C31   S    
C25   H5    S    
C26   H6    S    
C7    C8    S    
C22   C35   T    
Cu1   O9    S    
C17   H28   S    
C29   C30   S    
C4    O10   A    
C5    C6    A    
C13   N2    A    
C10   C17   S    
C1    C2    S    
C26   H7    S    
C9    O15   S    
C8    C9    S    
C30   H22   S    
C9    C36   S    
C18   O14   A    
C15   H26   S    
C31   C33   S    
C32   H30   S    
Cu2   N1    S    
H11   O4    S    
Cu1   N2    S    
Cu2   O12   S    
C1    O8    A    
C14   N2    A    
Cu1   O11   S    
C27   O5    S    
C25   O15   S    
C28   H17   S    
C27   H13   S    
C8    H3    S    
C4    O9    A    
C10   C14   A    
C20   H1    S    
C28   H16   S    
C24   O6    S    
C21   C34   T    
Cu2   O8    S    
C25   C26   S    
C23   C31   S    
Cu1   Cu2   S    
C23   C24   S    
C30   H21   S    
C12   C20   S    
C16   O12   A    
C18   O13   A    
C29   O7    S    
C1    O1    A    
C20   C33   S    
C29   H19   S    
C3    H2    S    
Cu1   O1    S    
C11   O3    S    
C31   C35   S    
C12   C34   S    
C8    H12   S    
C27   H14   S    
C33   H29   S    
C2    C36   A    
C15   C17   S    
Cu2   O14   S    
C18   C22   S    
H10   O3    S    
C19   O4    S    
C23   O5    S    
C3    C5    A    
C25   H4    S    
C28   H15   S    
C11   N1    A    
C6    C7    A    
C12   C24   S    
C17   H27   S    
C32   C33   S    
C30   H24   S    
C2    C3    A    
C23   C32   S    
C4    C21   S    
C11   C13   A    
Cu2   O10   S    
C16   O11   A    
C19   C24   S    
H9    O2    S    
C26   H8    S    
C6    C16   S    
C10   N1    A    
C13   H23   S    
C29   H20   S    
C27   C28   S    
C15   H25   S    
C14   C15   S    
Cu1   O13   S    
C5    O7    S    
C12   C32   S    
