data_mof_unit_13520.cif
_audit_creation_date              2012-12-10T17:32:57-0500
_audit_creation_method            fapswitch 2.2
_symmetry_space_group_name_H-M    P1
_symmetry_Int_Tables_number       1
_space_group_crystal_system       triclinic
_cell_length_a                    12.350452
_cell_length_b                    13.299235
_cell_length_c                    14.270373
_cell_angle_alpha                 93.351092
_cell_angle_beta                  107.629711
_cell_angle_gamma                 116.916803
_cell_volume                      1938.38105207

loop_
_atom_site_label
_atom_site_type_symbol
_atom_type_description
_atom_site_fract_x
_atom_site_fract_y
_atom_site_fract_z
_atom_type_partial_charge
C1    C     C_R   0.652061 0.714179 0.510185 0.795723
C2    C     C_R   0.882056 0.548173 0.924564 0.090266
C3    C     C_R   0.837408 0.572741 0.998857 0.170208
C4    C     C_R   0.998480 0.540621 0.954189 0.062302
C5    C     C_R   0.059143 0.543044 0.056889 0.066839
C6    C     C_R   0.013753 0.570775 0.129172 -0.225525
C7    C     C_R   0.905738 0.586559 0.100436 -0.232932
C8    C     C_R   0.057187 0.532307 0.884972 -0.224138
C9    C     C_R   0.166338 0.518123 0.914020 -0.215435
C10   C     C_R   0.219090 0.509126 0.012115 0.160948
C11   C     C_R   0.164777 0.519710 0.084095 0.087308
C12   C     C_R   0.619798 0.518668 0.686856 0.799279
C13   C     C_R   0.325876 0.489567 0.039143 -0.189799
C14   C     C_R   0.378922 0.479495 0.136901 -0.200821
C15   C     C_R   0.215951 0.503560 0.180405 -0.248036
C16   C     C_R   0.159216 0.963314 0.386248 -0.194317
C17   C     C_R   0.254838 0.162950 0.470915 -0.058725
C18   C     C_R   0.747368 0.917843 0.594907 -0.291115
C19   C     C_R   0.857922 0.025838 0.638747 -0.124296
C20   C     C_R   0.968134 0.055252 0.614744 0.390418
C21   C     C_R   0.959724 0.983355 0.531065 -0.039966
C22   C     C_R   0.846575 0.872567 0.486950 0.045818
C23   C     C_R   0.345844 0.285554 0.485720 0.809165
C24   C     C_R   0.059073 0.016607 0.489855 0.069194
C25   C     C_R   0.055719 0.933562 0.420202 0.178911
C26   C     C_R   0.944647 0.825111 0.379025 -0.234909
C27   C     C_R   0.838122 0.798544 0.406456 -0.169646
C28   C     C_R   0.154732 0.132234 0.508103 -0.267438
C29   C     C_R   0.260247 0.077481 0.413471 -0.187237
C30   C     C_R   0.745234 0.837392 0.525531 -0.102129
C31   C     C_R   0.253570 0.685160 0.661259 -0.304218
C32   C     C_R   0.655028 0.342574 0.363670 0.068702
C33   C     C_R   0.732986 0.308682 0.333254 -0.252441
C34   C     C_R   0.382571 0.484647 0.313456 0.791794
C35   C     C_R   0.868253 0.368078 0.384222 -0.189278
C36   C     C_R   0.927983 0.462953 0.466928 -0.004463
C37   C     C_R   0.843757 0.494914 0.495184 0.290979
C38   C     C_R   0.067480 0.527096 0.522603 -0.033203
C39   C     C_R   0.118839 0.621269 0.604832 0.176545
C40   C     C_R   0.035721 0.651463 0.630591 -0.296870
C41   C     C_R   0.901793 0.589972 0.577192 -0.193143
C42   C     C_R   0.159439 0.502467 0.501032 0.026732
C43   C     C_R   0.338113 0.656429 0.636357 0.066944
C44   C     C_R   0.692417 0.536577 0.794536 -0.051644
C45   C     C_R   0.324004 0.486622 0.207999 -0.051512
C46   C     C_R   0.723941 0.582336 0.970626 -0.201577
C47   C     C_R   0.652265 0.565118 0.869019 -0.190879
C48   C     C_R   0.805731 0.527487 0.822672 -0.260396
Cu1   Cu    Cu3+1 0.416420 0.526630 0.522910 0.939022
Cu2   Cu    Cu3+1 0.583580 0.473370 0.477090 0.923069
H1    H     H_    0.873972 0.607452 0.158098 0.137204
H2    H     H_    0.368855 0.482829 0.984809 0.136845
H3    H     H_    0.337227 0.100046 0.383815 0.150879
H4    H     H_    0.936875 0.763396 0.320731 0.134379
H5    H     H_    0.159069 0.899472 0.335299 0.136821
H6    H     H_    0.147905 0.200440 0.546153 0.207245
H7    H     H_    0.669062 0.893332 0.623334 0.171499
H8    H     H_    0.862733 0.082454 0.699471 0.166763
H9    H     H_    0.749018 0.719122 0.363175 0.165306
H10   H     H_    0.442049 0.705635 0.679822 0.119239
H11   H     H_    0.171640 0.501729 0.235115 0.149038
H12   H     H_    0.074680 0.723657 0.693382 0.156846
H13   H     H_    0.293339 0.757092 0.724437 0.139624
H14   H     H_    0.128850 0.432430 0.439802 0.119522
H15   H     H_    0.550281 0.295813 0.323444 0.124583
H16   H     H_    0.923631 0.338004 0.357405 0.135846
H17   H     H_    0.688292 0.235932 0.269806 0.146664
H18   H     H_    0.847396 0.620301 0.603425 0.207538
H19   H     H_    0.463131 0.466990 0.156919 0.152608
H20   H     H_    0.208479 0.512399 0.858756 0.155942
H21   H     H_    0.690147 0.602330 0.027165 0.130444
H22   H     H_    0.565030 0.573037 0.848840 0.152638
H23   H     H_    0.830566 0.500621 0.763431 0.159358
H24   H     H_    0.062032 0.584447 0.209327 0.144538
H25   H     H_    0.023557 0.540084 0.808181 0.155468
N1    N     N_R   0.290690 0.566960 0.557640 -0.177106
N2    N     N_R   0.709100 0.433710 0.442970 -0.205214
O1    O     O_R   0.545970 0.684450 0.528810 -0.578624
O2    O     O_R   0.687130 0.639470 0.490120 -0.605269
O3    O     O_R   0.519670 0.535100 0.660030 -0.582159
O4    O     O_R   0.660830 0.490120 0.621340 -0.600542
O5    O     O_R   0.312870 0.360530 0.509880 -0.583314
O6    O     O_R   0.454030 0.315550 0.471190 -0.585036
O7    O     O_R   0.339170 0.509880 0.378660 -0.587701
O8    O     O_R   0.480330 0.464900 0.339970 -0.595693
O9    O     O_3   0.083559 0.147442 0.681214 -0.751382
H26   H     H_    0.153524 0.127541 0.688562 0.321128

loop_
_geom_bond_atom_site_label_1
_geom_bond_atom_site_label_2
_ccdc_geom_bond_type
C23   O5    A    
C17   C29   A    
C35   C36   A    
C4    C8    A    
Cu2   O2    S    
C28   H6    S    
C26   C27   A    
C17   C23   S    
C31   C43   A    
Cu1   O7    S    
C36   C37   A    
C5    C11   A    
C3    C7    A    
C38   C39   A    
C16   C25   A    
C40   H12   S    
Cu1   O1    S    
C18   C19   A    
Cu2   O8    S    
C32   N2    A    
C11   C15   A    
C19   C20   A    
C8    C9    A    
C20   O9    S    
C18   C30   A    
C41   H18   S    
C9    C10   A    
C44   C47   A    
C21   C22   A    
C1    O1    A    
C34   O7    A    
C26   H4    S    
Cu2   O6    S    
C6    H24   S    
C14   C45   A    
C19   H8    S    
C31   H13   S    
C24   C25   A    
C39   C40   A    
O9    H26   S    
C35   H16   S    
C2    C48   A    
C25   C26   A    
C37   N2    A    
C8    H25   S    
C34   O8    A    
Cu1   O5    S    
C2    C4    A    
C13   H2    S    
C18   H7    S    
C15   H11   S    
Cu1   N1    S    
C34   C45   S    
C9    H20   S    
C46   H21   S    
C23   O6    A    
C43   H10   S    
C40   C41   A    
C22   C27   A    
C1    O2    A    
C14   H19   S    
C15   C45   A    
Cu2   N2    S    
C42   H14   S    
C33   H17   S    
C43   N1    A    
C46   C47   A    
C22   C30   A    
C17   C28   A    
C48   H23   S    
C24   C28   A    
C4    C5    A    
C10   C13   A    
C38   C42   A    
C6    C7    A    
C3    C46   A    
C42   N1    A    
Cu1   O3    S    
C32   C33   A    
C36   C38   A    
C2    C3    A    
C16   C29   A    
C16   H5    S    
C7    H1    S    
C12   C44   S    
C27   H9    S    
C5    C6    A    
C29   H3    S    
C12   O3    A    
C1    C30   S    
C33   C35   A    
C31   C39   A    
C12   O4    A    
C37   C41   A    
C47   H22   S    
C10   C11   A    
C20   C21   A    
Cu1   Cu2   S    
C21   C24   A    
C13   C14   A    
C44   C48   A    
Cu2   O4    S    
C32   H15   S    
