data_mof_unit_36836.cif
_audit_creation_date              2012-12-10T17:13:35-0500
_audit_creation_method            fapswitch 2.2
_symmetry_space_group_name_H-M    P1
_symmetry_Int_Tables_number       1
_space_group_crystal_system       triclinic
_cell_length_a                    10.730221
_cell_length_b                    13.05241
_cell_length_c                    11.743246
_cell_angle_alpha                 100.392221
_cell_angle_beta                  93.643443
_cell_angle_gamma                 92.041473
_cell_volume                      1612.59528197

loop_
_atom_site_label
_atom_site_type_symbol
_atom_type_description
_atom_site_fract_x
_atom_site_fract_y
_atom_site_fract_z
_atom_type_partial_charge
C1    C     C_R   0.496096 0.299524 0.478076 0.816961
C2    C     C_3   0.878285 0.497161 0.500036 0.115432
C3    C     C_3   0.931775 0.603032 0.477728 -0.356580
C4    C     C_3   0.917656 0.408292 0.404593 -0.359970
C5    C     C_R   0.476509 0.815461 0.536140 -0.195059
C6    C     C_R   0.482408 0.186837 0.464846 -0.119991
C7    C     C_R   0.385848 0.023219 0.362985 0.294935
C8    C     C_R   0.412003 0.129240 0.369718 -0.202854
C9    C     C_R   0.525546 0.139257 0.555253 -0.206400
C10   C     C_R   0.503830 0.032267 0.550611 0.040977
C11   C     C_R   0.440629 0.970877 0.449416 0.050873
C12   C     C_R   0.259867 0.497799 0.500131 0.741316
C13   C     C_R   0.435426 0.860948 0.439376 -0.122046
C14   C     C_R   0.508482 0.881405 0.644763 0.185673
C15   C     C_R   0.535303 0.987650 0.648877 -0.036111
C16   C     C_R   0.366244 0.413926 0.023108 -0.296329
C17   C     C_R   0.380970 0.421065 0.144794 0.074264
C18   C     C_R   0.560226 0.534620 0.155680 0.162793
C19   C     C_R   0.548112 0.529486 0.033348 -0.018545
C20   C     C_R   0.450205 0.468785 0.965996 0.064245
C21   C     C_R   0.439808 0.464524 0.843465 0.038044
C22   C     C_R   0.619430 0.579553 0.856850 0.212439
C23   C     C_R   0.491947 0.700930 0.522153 0.833868
C24   C     C_R   0.631945 0.584321 0.977221 -0.230142
C25   C     C_R   0.740153 0.498521 0.499712 0.761861
C26   C     C_3   0.079172 0.479950 0.619987 -0.362058
C27   C     C_3   0.936248 0.478961 0.619180 -0.357487
C28   C     C_3   0.075378 0.602189 0.476269 -0.373774
C29   C     C_3   0.061477 0.407265 0.405750 -0.371114
C30   C     C_3   0.122020 0.496719 0.500622 0.141360
Cu1   Cu    Cu3+1 0.509350 0.507730 0.615930 0.954635
Cu2   Cu    Cu3+1 0.490650 0.492270 0.384070 0.959512
H1    H     H_    0.119751 0.543517 0.690257 0.200032
H2    H     H_    0.879147 0.419230 0.317583 0.173534
H3    H     H_    0.103683 0.615278 0.390243 0.173051
H4    H     H_    0.891696 0.619078 0.393571 0.183857
H5    H     H_    0.369657 0.168389 0.304108 0.177536
H6    H     H_    0.573396 0.187897 0.630677 0.195700
H7    H     H_    0.365250 0.416885 0.790835 0.120892
H8    H     H_    0.112506 0.404861 0.639864 0.164118
H9    H     H_    0.289450 0.366004 0.974266 0.147141
H10   H     H_    0.707334 0.633023 0.027182 0.196806
H11   H     H_    0.315148 0.378566 0.187139 0.129715
H12   H     H_    0.900011 0.402969 0.637331 0.179683
H13   H     H_    0.910169 0.541103 0.690196 0.208509
H14   H     H_    0.118702 0.667456 0.542921 0.172022
H15   H     H_    0.905739 0.667310 0.546774 0.178436
H16   H     H_    0.090746 0.416172 0.318670 0.177267
H17   H     H_    0.093157 0.330706 0.422466 0.164951
H18   H     H_    0.879335 0.331715 0.419189 0.170763
N1    N     N_R   0.523430 0.519360 0.790130 -0.219559
N2    N     N_R   0.476570 0.480640 0.209880 -0.213105
O1    O     O_R   0.506640 0.354460 0.582000 -0.589082
O2    O     O_R   0.490840 0.341410 0.386200 -0.584523
O3    O     O_R   0.325590 0.506510 0.597900 -0.585173
O4    O     O_R   0.309790 0.493450 0.402100 -0.606504
O5    O     O_R   0.509160 0.658590 0.613800 -0.564374
O6    O     O_R   0.493360 0.645540 0.418000 -0.557399
O7    O     O_R   0.690210 0.506550 0.597900 -0.623895
O8    O     O_R   0.674410 0.493490 0.402100 -0.596741
C31   C     C_2   0.392268 0.793231 0.327443 0.567116
H19   H     H_    0.318262 0.733675 0.324562 0.043423
O9    O     O_2   0.442634 0.800941 0.238781 -0.444862
Br1   Br    Br    0.511492 0.832719 0.791570 -0.478493
Br2   Br    Br    0.253218 0.966658 0.247497 -0.460043
C32   C     C_2   0.593205 0.051250 0.758527 0.400167
H20   H     H_    0.547390 0.054874 0.838800 0.122487
O10   O     O_2   0.694948 0.096732 0.760405 -0.527544
C33   C     C_2   0.712537 0.643060 0.807482 0.414154
H21   H     H_    0.695071 0.666546 0.725223 0.145455
O11   O     O_2   0.812478 0.672943 0.860997 -0.560553
C34   C     C_2   0.667852 0.594573 0.222983 0.450105
H22   H     H_    0.757291 0.558751 0.226154 0.008094
O12   O     O_2   0.660107 0.685830 0.267410 -0.493894

loop_
_geom_bond_atom_site_label_1
_geom_bond_atom_site_label_2
_ccdc_geom_bond_type
C23   O6    A    
C32   O10   D    
C24   H10   S    
C19   C20   A    
Cu2   O6    S    
C6    C9    A    
C18   N2    A    
C7    C8    A    
C29   H17   S    
C7    C11   A    
C28   H14   S    
C26   C27   S    
C3    C28   S    
C10   C15   A    
C31   O9    D    
C18   C19   A    
Cu1   O7    S    
C33   O11   D    
C1    O1    A    
Cu2   N2    S    
C27   H12   S    
C28   H3    S    
C16   C17   A    
C5    C23   S    
C2    C27   S    
C25   O8    A    
C9    C10   A    
C22   C33   S    
C5    C13   A    
C4    C29   S    
C27   H13   S    
C32   H20   S    
C33   H21   S    
C17   N2    A    
Cu2   O2    S    
C18   C34   S    
C4    H2    S    
C29   H16   S    
C1    C6    S    
C34   O12   D    
C6    C8    A    
C15   C32   S    
C4    H18   S    
C2    C4    S    
C1    O2    A    
C17   H11   S    
C29   C30   S    
C7    Br2   S    
C26   H1    S    
Cu1   Cu2   S    
C21   H7    S    
C16   C20   A    
C14   Br1   S    
Cu1   O1    S    
C5    C14   A    
C12   O4    A    
C26   C30   S    
C22   C24   A    
C8    H5    S    
Cu2   O8    S    
C21   N1    A    
C23   O5    A    
C12   C30   S    
Cu1   N1    S    
C34   H22   S    
Cu1   O5    S    
C28   C30   S    
C2    C3    S    
C11   C13   A    
C26   H8    S    
C3    H4    S    
C3    H15   S    
C9    H6    S    
C19   C24   A    
C2    C25   S    
C31   H19   S    
C12   O3    A    
C10   C11   A    
C13   C31   S    
C20   C21   A    
C14   C15   A    
C25   O7    A    
Cu1   O3    S    
C16   H9    S    
Cu2   O4    S    
C22   N1    A    
