data_mof_unit_10423.cif
_audit_creation_date              2012-12-11T18:11:22-0500
_audit_creation_method            fapswitch 2.2
_symmetry_space_group_name_H-M    P1
_symmetry_Int_Tables_number       1
_space_group_crystal_system       triclinic
_cell_length_a                    8.173347
_cell_length_b                    12.624486
_cell_length_c                    18.788717
_cell_angle_alpha                 99.227339
_cell_angle_beta                  91.177796
_cell_angle_gamma                 98.491301
_cell_volume                      1890.69347958

loop_
_atom_site_label
_atom_site_type_symbol
_atom_type_description
_atom_site_fract_x
_atom_site_fract_y
_atom_site_fract_z
_atom_type_partial_charge
Ba1   Ba    Ba6+2 0.852780 0.548340 0.465070 1.643137
Ba2   Ba    Ba6+2 0.337060 0.451750 0.534940 1.639072
C1    C     C_3   0.581730 0.901949 0.251011 -0.423288
C2    C     C_R   0.904455 0.372798 0.095075 -0.009131
C3    C     C_R   0.816134 0.346908 0.934726 -0.109479
C4    C     C_3   0.128352 0.764535 0.265972 0.368944
C5    C     C_R   0.949278 0.422506 0.969601 0.015189
C6    C     C_R   0.747254 0.356700 0.868650 -0.115847
C7    C     C_R   0.827251 0.428310 0.826717 -0.031747
C8    C     C_R   0.980964 0.490688 0.853075 0.010254
C9    C     C_R   0.039156 0.491407 0.925903 0.027571
C10   C     C_R   0.765168 0.432415 0.756767 -0.015141
C11   C     C_R   0.868339 0.482176 0.709416 -0.293984
C12   C     C_3   0.634184 0.824345 0.298118 0.343590
C13   C     C_R   0.023470 0.541377 0.732510 0.030341
C14   C     C_R   0.076207 0.551404 0.806557 -0.035701
C15   C     C_R   0.152074 0.495009 0.071086 0.009864
C16   C     C_3   0.109288 0.791529 0.190480 -0.366724
C17   C     C_R   0.210981 0.499520 0.144306 0.003467
C18   C     C_R   0.113344 0.444751 0.192754 -0.045125
C19   C     C_R   0.965042 0.379929 0.166137 -0.046636
C20   C     C_R   0.220725 0.619462 0.835617 -0.037089
C21   C     C_R   0.274817 0.623627 0.907062 -0.086689
C22   C     C_R   0.189364 0.557543 0.953060 0.015343
C23   C     C_3   0.459940 0.280258 0.315485 0.299036
C24   C     C_R   0.249573 0.555581 0.024714 0.020280
C25   C     C_R   0.407228 0.611089 0.051289 -0.107945
C26   C     C_R   0.369663 0.557341 0.168868 -0.031858
C27   C     C_R   0.465669 0.611236 0.121126 -0.119204
C28   C     C_3   0.235500 0.788125 0.619668 0.280753
C29   C     C_R   0.427894 0.559545 0.240659 -0.009273
C30   C     C_R   0.322434 0.514684 0.289175 -0.293889
C31   C     C_R   0.166380 0.456968 0.266881 0.041659
C32   C     C_R   0.765561 0.182287 0.526640 -0.280560
C33   C     C_R   0.427320 0.807191 0.470180 -0.285165
C34   C     C_3   0.441346 0.247574 0.234121 -0.390005
C35   C     C_R   0.402150 0.984340 0.443579 -0.105042
C36   C     C_R   0.337015 0.875893 0.440435 -0.011804
C37   C     C_R   0.576996 0.848037 0.509114 0.063038
C38   C     C_R   0.642068 0.960078 0.515969 -0.063141
C39   C     C_R   0.554017 0.028202 0.481378 -0.063544
C40   C     C_3   0.239457 0.910119 0.633852 -0.324039
C41   C     C_R   0.618246 0.139196 0.487082 0.042931
C42   C     C_R   0.856649 0.115872 0.557787 -0.011559
C43   C     C_R   0.793043 0.006189 0.554954 -0.093474
C44   C     C_3   0.959457 0.210967 0.379617 0.275099
C45   C     C_3   0.068566 0.231055 0.733635 0.371244
C46   C     C_3   0.950008 0.088527 0.363459 -0.342766
C47   C     C_3   0.724863 0.704041 0.682035 0.345689
C48   C     C_3   0.730343 0.736556 0.764004 0.213430
C49   C     C_R   0.736022 0.309776 0.080381 0.029950
C50   C     C_R   0.601353 0.360728 0.064719 -0.047246
C51   C     C_R   0.444902 0.299231 0.046832 -0.074444
C52   C     C_R   0.420918 0.187235 0.046344 -0.059445
C53   C     C_R   0.553616 0.136225 0.063427 -0.064801
C54   C     C_R   0.710678 0.197144 0.080601 -0.096235
C55   C     C_3   0.094662 0.202990 0.808426 -0.350095
C56   C     C_3   0.557827 0.170776 0.695767 0.323975
C57   C     C_3   0.607351 0.089525 0.740755 -0.400343
C58   C     C_R   0.999017 0.428770 0.044556 -0.010630
H1    H     H_    0.723147 0.870448 0.341568 0.075504
H2    H     H_    0.846005 0.683030 0.664879 -0.020324
H3    H     H_    0.627699 0.632070 0.667021 0.008559
H4    H     H_    0.525965 0.966952 0.284496 0.106217
H5    H     H_    0.747625 0.666119 0.790624 -0.051097
H6    H     H_    0.610180 0.761537 0.780646 0.082570
H7    H     H_    0.522462 0.789967 0.324244 -0.052709
H8    H     H_    0.489107 0.857001 0.208666 0.111939
H9    H     H_    0.340794 0.301450 0.335870 0.021013
H10   H     H_    0.558133 0.352262 0.327985 0.065164
H11   H     H_    0.339637 0.178139 0.219398 0.125270
H12   H     H_    0.318093 0.946051 0.682875 0.117457
H13   H     H_    0.413140 0.316708 0.208794 0.064880
H14   H     H_    0.558942 0.223557 0.213531 0.131819
H15   H     H_    0.690245 0.939257 0.224252 0.128874
H16   H     H_    0.146327 0.726252 0.150056 0.076191
H17   H     H_    0.150179 0.308437 0.730256 0.095023
H18   H     H_    0.937329 0.241685 0.726242 -0.077224
H19   H     H_    0.222680 0.185964 0.816056 0.154945
H20   H     H_    0.075499 0.271962 0.850235 0.069886
H21   H     H_    0.006006 0.130160 0.815348 0.127269
H22   H     H_    0.671669 0.207377 0.672015 -0.053842
H23   H     H_    0.290306 0.946237 0.587548 0.074612
H24   H     H_    0.471745 0.127003 0.650566 0.079292
H25   H     H_    0.707235 0.129861 0.781103 0.110776
H26   H     H_    0.653082 0.022007 0.705293 0.113925
H27   H     H_    0.046109 0.687082 0.268605 0.092815
H28   H     H_    0.500072 0.056209 0.769926 0.133212
H29   H     H_    0.824393 0.478504 0.654250 0.072699
H30   H     H_    0.637351 0.300904 0.849022 0.113504
H31   H     H_    0.890937 0.334234 0.201149 0.102475
H32   H     H_    0.293260 0.671615 0.803795 0.082740
H33   H     H_    0.588570 0.654043 0.136631 0.112345
H34   H     H_    0.112285 0.928964 0.642363 0.151252
H35   H     H_    0.365448 0.520499 0.344707 0.072696
H36   H     H_    0.766039 0.274865 0.954841 0.094599
H37   H     H_    0.384585 0.681035 0.924670 0.059798
H38   H     H_    0.258887 0.754124 0.275494 -0.075057
H39   H     H_    0.492594 0.653058 0.018582 0.073497
H40   H     H_    0.329521 0.033489 0.417932 0.100235
H41   H     H_    0.864563 0.958571 0.582319 0.106792
H42   H     H_    0.814663 0.267431 0.529703 0.064849
H43   H     H_    0.375794 0.722405 0.466704 0.071131
H44   H     H_    0.978460 0.799057 0.178266 0.151031
H45   H     H_    0.836863 0.231560 0.393843 0.004057
H46   H     H_    0.188892 0.869401 0.186396 0.108791
H47   H     H_    0.361045 0.769952 0.608441 -0.001214
H48   H     H_    0.149871 0.754345 0.572169 0.074234
H49   H     H_    0.962032 0.792752 0.786873 0.305252
H50   H     H_    0.620180 0.446810 0.063302 0.079253
H51   H     H_    0.342601 0.337804 0.032331 0.075080
H52   H     H_    0.299575 0.139991 0.032608 0.067041
H53   H     H_    0.534908 0.049495 0.063216 0.069728
H54   H     H_    0.813074 0.156538 0.092890 0.067962
H55   H     H_    0.050082 0.242532 0.425583 0.079145
H56   H     H_    0.863260 0.054960 0.316519 0.115572
H57   H     H_    0.905565 0.051917 0.410534 0.085599
H58   H     H_    0.074508 0.067420 0.350822 0.141330
O1    O     O_2   0.873090 0.425890 0.325140 -0.466604
O2    O     O_2   0.195041 0.120801 0.549309 -0.481120
O3    O     O_3   0.108711 0.146715 0.681988 -0.595275
O4    O     O_3   0.122420 0.434370 0.414380 -0.494544
O5    O     O_3   0.578370 0.633800 0.536380 -0.489485
O6    O     O_2   0.341510 0.231850 0.465510 -0.465647
O7    O     O_3   0.502702 0.192807 0.345480 -0.651069
O8    O     O_2   0.424801 0.449495 0.758120 -0.494573
O9    O     O_3   0.475528 0.246250 0.739193 -0.596676
O10   O     O_3   0.659500 0.627100 0.368810 -0.470961
O11   O     O_2   0.767899 0.545616 0.242681 -0.493024
O12   O     O_3   0.689727 0.791517 0.650203 -0.633071
O13   O     O_3   0.005797 0.252895 0.317455 -0.643051
O14   O     O_3   0.713111 0.746315 0.255449 -0.597072
O15   O     O_2   0.848200 0.768190 0.534530 -0.471294
O16   O     O_3   0.081160 0.685950 0.404810 -0.486799
O17   O     O_2   0.999583 0.879431 0.450298 -0.484508
O18   O     O_3   0.857330 0.823798 0.786668 -0.701706
O19   O     O_3   0.084157 0.849161 0.316391 -0.598922
O20   O     O_2   0.316610 0.574140 0.674900 -0.472510
O21   O     O_3   0.067290 0.565720 0.585630 -0.492875
O22   O     O_3   0.530210 0.372990 0.631200 -0.462137
O23   O     O_3   0.184068 0.747221 0.681693 -0.642180
O24   O     O_3   0.611340 0.366290 0.463630 -0.478494
O25   O     O_3   0.108550 0.314140 0.595200 -0.484944
P1    P     P_3+3 0.041040 0.394770 0.336330 0.968827
P2    P     P_3+3 0.672880 0.754030 0.556100 0.973690
P3    P     P_3+3 0.126090 0.824279 0.403423 0.950426
P4    P     P_3+3 0.148670 0.605320 0.663680 0.967350
P5    P     P_3+3 0.066030 0.174050 0.595707 0.954340
P6    P     P_3+3 0.641532 0.617290 0.275441 0.950084
P7    P     P_3+3 0.521700 0.230542 0.439259 0.932892
P8    P     P_3+3 0.549367 0.377469 0.723676 0.951726

loop_
_geom_bond_atom_site_label_1
_geom_bond_atom_site_label_2
_ccdc_geom_bond_type
C13   P4    S    
C53   C54   A    
C47   H3    S    
C28   H47   S    
C25   C27   A    
C55   H19   S    
C23   H9    S    
Ba1   P2    S    
C1    H8    S    
C10   P8    S    
Ba1   O10   S    
O4    P1    S    
C57   H25   S    
C12   O14   S    
C51   C52   A    
C42   C43   A    
C5    C9    A    
O21   P4    S    
C24   C25   A    
C32   H42   S    
C28   O23   S    
C44   H55   S    
C15   C24   A    
C4    H38   S    
C26   C27   A    
C22   C24   A    
C49   C54   A    
C33   H43   S    
C56   H22   S    
C29   P6    S    
C45   O3    S    
C13   C14   A    
C44   H45   S    
C9    C22   A    
Ba1   Ba2   S    
Ba1   O1    S    
C23   O7    S    
Ba1   O4    S    
C36   P3    S    
Ba1   O24   S    
O9    P8    S    
C57   H28   S    
O5    P2    S    
C6    C7    A    
C14   C20   A    
C21   C22   A    
C1    H15   S    
C7    C8    A    
Ba1   O21   S    
C34   H11   S    
C46   H56   S    
C28   H48   S    
C51   H51   S    
C56   O9    S    
H49   O18   S    
Ba2   O25   S    
C39   C41   A    
C55   H20   S    
C37   P2    S    
C38   C43   A    
Ba1   O15   S    
C48   H5    S    
Ba2   O4    S    
C31   P1    S    
O25   P5    S    
O16   P3    S    
C4    C16   S    
C44   C46   S    
C40   H23   S    
C2    C49   S    
C49   C50   A    
Ba2   O20   S    
O19   P3    S    
C33   C36   A    
C32   C42   A    
C8    C9    A    
C37   C38   A    
C3    C5    A    
C15   C17   A    
C46   H58   S    
C53   H53   S    
Ba2   P4    S    
C1    H4    S    
C12   H1    S    
C4    H27   S    
C33   C37   A    
Ba1   O5    S    
O11   P6    D    
C35   C36   A    
C56   H24   S    
C45   C55   S    
O8    P8    D    
O14   P6    S    
C29   C30   A    
C50   H50   S    
O20   P4    D    
C12   H7    S    
O17   P3    D    
C25   H39   S    
C2    C58   A    
C40   H12   S    
O3    P5    S    
C52   H52   S    
C16   H44   S    
C10   C11   A    
C17   C26   A    
C48   H6    S    
O22   P8    S    
C1    C12   S    
C43   H41   S    
C18   C31   A    
C38   C39   A    
C21   H37   S    
O2    P5    D    
C11   C13   A    
Ba2   O24   S    
C55   H21   S    
O15   P2    D    
Ba2   O21   S    
O1    P1    D    
Ba1   O16   S    
C5    C58   A    
C44   O13   S    
C3    H36   S    
C50   C51   A    
C19   H31   S    
O6    P7    D    
C52   C53   A    
C34   H14   S    
C16   H16   S    
C47   H2    S    
C11   H29   S    
C40   H34   S    
C26   C29   A    
C20   H32   S    
C32   C41   A    
C3    C6    A    
C46   H57   S    
Ba2   O6    S    
C47   O12   S    
Ba2   O22   S    
C30   C31   A    
O24   P7    S    
C17   C18   A    
C56   C57   S    
C57   H26   S    
Ba1   P1    S    
C48   O18   S    
C27   H33   S    
C2    C19   A    
C16   H46   S    
C4    O19   S    
C42   P5    S    
C15   C58   A    
C35   C39   A    
C7    C10   A    
C34   H13   S    
O23   P4    S    
C23   C34   S    
C54   H54   S    
O10   P6    S    
C30   H35   S    
C6    H30   S    
C18   C19   A    
C47   C48   S    
O7    P7    S    
C45   H17   S    
C20   C21   A    
C28   C40   S    
C8    C14   A    
C23   H10   S    
C45   H18   S    
C35   H40   S    
Ba2   O5    S    
O13   P1    S    
C41   P7    S    
O12   P2    S    
