data_mof_unit_41257.cif
_audit_creation_date              2012-12-10T16:51:28-0500
_audit_creation_method            fapswitch 2.2
_symmetry_space_group_name_H-M    P1
_symmetry_Int_Tables_number       1
_space_group_crystal_system       triclinic
_cell_length_a                    7.827816
_cell_length_b                    8.551523
_cell_length_c                    12.015092
_cell_angle_alpha                 91.464211
_cell_angle_beta                  100.638285
_cell_angle_gamma                 94.270538
_cell_volume                      787.634674794

loop_
_atom_site_label
_atom_site_type_symbol
_atom_type_description
_atom_site_fract_x
_atom_site_fract_y
_atom_site_fract_z
_atom_type_partial_charge
C1    C     C_R   0.042984 0.794483 0.493240 0.965566
C2    C     C_R   0.157869 0.516591 0.834069 -0.122610
C3    C     C_2   0.062536 0.957676 0.483358 -0.355825
C4    C     C_R   0.105613 0.506287 0.711044 0.879466
C5    C     C_2   0.926111 0.040579 0.490957 -0.361246
C6    C     C_R   0.952926 0.205052 0.497491 0.979070
C7    C     C_R   0.893664 0.489679 0.289052 0.855540
C8    C     C_R   0.807396 0.299442 0.998380 -0.222479
C9    C     C_R   0.835952 0.465853 0.167317 -0.109497
C10   C     C_R   0.082087 0.624421 0.895877 -0.172314
C11   C     C_R   0.163629 0.672629 0.005114 -0.135651
C12   C     C_R   0.404973 0.513235 0.987987 0.078676
C13   C     C_R   0.326594 0.622599 0.049759 -0.166572
C14   C     C_1   0.070071 0.291056 0.142333 0.192041
C15   C     C_1   0.234630 0.191379 0.775524 0.164351
C16   C     C_R   0.306453 0.444905 0.886009 0.022821
C17   C     C_R   0.575577 0.466664 0.024271 0.084697
C18   C     C_R   0.639250 0.346940 0.962551 0.127529
C19   C     C_R   0.529162 0.266089 0.871993 -0.260412
C20   C     C_R   0.360217 0.308196 0.838242 0.003074
C21   C     C_R   0.682880 0.531792 0.122287 -0.267534
C22   C     C_R   0.905845 0.356107 0.102082 0.001913
H1    H     H_    0.797845 0.988489 0.498371 0.174762
H2    H     H_    0.190511 0.009751 0.475263 0.179128
H3    H     H_    0.470342 0.375296 0.416591 0.198662
H4    H     H_    0.529629 0.624676 0.583414 0.191439
H5    H     H_    0.570827 0.163347 0.832761 0.151881
H6    H     H_    0.856564 0.210066 0.949701 0.142796
H7    H     H_    0.644227 0.625667 0.171297 0.149227
H8    H     H_    0.965034 0.677525 0.857690 0.158408
H9    H     H_    0.385386 0.669765 0.133112 0.134235
H10   H     H_    0.105168 0.755950 0.052962 0.145533
N1    N     N_2   0.434800 0.456690 0.470850 -0.168283
N2    N     N_2   0.565200 0.543310 0.529150 -0.171308
N3    N     N_1   0.201758 0.238961 0.174326 -0.216634
N4    N     N_1   0.133769 0.095009 0.728742 -0.229104
O1    O     O_R   0.893060 0.738880 0.507150 -0.612375
O2    O     O_R   0.172250 0.711130 0.488470 -0.626917
O3    O     O_R   0.944700 0.520730 0.667600 -0.610674
O4    O     O_R   0.223890 0.492980 0.648920 -0.608570
O5    O     O_R   0.827750 0.288870 0.511530 -0.625341
O6    O     O_R   0.106940 0.261120 0.492850 -0.606271
O7    O     O_R   0.776110 0.507020 0.351080 -0.617448
O8    O     O_R   0.055300 0.479270 0.332400 -0.610277
Zn1   Zn    Zn3+2 0.813580 0.518530 0.512470 0.943129
Zn2   Zn    Zn3+2 0.186420 0.481470 0.487530 0.953401

loop_
_geom_bond_atom_site_label_1
_geom_bond_atom_site_label_2
_ccdc_geom_bond_type
C12   C17   A    
C8    C22   A    
C7    O7    A    
C11   C13   A    
C10   H8    S    
C2    C4    S    
C19   C20   A    
C5    H1    S    
C4    O3    A    
C1    O1    A    
O3    Zn1   S    
C14   C22   S    
N1    N2    D    
N2    Zn1   S    
C7    O8    A    
O4    Zn2   S    
N1    Zn2   S    
O7    Zn1   S    
C9    C21   A    
C3    H2    S    
C5    C6    S    
C1    O2    A    
C16   C20   A    
O8    Zn2   S    
C11   H10   S    
C17   C18   A    
C6    O6    A    
C15   C20   S    
C8    H6    S    
C17   C21   A    
C9    C22   A    
O2    Zn2   S    
C10   C11   A    
O1    Zn1   S    
C2    C10   A    
C12   C16   A    
C15   N4    T    
C2    C16   A    
C12   C13   A    
C18   C19   A    
O6    Zn2   S    
C14   N3    T    
C7    C9    S    
O5    Zn1   S    
C3    C5    D    
C13   H9    S    
C21   H7    S    
H4    N2    S    
C8    C18   A    
C4    O4    A    
H3    N1    S    
C19   H5    S    
C1    C3    S    
C6    O5    A    
