data_mof_unit_37765.cif
_audit_creation_date              2012-12-11T17:43:32-0500
_audit_creation_method            fapswitch 2.2
_symmetry_space_group_name_H-M    P1
_symmetry_Int_Tables_number       1
_space_group_crystal_system       triclinic
_cell_length_a                    15.180096
_cell_length_b                    15.050005
_cell_length_c                    16.910044
_cell_angle_alpha                 108.372074
_cell_angle_beta                  106.108564
_cell_angle_gamma                 109.435872
_cell_volume                      3126.03787717

loop_
_atom_site_label
_atom_site_type_symbol
_atom_type_description
_atom_site_fract_x
_atom_site_fract_y
_atom_site_fract_z
_atom_type_partial_charge
C1    C     C_R   0.083471 0.287499 0.078670 -0.126490
C2    C     C_R   0.085013 0.115072 0.126324 -0.231277
C3    C     C_R   0.293310 0.550356 0.282037 -0.116763
C4    C     C_R   0.325880 0.504736 0.337002 -0.108054
C5    C     C_R   0.373731 0.562515 0.432714 -0.099987
C6    C     C_R   0.387672 0.665387 0.473363 -0.115512
C7    C     C_R   0.353588 0.710466 0.418402 -0.180936
C8    C     C_R   0.999772 0.926836 0.074980 0.059750
C9    C     C_R   0.990813 0.110921 0.080112 0.047094
C10   C     C_R   0.091590 0.024733 0.124347 0.048089
C11   C     C_R   0.898456 0.019476 0.052006 0.030825
C12   C     C_R   0.711639 0.936743 0.936249 0.025117
C13   C     C_R   0.234452 0.054173 0.264663 0.031517
C14   C     C_R   0.596830 0.001995 0.979262 -0.112225
C15   C     C_R   0.409201 0.113205 0.275619 -0.105338
C16   C     C_R   0.542775 0.669947 0.301339 -0.100128
C17   C     C_R   0.911085 0.724184 0.975804 -0.110044
C18   C     C_R   0.449536 0.273496 0.642677 -0.100984
C19   C     C_R   0.513196 0.628886 0.206233 -0.148620
C20   C     C_R   0.469425 0.308834 0.735790 -0.168370
C21   C     C_R   0.938357 0.527438 0.750782 -0.124384
C22   C     C_R   0.061242 0.545295 0.265159 -0.133575
C23   C     C_R   0.497256 0.526274 0.156020 0.124060
C24   C     C_R   0.463465 0.400566 0.782636 0.129520
C25   C     C_R   0.508934 0.464921 0.202249 -0.184873
C26   C     C_R   0.439169 0.456918 0.734793 -0.174520
C27   C     C_R   0.538083 0.506265 0.297168 -0.129560
C28   C     C_R   0.028416 0.585209 0.747523 0.052913
C29   C     C_R   0.419054 0.420894 0.641663 -0.138235
C30   C     C_R   0.556161 0.609174 0.346832 -0.050020
C31   C     C_R   0.423190 0.328597 0.595398 -0.093401
C32   C     C_R   0.552523 0.460315 0.037249 -0.238311
C33   C     C_R   0.399234 0.456986 0.898868 -0.245944
C34   C     C_R   0.550483 0.435544 0.949573 0.064681
C35   C     C_R   0.404267 0.485181 0.987553 0.064937
C36   C     C_R   0.472945 0.432484 0.878443 0.019518
C37   C     C_R   0.481423 0.487544 0.058186 0.016206
C38   C     C_R   0.613348 0.931856 0.915427 -0.172809
C39   C     C_R   0.969694 0.530932 0.273861 0.049791
C40   C     C_R   0.340697 0.092618 0.315737 -0.166545
C41   C     C_R   0.960643 0.575235 0.360414 0.127182
C42   C     C_R   0.035175 0.626836 0.680325 0.132503
C43   C     C_R   0.136529 0.697817 0.606612 -0.227770
C44   C     C_R   0.857793 0.558222 0.446626 -0.227519
C45   C     C_R   0.780560 0.203548 0.814506 -0.152042
C46   C     C_R   0.264784 0.794387 0.184093 -0.176137
C47   C     C_R   0.131441 0.683042 0.682741 -0.177726
C48   C     C_R   0.863727 0.540705 0.362911 -0.174840
C49   C     C_R   0.944192 0.597905 0.605739 -0.292995
C50   C     C_R   0.765238 0.197790 0.728733 -0.010675
C51   C     C_R   0.050487 0.641595 0.443352 -0.284579
C52   C     C_R   0.948635 0.606692 0.527469 0.189228
C53   C     C_R   0.045611 0.652930 0.526601 0.191229
C54   C     C_R   0.695229 0.102716 0.646233 0.139756
C55   C     C_R   0.383856 0.889401 0.349668 0.149885
C56   C     C_R   0.420141 0.997195 0.504621 -0.280453
C57   C     C_R   0.659677 0.992313 0.491694 -0.238002
C58   C     C_R   0.350673 0.934732 0.413407 -0.215785
C59   C     C_R   0.729771 0.058425 0.583204 -0.192965
C60   C     C_R   0.486538 0.911909 0.373189 -0.294241
C61   C     C_R   0.307813 0.797451 0.268060 0.014361
C62   C     C_R   0.591585 0.076284 0.621714 -0.278776
C63   C     C_R   0.556700 0.973429 0.464607 0.197685
C64   C     C_R   0.522432 0.014994 0.530734 0.199611
C65   C     C_R   0.677835 0.077218 0.065023 -0.122398
C66   C     C_R   0.372813 0.098626 0.184869 -0.132515
C67   C     C_R   0.775777 0.082599 0.087488 -0.155529
C68   C     C_R   0.268070 0.064959 0.134536 -0.194989
C69   C     C_R   0.280126 0.559292 0.970697 -0.147865
C70   C     C_R   0.699561 0.401787 0.993864 -0.156699
C71   C     C_R   0.794249 0.013624 0.023638 0.042839
C72   C     C_R   0.322057 0.501449 0.001417 0.065595
C73   C     C_R   0.197547 0.041226 0.173211 0.045853
C74   C     C_R   0.782602 0.297149 0.734995 0.033124
C75   C     C_R   0.262707 0.697195 0.260900 0.013850
C76   C     C_R   0.271411 0.460464 0.047147 -0.136696
C77   C     C_R   0.705578 0.500736 0.920250 -0.143851
C78   C     C_R   0.108806 0.603947 0.824009 -0.134797
C79   C     C_R   0.889619 0.462122 0.187036 -0.131148
C80   C     C_R   0.912662 0.203763 0.000328 -0.160611
C81   C     C_R   0.083816 0.806526 0.047230 -0.156482
C82   C     C_R   0.994864 0.196164 0.052972 0.066608
C83   C     C_R   0.642544 0.435637 0.944335 0.058698
C84   C     C_R   0.998105 0.823095 0.036725 0.050215
C85   C     C_R   0.725894 0.861029 0.866151 0.113087
C86   C     C_R   0.801692 0.897231 0.835625 -0.138387
C87   C     C_R   0.818046 0.825335 0.772979 -0.093363
C88   C     C_R   0.758700 0.716943 0.739980 -0.090240
C89   C     C_R   0.682336 0.680236 0.769042 -0.141539
C90   C     C_R   0.665557 0.751798 0.831583 -0.177914
C91   C     C_R   0.164565 0.032268 0.309377 0.114758
C92   C     C_R   0.095309 0.927866 0.282890 -0.166560
C93   C     C_R   0.030716 0.907057 0.326712 -0.106228
C94   C     C_R   0.904973 0.929037 0.051527 -0.198697
C95   C     C_R   0.035174 0.990274 0.397312 -0.093770
C96   C     C_R   0.104427 0.094394 0.424312 -0.100282
C97   C     C_R   0.169147 0.115470 0.380615 -0.146003
C98   C     C_R   0.743091 0.319616 0.657007 0.115559
C99   C     C_R   0.762997 0.285617 0.579376 -0.118502
C100  C     C_R   0.724494 0.306064 0.505476 -0.110147
C101  C     C_R   0.667146 0.361851 0.508970 -0.126446
C102  C     C_R   0.648639 0.397676 0.586537 -0.137920
C103  C     C_R   0.685036 0.375406 0.659826 -0.169675
C104  C     C_R   0.306801 0.654064 0.321483 0.094861
H1    H     H_    0.160702 0.314947 0.128224 0.078843
H2    H     H_    0.434853 0.528322 0.769366 0.107153
H3    H     H_    0.547853 0.458976 0.332398 0.101598
H4    H     H_    0.400038 0.464452 0.605363 0.107806
H5    H     H_    0.615562 0.467671 0.092921 0.131045
H6    H     H_    0.335788 0.451406 0.844905 0.134044
H7    H     H_    0.125638 0.674897 0.443583 0.121508
H8    H     H_    0.869024 0.557562 0.603052 0.130055
H9    H     H_    0.792620 0.493729 0.300497 0.115315
H10   H     H_    0.203018 0.709395 0.740309 0.111912
H11   H     H_    0.211532 0.735043 0.607247 0.125915
H12   H     H_    0.830894 0.706901 0.949550 0.107316
H13   H     H_    0.782679 0.524756 0.446791 0.123144
H14   H     H_    0.864580 0.521307 0.715190 0.115021
H15   H     H_    0.136649 0.591277 0.320226 0.117567
H16   H     H_    0.549465 0.874095 0.849158 0.113319
H17   H     H_    0.370720 0.107545 0.387110 0.137763
H18   H     H_    0.567181 0.113007 0.672027 0.124512
H19   H     H_    0.509425 0.875450 0.321634 0.121133
H20   H     H_    0.811251 0.081258 0.603369 0.123700
H21   H     H_    0.269593 0.913628 0.394069 0.147358
H22   H     H_    0.392759 0.026470 0.554920 0.135893
H23   H     H_    0.579834 0.641620 0.420523 0.107039
H24   H     H_    0.686463 0.960125 0.441849 0.126389
H25   H     H_    0.520918 0.997866 0.962227 0.105386
H26   H     H_    0.490772 0.141677 0.315348 0.119306
H27   H     H_    0.664593 0.131181 0.114413 0.104838
H28   H     H_    0.426231 0.115997 0.154237 0.107864
H29   H     H_    0.837574 0.140785 0.154747 0.124150
H30   H     H_    0.241717 0.058540 0.065575 0.125787
H31   H     H_    0.764336 0.138389 0.831638 0.113573
H32   H     H_    0.294185 0.855665 0.164326 0.123981
H33   H     H_    0.305033 0.605232 0.936020 0.096835
H34   H     H_    0.408064 0.300868 0.523360 0.100482
H35   H     H_    0.671930 0.343792 0.017675 0.094497
H36   H     H_    0.286168 0.413329 0.080888 0.103523
H37   H     H_    0.683906 0.536142 0.876512 0.096917
H38   H     H_    0.189157 0.659629 0.851241 0.085070
H39   H     H_    0.807891 0.433453 0.167766 0.089758
H40   H     H_    0.831684 0.154399 0.975518 0.118952
H41   H     H_    0.163188 0.862737 0.082064 0.120788
H42   H     H_    0.834374 0.858364 0.027112 0.125195
H43   H     H_    0.156349 0.187410 0.159333 0.124768
H44   H     H_    0.848433 0.980960 0.860704 0.109561
H45   H     H_    0.557014 0.749433 0.340356 0.109431
H46   H     H_    0.877023 0.853685 0.750251 0.109579
H47   H     H_    0.771899 0.661412 0.691943 0.098912
H48   H     H_    0.636861 0.596326 0.743742 0.119180
H49   H     H_    0.607221 0.722157 0.854626 0.111780
H50   H     H_    0.092517 0.862716 0.229517 0.127170
H51   H     H_    0.977643 0.826422 0.306297 0.118874
H52   H     H_    0.985224 0.974068 0.431285 0.103714
H53   H     H_    0.108040 0.158757 0.479155 0.112543
H54   H     H_    0.222362 0.196370 0.401878 0.104468
H55   H     H_    0.810015 0.245271 0.576723 0.110235
H56   H     H_    0.455572 0.204031 0.607203 0.117669
H57   H     H_    0.740113 0.279682 0.445917 0.109075
H58   H     H_    0.638076 0.378394 0.452060 0.096897
H59   H     H_    0.606564 0.443275 0.589993 0.116895
H60   H     H_    0.670202 0.403803 0.719541 0.125726
H61   H     H_    0.256478 0.503815 0.208740 0.111590
H62   H     H_    0.314516 0.424688 0.305224 0.103036
H63   H     H_    0.399545 0.527450 0.475302 0.093723
H64   H     H_    0.423213 0.709710 0.547704 0.112492
H65   H     H_    0.360053 0.787104 0.452803 0.139383
H66   H     H_    0.506238 0.678162 0.172461 0.110768
H67   H     H_    0.487104 0.263385 0.770514 0.110268
H68   H     H_    0.497568 0.385845 0.164988 0.110939
N1    N     N_R   0.055660 0.348550 0.045620 -0.042311
N2    N     N_R   0.185200 0.638170 0.176300 -0.060521
N3    N     N_R   0.201680 0.494570 0.045620 -0.047452
N4    N     N_R   0.798320 0.505430 0.954380 -0.041242
N5    N     N_R   0.068420 0.560530 0.871650 -0.038216
N6    N     N_R   0.931580 0.439470 0.128350 -0.037502
N7    N     N_R   0.948070 0.295860 0.997670 -0.036782
N8    N     N_R   0.051930 0.704140 0.002330 -0.038961
N9    N     N_R   0.944340 0.651450 0.954380 -0.042915
N10   N     N_R   0.960830 0.507850 0.823700 -0.045612
N11   N     N_R   0.039170 0.492150 0.176300 -0.043397
N12   N     N_R   0.811290 0.303410 0.871650 -0.045883
N13   N     N_R   0.188710 0.696590 0.128350 -0.045335
N14   N     N_R   0.205200 0.552990 0.997670 -0.036316
N15   N     N_R   0.794800 0.447010 0.002330 -0.035971
N16   N     N_R   0.814800 0.361830 0.823700 -0.062692
Ni1   Ni    Ni4+2 0.119340 0.493420 0.109960 0.209619
Ni2   Ni    Ni4+2 0.880660 0.506580 0.890040 0.205019
Ni3   Ni    Ni4+2 0.872590 0.372590 0.000000 0.209913
Ni4   Ni    Ni4+2 0.127410 0.627410 0.000000 0.205793

loop_
_geom_bond_atom_site_label_1
_geom_bond_atom_site_label_2
_ccdc_geom_bond_type
C3    C104  A    
C94   H42   S    
C47   H10   S    
C66   C68   A    
C87   C88   A    
C101  C102  A    
C99   H55   S    
C60   H19   S    
C78   N5    A    
C95   C96   A    
C19   H66   S    
C72   C76   A    
C26   H2    S    
C57   H24   S    
C74   C98   S    
C85   C86   A    
C61   C75   A    
C40   H17   S    
C1    N1    A    
C103  H60   S    
C50   C54   S    
C12   C85   S    
N4    N15   A    
C60   C63   A    
C44   H13   S    
C101  H58   S    
C35   C37   A    
C24   C26   A    
C50   C74   A    
N2    N13   A    
C5    C6    A    
C33   C35   A    
C10   C73   S    
C11   C71   S    
C57   C59   A    
C67   C71   A    
C77   C83   A    
C16   C30   A    
C98   C103  A    
C33   C36   A    
C18   C20   A    
N16   Ni2   S    
C95   H52   S    
N1    Ni1   S    
C92   C93   A    
C13   C40   A    
C62   C64   A    
C43   H11   S    
C43   C53   A    
C89   H48   S    
C79   H39   S    
C20   C24   A    
C4    H62   S    
C102  H59   S    
C65   C67   A    
C87   H46   S    
C56   C64   A    
C29   H4    S    
C100  H57   S    
C56   H22   S    
C28   C78   A    
N15   Ni3   S    
N6    N11   A    
C9    C82   S    
C38   H16   S    
C44   C52   A    
C5    H63   S    
C96   H53   S    
C70   H35   S    
C93   C95   A    
N5    Ni4   S    
C55   C60   A    
C13   C91   S    
C27   C30   A    
N14   Ni4   S    
C22   N11   A    
C21   N10   A    
N11   Ni1   S    
C65   H27   S    
C57   C63   A    
C66   H28   S    
C54   C59   A    
C76   H36   S    
C69   H33   S    
C22   H15   S    
C6    H64   S    
C45   H31   S    
C32   H5    S    
C46   C61   A    
C80   N7    A    
C93   H51   S    
C8    C94   A    
C80   C82   A    
N8    Ni4   S    
C89   C90   A    
C91   C92   A    
C86   C87   A    
C54   C62   A    
C80   H40   S    
C68   C73   A    
C23   C37   S    
C15   C66   A    
N12   N16   A    
C51   C53   A    
C39   C79   A    
C69   C72   A    
C19   C23   A    
C21   H14   S    
C14   C38   A    
N9    Ni2   S    
N4    Ni2   S    
C99   C100  A    
C27   H3    S    
C49   C52   A    
C96   C97   A    
C45   N12   A    
N12   Ni3   S    
C24   C36   S    
C32   C37   A    
C91   C97   A    
C90   H49   S    
C70   C83   A    
C9    C11   A    
C16   H45   S    
C70   N15   A    
C26   C29   A    
C49   H8    S    
C25   H68   S    
C12   C71   A    
C13   C73   A    
C35   C72   S    
C77   N4    A    
C81   H41   S    
C7    C104  A    
C7    H65   S    
C74   N16   A    
C41   C48   A    
C75   C104  S    
C88   H47   S    
C34   C83   S    
C3    C4    A    
C2    C10   A    
C62   H18   S    
C81   C84   A    
C52   C53   A    
C3    H61   S    
N13   Ni4   S    
C59   H20   S    
C30   H23   S    
C51   H7    S    
C67   H29   S    
C8    C84   S    
C21   C28   A    
C76   N3    A    
C81   N8    A    
C79   N6    A    
C4    C5    A    
C78   H38   S    
C86   H44   S    
N3    Ni1   S    
C85   C90   A    
C6    C7    A    
C18   C31   A    
C25   C27   A    
C17   C84   A    
C31   H34   S    
C97   H54   S    
C68   H30   S    
C2    H43   S    
C29   C31   A    
C44   C48   A    
N3    N14   A    
N6    Ni3   S    
C1    C82   A    
C15   H26   S    
C45   C50   A    
C16   C19   A    
C22   C39   A    
C55   C61   S    
C28   C42   S    
C100  C101  A    
C11   C94   A    
C14   C65   A    
C56   C58   A    
C34   C36   A    
C42   C47   A    
C23   C25   A    
C46   N13   A    
C12   C38   A    
C102  C103  A    
C77   H37   S    
C15   C40   A    
C18   H56   S    
N2    Ni1   S    
C46   H32   S    
C63   C64   A    
C17   N9    A    
C20   H67   S    
N7    Ni3   S    
C88   C89   A    
C39   C41   S    
C58   H21   S    
C8    C10   A    
C98   C99   A    
C55   C58   A    
C1    H1    S    
N1    N7    A    
C92   H50   S    
C33   H6    S    
N10   Ni2   S    
C42   C49   A    
C2    C9    A    
C43   C47   A    
C69   N14   A    
C41   C51   A    
N8    N9    A    
N5    N10   A    
C17   H12   S    
C32   C34   A    
C48   H9    S    
C75   N2    A    
C14   H25   S    
