data_mof_unit_28852.cif
_audit_creation_date              2012-12-11T16:29:25-0500
_audit_creation_method            fapswitch 2.2
_symmetry_space_group_name_H-M    P1
_symmetry_Int_Tables_number       1
_space_group_crystal_system       triclinic
_cell_length_a                    6.949365
_cell_length_b                    17.275008
_cell_length_c                    18.81314
_cell_angle_alpha                 106.17981
_cell_angle_beta                  89.922973
_cell_angle_gamma                 90.614308
_cell_volume                      2168.94018044

loop_
_atom_site_label
_atom_site_type_symbol
_atom_type_description
_atom_site_fract_x
_atom_site_fract_y
_atom_site_fract_z
_atom_type_partial_charge
O1    O     O_R   0.494360 0.415680 0.413760 -0.537658
O2    O     O_R   0.818810 0.432910 0.557230 -0.528889
O3    O     O_R   0.994290 0.584320 0.586240 -0.545837
C1    C     C_R   0.649943 0.415869 0.580547 0.707323
O4    O     O_R   0.823740 0.406440 0.412520 -0.526411
O5    O     O_R   0.999250 0.557660 0.440500 -0.516771
C2    C     C_R   0.654471 0.384587 0.384096 0.790703
O6    O     O_R   0.489400 0.442340 0.559500 -0.524918
O7    O     O_3   0.662500 0.549650 0.509350 -0.361114
V1    V     V_3+5 0.935340 0.490790 0.498270 1.417626
O8    O     O_R   0.329270 0.567090 0.442770 -0.520722
C3    C     C_R   0.161110 0.583896 0.419250 0.728060
O9    O     O_R   0.324340 0.593560 0.587480 -0.520089
C4    C     C_R   0.155847 0.619233 0.612695 0.765764
V2    V     V_3+5 0.435970 0.509210 0.501730 1.414588
O10   O     O_3   0.158940 0.450350 0.490650 -0.362810
C5    C     C_R   0.101510 0.590187 0.752812 -0.227284
C6    C     C_R   0.086063 0.571234 0.819338 -0.189746
C7    C     C_R   0.109437 0.630917 0.886345 0.309833
C8    C     C_R   0.142253 0.711704 0.885287 0.177439
C9    C     C_R   0.130568 0.733890 0.817472 -0.011392
C10   C     C_R   0.125495 0.670676 0.750239 0.020736
C11   C     C_R   0.118686 0.815971 0.814599 -0.128300
C12   C     C_R   0.113369 0.832761 0.743817 -0.082583
C13   C     C_R   0.155791 0.769409 0.678762 -0.054190
C14   C     C_R   0.149493 0.687789 0.681520 -0.109090
C15   C     C_R   0.064186 0.910006 0.734727 0.160067
C16   C     C_R   0.061590 0.922301 0.663646 0.230408
C17   C     C_R   0.134282 0.863649 0.602837 0.183047
C18   C     C_R   0.194543 0.789321 0.611533 0.149796
H1    H     H_    0.061419 0.508804 0.817526 0.138703
C19   C     C_1   0.111522 0.866612 0.134984 -0.245315
C20   C     C_1   0.119083 0.824054 0.178564 -0.006695
C21   C     C_1   0.128556 0.773487 0.230132 -0.005138
C22   C     C_1   0.136572 0.730688 0.273504 -0.003940
C23   C     C_1   0.145864 0.679719 0.324723 -0.012869
C24   C     C_1   0.153242 0.636489 0.367714 -0.269257
C25   C     C_1   0.641576 0.363722 0.632407 -0.217438
C26   C     C_1   0.637465 0.320936 0.675835 -0.008266
C27   C     C_1   0.634083 0.270530 0.727586 -0.014461
C28   C     C_1   0.631480 0.228184 0.771396 -0.012852
C29   C     C_1   0.627914 0.178134 0.823429 -0.007509
C30   C     C_1   0.623596 0.135816 0.867233 -0.240502
H2    H     H_    0.377076 0.148375 0.440089 0.119954
C31   C     C_R   0.776307 0.403597 0.236960 0.272409
C32   C     C_R   0.852629 0.408313 0.169276 -0.171418
C33   C     C_R   0.851934 0.341799 0.107994 -0.168815
C34   C     C_R   0.774286 0.269225 0.112801 -0.140304
C35   C     C_R   0.702051 0.260266 0.180486 0.027951
C36   C     C_R   0.707090 0.327932 0.245086 0.032728
C37   C     C_R   0.622031 0.185316 0.183478 -0.152657
C38   C     C_R   0.552567 0.176285 0.251555 0.038719
C39   C     C_R   0.564225 0.241882 0.316877 0.055412
C40   C     C_R   0.641813 0.317607 0.314221 -0.181941
C41   C     C_R   0.475540 0.101569 0.256187 -0.224202
C42   C     C_R   0.407983 0.091494 0.323213 0.345791
C43   C     C_R   0.422806 0.155733 0.387292 -0.129270
C44   C     C_R   0.499959 0.229552 0.384428 -0.211010
H3    H     H_    0.907546 0.465223 0.163598 0.119800
H4    H     H_    0.907853 0.347010 0.055754 0.127230
H5    H     H_    0.509677 0.276452 0.436197 0.113230
O11   O     O_R   0.775690 0.057750 0.940570 -0.519967
O12   O     O_R   0.441200 0.093570 0.087490 -0.533328
O13   O     O_R   0.265840 0.942320 0.059480 -0.519821
C45   C     C_R   0.610495 0.116266 0.115217 0.700991
O14   O     O_R   0.446270 0.067110 0.942790 -0.533889
O15   O     O_R   0.270950 0.915660 0.913750 -0.524902
C46   C     C_R   0.615144 0.084115 0.919452 0.711104
O16   O     O_R   0.770580 0.084400 0.086300 -0.534918
O17   O     O_3   0.602640 0.950400 0.990690 -0.364812
V3    V     V_3+5 0.329740 0.009200 0.001730 1.397144
O18   O     O_R   0.940900 0.906360 0.912450 -0.534306
C47   C     C_R   0.109476 0.883353 0.884594 0.863365
O19   O     O_R   0.935830 0.932820 0.057160 -0.527833
C48   C     C_R   0.103711 0.917800 0.082183 0.741993
V4    V     V_3+5 0.829130 0.990680 0.998180 1.392291
O20   O     O_3   0.106100 0.049590 0.009310 -0.368528
N1    N     N_2   0.139672 0.879289 0.532346 -0.514349
H6    H     H_    0.076459 0.835343 0.489875 0.248640
C49   C     C_3   0.320664 0.909815 0.512234 -0.521659
H7    H     H_    0.410812 0.859399 0.480241 0.189955
H8    H     H_    0.401832 0.944773 0.561923 0.193098
H9    H     H_    0.291583 0.950082 0.476800 0.213090
N2    N     N_2   0.763157 0.476710 0.294582 -0.527013
H10   H     H_    0.884080 0.512733 0.298554 0.250653
C50   C     C_3   0.589790 0.521356 0.291796 -0.514252
H11   H     H_    0.587491 0.576056 0.339734 0.203291
H12   H     H_    0.460333 0.483889 0.294283 0.193181
H13   H     H_    0.585645 0.540531 0.240111 0.181276
H14   H     H_    0.771710 0.220335 0.062334 0.114792
H15   H     H_    0.466903 0.050034 0.207887 0.104695
N3    N     N_2   0.333184 0.015444 0.326542 -0.531479
H16   H     H_    0.364578 0.967947 0.281076 0.256710
C51   C     C_3   0.133401 0.015407 0.348370 -0.550802
H17   H     H_    0.090426 0.953932 0.350357 0.206238
H18   H     H_    0.040238 0.033079 0.307625 0.198701
H19   H     H_    0.111216 0.057341 0.404287 0.197743
H20   H     H_    0.091846 0.540258 0.703207 0.128027
N4    N     N_2   0.106026 0.611733 0.955697 -0.520288
H21   H     H_    0.008129 0.644063 0.993362 0.247676
C52   C     C_3   0.127895 0.529082 0.957609 -0.558883
H22   H     H_    0.148983 0.527760 0.015754 0.199939
H23   H     H_    0.256302 0.501947 0.925283 0.207321
H24   H     H_    0.996453 0.493307 0.935608 0.188700
N5    N     N_2   0.212850 0.767338 0.950810 -0.538349
H25   H     H_    0.139555 0.765032 0.997662 0.242353
C53   C     C_3   0.419259 0.763638 0.959730 -0.446977
H26   H     H_    0.465375 0.808612 0.011539 0.195274
H27   H     H_    0.494955 0.777169 0.912428 0.193336
H28   H     H_    0.461387 0.702936 0.963301 0.187715
N6    N     N_2   0.994399 0.972878 0.794925 -0.510177
H29   H     H_    0.851899 0.986523 0.789806 0.260149
C54   C     C_3   0.118108 0.043400 0.819121 -0.438084
H30   H     H_    0.111543 0.066580 0.879990 0.214826
H31   H     H_    0.067163 0.092118 0.796189 0.186199
H32   H     H_    0.270397 0.029147 0.802840 0.169151
N7    N     N_2   0.976217 0.993134 0.653378 -0.498380
H33   H     H_    0.866548 0.981668 0.614831 0.258762
C55   C     C_3   0.107357 0.056071 0.645688 -0.496013
H34   H     H_    0.044020 0.115666 0.672945 0.190009
H35   H     H_    0.128738 0.052178 0.586324 0.200395
H36   H     H_    0.249198 0.052298 0.671750 0.188962
N8    N     N_2   0.313047 0.738887 0.556221 -0.509898
H37   H     H_    0.284124 0.739250 0.502744 0.250297
C56   C     C_3   0.516725 0.747566 0.573378 -0.459136
H38   H     H_    0.599567 0.706772 0.527903 0.191821
H39   H     H_    0.547137 0.731544 0.625466 0.198623
H40   H     H_    0.566039 0.810492 0.579572 0.163898

loop_
_geom_bond_atom_site_label_1
_geom_bond_atom_site_label_2
_ccdc_geom_bond_type
O14   C46   A    
C41   C42   A    
O12   C45   A    
C52   H22   S    
C32   H3    S    
C28   C29   S    
C7    C8    A    
C12   C15   A    
O18   V4    S    
C19   C48   S    
N8    H37   S    
C39   C40   A    
N5    C53   S    
C36   C40   A    
O19   V4    S    
C16   C17   A    
N2    C50   S    
C21   C22   T    
C16   N7    S    
N7    C55   S    
O5    C3    A    
C25   C26   T    
C50   H12   S    
N8    C56   S    
V2    O10   S    
C42   C43   A    
O16   V4    S    
C6    C7    A    
C37   C45   S    
O13   V3    S    
C3    C24   S    
C41   H15   S    
C33   H4    S    
O8    V2    S    
C17   N1    S    
N4    H21   S    
C30   C46   S    
C35   C37   A    
C56   H40   S    
C11   C12   A    
O17   V3    S    
O15   C47   A    
C5    H20   S    
O15   V3    S    
C38   C41   A    
C1    O6    A    
C54   H32   S    
C44   H5    S    
C15   N6    S    
C52   H23   S    
C34   H14   S    
O9    C4    A    
C53   H27   S    
O11   V4    S    
C11   C47   S    
C49   H9    S    
C5    C6    A    
V4    O20   S    
C55   H35   S    
O19   C48   A    
C37   C38   A    
C33   C34   A    
C12   C13   A    
C49   H8    S    
C26   C27   S    
O4    C2    A    
C7    N4    S    
N1    H6    S    
C49   H7    S    
C51   H19   S    
C13   C14   A    
C31   C32   A    
C4    C14   S    
C22   C23   S    
O2    C1    A    
C17   C18   A    
O14   V3    S    
H2    C43   S    
C53   H26   S    
C8    C9    A    
N3    C51   S    
C20   C21   S    
N6    C54   S    
N2    H10   S    
C55   H34   S    
C51   H18   S    
O3    C4    A    
O1    V2    S    
C27   C28   T    
N4    C52   S    
O12   V3    S    
O6    V2    S    
C9    C11   A    
O17   V4    S    
C56   H38   S    
C53   H28   S    
C31   N2    S    
C29   C30   T    
O2    V1    S    
V3    O20   S    
C38   C39   A    
C50   H11   S    
C54   H30   S    
O7    V1    S    
C55   H36   S    
C13   C18   A    
C32   C33   A    
C34   C35   A    
N6    H29   S    
O1    C2    A    
C1    C25   S    
O18   C47   A    
C50   H13   S    
O5    V1    S    
C39   C44   A    
C52   H24   S    
N5    H25   S    
C5    C10   A    
O11   C46   A    
C19   C20   T    
O9    V2    S    
O7    V2    S    
O4    V1    S    
O3    V1    S    
V1    O10   S    
N7    H33   S    
C43   C44   A    
C31   C36   A    
C45   O16   A    
N3    H16   S    
O13   C48   A    
N1    C49   S    
C51   H17   S    
C42   N3    S    
C18   N8    S    
C23   C24   T    
C35   C36   A    
C10   C14   A    
C15   C16   A    
C56   H39   S    
C8    N5    S    
C6    H1    S    
C2    C40   S    
C9    C10   A    
O8    C3    A    
C54   H31   S    
