data_mof_unit_56634.cif
_audit_creation_date              2012-12-10T17:03:57-0500
_audit_creation_method            fapswitch 2.2
_symmetry_space_group_name_H-M    P1
_symmetry_Int_Tables_number       1
_space_group_crystal_system       triclinic
_cell_length_a                    9.828734
_cell_length_b                    11.030801
_cell_length_c                    15.721576
_cell_angle_alpha                 94.1557
_cell_angle_beta                  79.972317
_cell_angle_gamma                 110.766843
_cell_volume                      1569.32051775

loop_
_atom_site_label
_atom_site_type_symbol
_atom_type_description
_atom_site_fract_x
_atom_site_fract_y
_atom_site_fract_z
_atom_type_partial_charge
C1    C     C_R   0.557005 0.745334 0.502041 0.866593
C2    C     C_R   0.447513 0.255221 0.490103 0.866611
C3    C     C_R   0.304321 0.365514 0.072114 0.143846
C4    C     C_R   0.656520 0.428406 0.920608 0.141904
C5    C     C_R   0.205775 0.349920 0.014571 -0.284768
C6    C     C_R   0.755439 0.445905 0.978170 -0.282444
C7    C     C_2   0.588459 0.884181 0.495921 -0.327954
C8    C     C_2   0.424500 0.117233 0.479883 -0.394157
C9    C     C_2   0.504879 0.931069 0.457712 0.193174
C10   C     C_2   0.536860 0.071092 0.459547 0.135816
C11   C     C_2   0.925638 0.494601 0.491002 0.056211
C12   C     C_2   0.078021 0.511672 0.505407 0.077895
C13   C     C_R   0.411626 0.484397 0.662930 0.798910
C14   C     C_R   0.587335 0.510654 0.336915 0.795467
C15   C     C_R   0.356377 0.458117 0.755363 -0.075072
C16   C     C_R   0.635238 0.501051 0.243370 -0.074444
C17   C     C_R   0.155540 0.374916 0.873080 -0.191830
C18   C     C_R   0.817991 0.486626 0.122014 -0.185882
C19   C     C_R   0.204980 0.410072 0.786780 -0.192741
C20   C     C_R   0.778310 0.504208 0.210265 -0.195544
C21   C     C_R   0.456966 0.470367 0.811338 -0.191360
C22   C     C_R   0.532514 0.478693 0.187193 -0.191657
C23   C     C_R   0.409476 0.424535 0.896402 0.098764
C24   C     C_R   0.566015 0.448868 0.099350 0.096428
C25   C     C_R   0.256589 0.383433 0.928265 0.125848
C26   C     C_R   0.713581 0.460815 0.066309 0.125002
C27   C     C_R   0.509958 0.424885 0.951874 0.011331
C28   C     C_R   0.459334 0.414945 0.042616 0.011379
Cu1   Cu    Cu3+1 0.362980 0.479380 0.485080 0.952444
Cu2   Cu    Cu3+1 0.637020 0.520620 0.514920 0.936309
H1    H     H_    0.088259 0.312434 0.038168 0.144200
H2    H     H_    0.866689 0.449356 0.953248 0.140652
H3    H     H_    0.428137 0.489345 0.212571 0.181469
H4    H     H_    0.572322 0.519644 0.788135 0.175354
H5    H     H_    0.859568 0.520618 0.252373 0.154612
H6    H     H_    0.124875 0.399047 0.744744 0.155163
H7    H     H_    0.038121 0.339436 0.896456 0.126435
H8    H     H_    0.930197 0.492447 0.097318 0.134050
H9    H     H_    0.311181 0.051087 0.490740 0.128826
H10   H     H_    0.680740 0.949840 0.524729 0.134629
H11   H     H_    0.126308 0.580890 0.553967 0.149672
H12   H     H_    0.880980 0.431497 0.438914 0.141347
N1    N     N_2   0.842890 0.551600 0.537350 -0.138169
N2    N     N_2   0.157110 0.448400 0.462650 -0.142401
O1    O     O_R   0.426810 0.668300 0.492040 -0.546064
O2    O     O_R   0.573190 0.331700 0.507960 -0.583004
O3    O     O_R   0.658240 0.703130 0.517240 -0.584875
O4    O     O_R   0.341760 0.296870 0.482760 -0.576720
O5    O     O_R   0.319390 0.472820 0.610170 -0.588599
O6    O     O_R   0.680610 0.527180 0.389830 -0.592911
O7    O     O_R   0.550820 0.507640 0.635370 -0.576524
O8    O     O_R   0.449180 0.492360 0.364630 -0.574719
N3    N     N_3   0.244694 0.316464 0.157726 -0.614615
H13   H     H_    0.184965 0.217348 0.153078 0.230872
H14   H     H_    0.170787 0.362279 0.185751 0.205530
N4    N     N_3   0.701623 0.399118 0.832167 -0.605493
H15   H     H_    0.728751 0.315361 0.830352 0.225062
H16   H     H_    0.797102 0.475245 0.807929 0.207195
N5    N     N_3   0.689030 0.153063 0.439292 -0.586184
H17   H     H_    0.700412 0.218607 0.391431 0.228087
H18   H     H_    0.725345 0.201924 0.495090 0.242762
N6    N     N_3   0.389855 0.847421 0.412748 -0.556919
H19   H     H_    0.405861 0.884500 0.351007 0.215719
H20   H     H_    0.287993 0.847579 0.445629 0.209692
N7    N     N_3   0.096022 0.357939 0.401084 -0.537897
H21   H     H_    0.167745 0.383609 0.342756 0.244543
H22   H     H_    0.096496 0.268592 0.418638 0.247497
N8    N     N_3   0.898192 0.631998 0.604871 -0.542126
H23   H     H_    0.826603 0.594540 0.661616 0.238291
H24   H     H_    0.891727 0.722389 0.595318 0.239479

loop_
_geom_bond_atom_site_label_1
_geom_bond_atom_site_label_2
_ccdc_geom_bond_type
C13   O5    A    
C6    H2    S    
Cu2   O7    S    
C14   O8    A    
C11   N1    D    
C12   H11   S    
C8    H9    S    
C23   C27   A    
C9    C10   S    
N1    N8    S    
N3    H14   S    
C18   C20   A    
C18   C26   A    
C16   C20   A    
C7    H10   S    
C17   C25   A    
N6    H19   S    
C23   C25   A    
C10   N5    S    
Cu2   O6    S    
N5    H17   S    
C12   N2    D    
Cu1   O5    S    
N3    H13   S    
C4    N4    S    
C15   C19   A    
C3    N3    S    
C1    O1    A    
N2    N7    S    
Cu1   Cu2   S    
C5    H1    S    
C5    C25   A    
C8    C10   D    
C3    C28   A    
C17   C19   A    
N4    H16   S    
C22   C24   A    
C19   H6    S    
C13   C15   S    
Cu1   N2    S    
C18   H8    S    
C14   C16   S    
Cu2   N1    S    
N5    H18   S    
C4    C6    A    
C14   O6    A    
Cu1   O4    S    
C9    N6    S    
C3    C5    A    
Cu2   O3    S    
C15   C21   A    
C4    C27   A    
C16   C22   A    
N4    H15   S    
C11   H12   S    
N8    H24   S    
N7    H21   S    
Cu1   O1    S    
C27   C28   A    
C7    C9    D    
C22   H3    S    
C17   H7    S    
C6    C26   A    
C1    O3    A    
C1    C7    S    
N6    H20   S    
C21   H4    S    
C2    O2    A    
C2    O4    A    
C13   O7    A    
C20   H5    S    
C21   C23   A    
Cu2   O2    S    
C2    C8    S    
C24   C28   A    
C11   C12   S    
C24   C26   A    
N8    H23   S    
N7    H22   S    
Cu1   O8    S    
