data_mof_unit_27137.cif
_audit_creation_date              2012-10-26T21:05:44-0400
_audit_creation_method            fapswitch 2.2
_symmetry_space_group_name_H-M    P1
_symmetry_Int_Tables_number       1
_space_group_crystal_system       triclinic
_cell_length_a                    13.03845
_cell_length_b                    9.097791
_cell_length_c                    7.78161
_cell_angle_alpha                 90.002466
_cell_angle_beta                  97.17916
_cell_angle_gamma                 90.011619
_cell_volume                      915.826453997

loop_
_atom_site_label
_atom_site_type_symbol
_atom_type_description
_atom_site_fract_x
_atom_site_fract_y
_atom_site_fract_z
_atom_type_partial_charge
C1    C     C_R   0.500010 0.220010 0.500000 0.545445
C2    C     C_R   0.874244 0.465257 0.719326 0.007679
C3    C     C_R   0.136217 0.469510 0.586666 -0.140483
C4    C     C_R   0.863784 0.530494 0.413335 -0.140480
C5    C     C_R   0.029453 0.479516 0.578135 0.028885
C6    C     C_R   0.970547 0.520486 0.421865 0.028885
C7    C     C_1   0.500004 0.065362 0.499998 -0.037421
C8    C     C_1   0.499996 0.934638 0.500002 -0.037421
C9    C     C_2   0.831396 0.440434 0.884124 0.220253
C10   C     C_2   0.168605 0.559550 0.115879 0.220256
C11   C     C_R   0.499990 0.779989 0.499999 0.545443
C12   C     C_R   0.299550 0.499050 0.465558 0.542597
C13   C     C_R   0.700450 0.500950 0.534442 0.542594
C14   C     C_R   0.814059 0.501022 0.559176 0.006044
C15   C     C_R   0.185941 0.498978 0.440825 0.006048
C16   C     C_R   0.018807 0.548585 0.274960 -0.152567
C17   C     C_R   0.981193 0.451413 0.725039 -0.152566
C18   C     C_R   0.125755 0.534738 0.280674 0.007682
Cu1   Cu    Cu3+1 0.500010 0.500000 0.669080 1.085125
Cu2   Cu    Cu3+1 0.499990 0.500000 0.330920 1.085127
H1    H     H_    0.819145 0.560530 0.291499 0.177311
H2    H     H_    0.180855 0.439478 0.708503 0.177304
H3    H     H_    0.854208 0.343568 0.960946 0.099151
H4    H     H_    0.145796 0.656415 0.039047 0.099146
H5    H     H_    0.972840 0.578954 0.154331 0.125432
H6    H     H_    0.027160 0.421040 0.845668 0.125428
N1    N     N_1   0.499980 0.500000 0.076820 -0.047797
N2    N     N_1   0.500020 0.500000 0.923180 -0.047798
O1    O     O_R   0.500000 0.288400 0.642760 -0.502656
O2    O     O_2   0.222025 0.466553 0.057174 -0.495884
O3    O     O_R   0.500000 0.711600 0.357240 -0.502657
O4    O     O_R   0.500000 0.288400 0.357240 -0.495313
O5    O     O_R   0.500000 0.711600 0.642760 -0.495315
O6    O     O_R   0.349000 0.500000 0.619590 -0.513034
O7    O     O_R   0.651000 0.500000 0.380410 -0.513029
O8    O     O_R   0.348990 0.500000 0.334020 -0.452762
O9    O     O_R   0.651010 0.500000 0.665980 -0.452765
O10   O     O_2   0.777977 0.533426 0.942845 -0.495887

loop_
_geom_bond_atom_site_label_1
_geom_bond_atom_site_label_2
_ccdc_geom_bond_type
C15   C18   A    
C4    H1    S    
Cu2   N1    S    
C12   O8    A    
C10   O2    D    
C13   O9    A    
Cu1   Cu2   S    
C12   C15   S    
C1    O1    A    
C11   O3    A    
C7    C8    T    
C13   C14   S    
C2    C17   A    
Cu1   N2    S    
C2    C9    S    
C10   C18   S    
C8    C11   S    
C17   H6    S    
C4    C6    A    
C9    O10   D    
C13   O7    A    
C4    C14   A    
C5    C6    A    
C2    C14   A    
C5    C17   A    
C12   O6    A    
Cu1   O1    S    
C3    C5    A    
C11   O5    A    
C3    C15   A    
C16   C18   A    
Cu2   O4    S    
C16   H5    S    
C9    H3    S    
C3    H2    S    
Cu1   O9    S    
C10   H4    S    
C1    C7    S    
Cu2   O7    S    
C6    C16   A    
Cu1   O6    S    
C1    O4    A    
Cu1   O5    S    
N1    N2    T    
Cu2   O3    S    
Cu2   O8    S    
