data_mof_unit_49945.cif
_audit_creation_date              2012-12-10T18:49:58-0500
_audit_creation_method            fapswitch 2.2
_symmetry_space_group_name_H-M    P1
_symmetry_Int_Tables_number       1
_space_group_crystal_system       triclinic
_cell_length_a                    10.780154
_cell_length_b                    9.919207
_cell_length_c                    10.910749
_cell_angle_alpha                 91.339838
_cell_angle_beta                  89.509089
_cell_angle_gamma                 89.730333
_cell_volume                      1166.31686417

loop_
_atom_site_label
_atom_site_type_symbol
_atom_type_description
_atom_site_fract_x
_atom_site_fract_y
_atom_site_fract_z
_atom_type_partial_charge
C1    C     C_R   0.259762 0.501931 0.513940 0.973921
C2    C     C_R   0.592013 0.929220 0.556181 0.635533
C3    C     C_R   0.415637 0.927085 0.433412 -0.099538
C4    C     C_R   0.413685 0.070330 0.435996 -0.060190
C5    C     C_R   0.487046 0.498763 0.259520 1.120063
C6    C     C_R   0.739408 0.499401 0.493318 0.998801
C7    C     C_R   0.498747 0.501110 0.743153 1.027928
C8    C     C_3   0.403237 0.621196 0.077684 0.678766
C9    C     C_3   0.433375 0.357938 0.070431 0.697656
C10   C     C_3   0.408749 0.624196 0.934729 0.054910
C11   C     C_3   0.423865 0.367972 0.928793 0.052573
C12   C     C_3   0.635594 0.510856 0.937949 0.397967
C13   C     C_3   0.621074 0.518220 0.081932 1.020701
C14   C     C_3   0.481359 0.497296 0.124183 -0.655264
C15   C     C_3   0.496881 0.501786 0.880878 -0.627271
C16   C     C_R   0.057723 0.388690 0.552047 0.279629
C17   C     C_R   0.056870 0.629558 0.509135 0.431636
C18   C     C_R   0.933811 0.382879 0.524494 -0.187494
C19   C     C_R   0.932925 0.620294 0.481697 -0.125411
C20   C     C_R   0.871554 0.498867 0.492193 -0.152107
C21   C     C_R   0.124688 0.508235 0.529617 -0.245809
C22   C     C_R   0.593279 0.071994 0.553989 0.588545
F1    F     F_    0.460873 0.733266 0.126439 -0.553751
F2    F     F_    0.521929 0.261179 0.095615 -0.507140
F3    F     F_    0.664596 0.640776 0.127938 -0.531206
F4    F     F_    0.696253 0.424601 0.138426 -0.556536
F5    F     F_    0.690316 0.137800 0.603931 -0.573175
F6    F     F_    0.684371 0.863808 0.613845 -0.546376
H1    H     H_    0.351378 0.872050 0.376544 0.262291
H2    H     H_    0.571131 0.055224 0.802840 0.405521
H3    H     H_    0.910251 0.730828 0.916851 0.408207
H4    H     H_    0.916684 0.436673 0.819600 0.382495
H5    H     H_    0.139795 0.120953 0.501029 0.373811
H6    H     H_    0.243140 0.907614 0.640476 0.428424
H7    H     H_    0.343357 0.123313 0.386674 0.230921
H8    H     H_    0.315943 0.594698 0.901149 0.137664
H9    H     H_    0.325827 0.390092 0.911399 0.157662
H10   H     H_    0.883444 0.290692 0.540483 0.262230
H11   H     H_    0.881824 0.711209 0.460773 0.235007
H12   H     H_    0.114285 0.810492 0.142858 0.415289
H13   H     H_    0.230754 0.090754 0.186078 0.392889
H14   H     H_    0.393415 0.933786 0.045908 0.448622
N1    N     N_R   0.499970 0.857200 0.499970 -0.169207
N2    N     N_R   0.499970 0.142800 0.499970 -0.152453
O1    O     O_R   0.316750 0.614620 0.499990 -0.567808
O2    O     O_2   0.231780 0.613073 0.265078 -0.282209
O3    O     O_3   0.202792 0.806011 0.117866 -0.490029
O4    O     O_2   0.254526 0.357322 0.258146 -0.305407
O5    O     O_2   0.181459 0.299339 0.053089 -0.174400
O6    O     O_3   0.313813 0.127126 0.166316 -0.499899
O7    O     O_2   0.454651 0.833458 0.764535 -0.239294
O8    O     O_2   0.261665 0.834933 0.876809 -0.201042
O9    O     O_3   0.460535 0.909852 0.987158 -0.322915
O10   O     O_2   0.327363 0.117521 0.921249 -0.140642
O11   O     O_2   0.390549 0.186331 0.725959 -0.233144
O12   O     O_R   0.316750 0.385380 0.499990 -0.572705
O13   O     O_3   0.561855 0.116666 0.874842 -0.342178
O14   O     O_2   0.753484 0.641197 0.751816 -0.292679
O15   O     O_2   0.659516 0.788645 0.908885 -0.104279
O16   O     O_3   0.858468 0.666985 0.963175 -0.417666
O17   O     O_2   0.727362 0.250252 0.974296 -0.046144
O18   O     O_2   0.718379 0.324840 0.763507 -0.250780
O19   O     O_3   0.889951 0.414744 0.903889 -0.381648
O20   O     O_2   0.188217 0.331254 0.746352 -0.260931
O21   O     O_2   0.005032 0.193213 0.711579 -0.153505
O22   O     O_3   0.194182 0.148567 0.569773 -0.503790
O23   O     O_R   0.499970 0.614670 0.314790 -0.542853
O24   O     O_2   0.134147 0.857834 0.411319 -0.325628
O25   O     O_2   0.004479 0.877741 0.594427 -0.196611
O26   O     O_3   0.232246 0.809788 0.624604 -0.487316
O27   O     O_R   0.499970 0.385330 0.314790 -0.558662
O28   O     O_R   0.683220 0.614710 0.500010 -0.574340
O29   O     O_R   0.683220 0.385290 0.500010 -0.576009
O30   O     O_R   0.500010 0.614660 0.685200 -0.531065
O31   O     O_R   0.500010 0.385340 0.685200 -0.534064
O32   O     O_2   0.154268 0.559408 0.059064 -0.228111
S1    S     S_3+6 0.243869 0.643514 0.131973 0.103948
S2    S     S_3+6 0.289874 0.290854 0.138411 0.131298
S3    S     S_3+6 0.397414 0.801075 0.885212 0.202306
S4    S     S_3+6 0.425957 0.196209 0.858065 0.224852
S5    S     S_3+6 0.723987 0.657016 0.886090 0.175630
S6    S     S_3+6 0.739904 0.369477 0.893333 0.207380
S7    S     S_3+6 0.111140 0.263409 0.649914 0.122629
S8    S     S_3+6 0.107929 0.797879 0.533768 0.075870
Zn1   Zn    Zn3+2 0.499980 0.653120 0.500000 1.169159
Zn2   Zn    Zn3+2 0.499980 0.346880 0.500000 1.167942

loop_
_geom_bond_atom_site_label_1
_geom_bond_atom_site_label_2
_ccdc_geom_bond_type
H12   O3    S    
C1    C21   S    
C16   C21   A    
C19   C20   A    
C5    O23   A    
O28   Zn1   S    
C6    O28   A    
C3    N1    A    
O9    S3    S    
C1    O12   A    
O17   S6    D    
H14   O9    S    
O21   S7    D    
H2    O13   S    
C8    F1    S    
O5    S2    D    
C11   H9    S    
O4    S2    D    
C3    H1    S    
O22   S7    S    
C11   C15   S    
C22   N2    A    
C2    C22   A    
O8    S3    D    
O26   S8    S    
H6    O26   S    
C7    C15   S    
O18   S6    D    
C4    H7    S    
C13   C14   S    
O13   S4    S    
C13   F3    S    
N2    Zn2   S    
O6    S2    S    
H5    O22   S    
C7    O30   A    
O10   S4    D    
O23   Zn1   S    
O19   S6    S    
N1    Zn1   S    
O32   S1    D    
O14   S5    D    
C7    O31   A    
C4    N2    A    
C16   S7    S    
C17   C21   A    
O24   S8    D    
H3    O16   S    
O1    Zn1   S    
C9    C14   S    
O20   S7    D    
O27   Zn2   S    
O16   S5    S    
O31   Zn2   S    
O12   Zn2   S    
C12   C15   S    
C2    N1    A    
C12   S6    S    
C9    C11   S    
C5    C14   S    
C19   H11   S    
C16   C18   A    
C22   F5    S    
C8    S1    S    
C13   F4    S    
O3    S1    S    
C3    C4    A    
H13   O6    S    
C6    O29   A    
C8    C14   S    
O15   S5    D    
H4    O19   S    
O2    S1    D    
C2    F6    S    
C10   S3    S    
C9    F2    S    
C6    C20   S    
C10   C15   S    
C17   S8    S    
C18   H10   S    
C5    O27   A    
O25   S8    D    
O11   S4    D    
C1    O1    A    
C17   C19   A    
C12   S5    S    
C18   C20   A    
C9    S2    S    
O30   Zn1   S    
O7    S3    D    
O29   Zn2   S    
C11   S4    S    
C12   C13   S    
C8    C10   S    
C10   H8    S    
