data_mof_unit_28290.cif
_audit_creation_date              2012-12-10T17:55:04-0500
_audit_creation_method            fapswitch 2.2
_symmetry_space_group_name_H-M    P1
_symmetry_Int_Tables_number       1
_space_group_crystal_system       triclinic
_cell_length_a                    8.73432
_cell_length_b                    10.838158
_cell_length_c                    9.522136
_cell_angle_alpha                 90.373555
_cell_angle_beta                  97.946748
_cell_angle_gamma                 90.105518
_cell_volume                      892.72433488

loop_
_atom_site_label
_atom_site_type_symbol
_atom_type_description
_atom_site_fract_x
_atom_site_fract_y
_atom_site_fract_z
_atom_type_partial_charge
C1    C     C_R   0.502098 0.262211 0.499614 0.821183
C2    C     C_R   0.497890 0.737791 0.500387 0.821129
C3    C     C_R   0.203735 0.499957 0.463713 0.879156
C4    C     C_R   0.796265 0.500043 0.536287 0.879188
C5    C     C_2   0.037900 0.500018 0.443730 -0.367225
C6    C     C_2   0.962100 0.499982 0.556270 -0.367236
C7    C     C_R   0.562424 0.061494 0.391032 0.159004
C8    C     C_R   0.437585 0.938515 0.608996 0.159022
C9    C     C_R   0.558333 0.933431 0.393149 -0.295528
C10   C     C_R   0.441605 0.066577 0.606836 -0.295559
C11   C     C_R   0.497077 0.871633 0.501432 -0.042658
C12   C     C_R   0.502878 0.128373 0.498565 -0.042640
C13   C     C_R   0.401601 0.425111 0.061345 -0.010906
C14   C     C_R   0.598399 0.574889 0.938654 -0.010868
C15   C     C_R   0.401599 0.425172 0.912540 -0.025052
C16   C     C_R   0.598401 0.574828 0.087460 -0.025045
Cu1   Cu    Cu3+1 0.500000 0.500020 0.640660 0.951136
Cu2   Cu    Cu3+1 0.500000 0.499980 0.359340 0.951133
H1    H     H_    0.977938 0.500125 0.335768 0.173448
H2    H     H_    0.022062 0.499874 0.664232 0.173445
H3    H     H_    0.605807 0.882376 0.310949 0.154669
H4    H     H_    0.394147 0.117634 0.689040 0.154670
H5    H     H_    0.322934 0.364981 0.106967 0.119647
H6    H     H_    0.677065 0.635019 0.893033 0.119653
H7    H     H_    0.322865 0.365111 0.846033 0.114204
H8    H     H_    0.677135 0.634889 0.153967 0.114202
N1    N     N_R   0.500040 0.500030 0.852080 -0.157402
N2    N     N_R   0.499960 0.499970 0.147920 -0.157401
O1    O     O_R   0.499990 0.319660 0.618740 -0.600410
O2    O     O_R   0.500010 0.680340 0.381260 -0.600401
O3    O     O_R   0.499990 0.319630 0.381170 -0.554324
O4    O     O_R   0.500010 0.680370 0.618830 -0.554298
O5    O     O_R   0.274840 0.500010 0.591370 -0.577661
O6    O     O_R   0.725160 0.499990 0.408630 -0.577648
O7    O     O_R   0.274830 0.499980 0.353800 -0.593849
O8    O     O_R   0.725170 0.500020 0.646200 -0.593849
N3    N     N_3   0.630655 0.122754 0.281863 -0.569233
H9    H     H_    0.744762 0.092376 0.286178 0.209531
H10   H     H_    0.570443 0.095807 0.183819 0.212232
N4    N     N_3   0.369569 0.877262 0.718300 -0.569212
H11   H     H_    0.255435 0.907553 0.714076 0.209536
H12   H     H_    0.429859 0.904303 0.816271 0.212216

loop_
_geom_bond_atom_site_label_1
_geom_bond_atom_site_label_2
_ccdc_geom_bond_type
C16   N2    A    
C4    O8    A    
C13   N2    A    
N3    H9    S    
C5    H1    S    
Cu1   O8    S    
C14   N1    A    
C6    H2    S    
Cu2   O7    S    
C15   N1    A    
C13   C15   A    
C3    O7    A    
C2    O2    A    
C1    O1    A    
Cu1   Cu2   S    
C7    N3    S    
Cu2   N2    S    
N3    H10   S    
C10   H4    S    
C9    C11   A    
C9    H3    S    
C5    C6    D    
C1    C12   S    
Cu1   O5    S    
C8    C11   A    
Cu2   O2    S    
C2    C11   S    
C10   C12   A    
N4    H12   S    
N4    H11   S    
C14   C16   A    
Cu2   O6    S    
C16   H8    S    
C7    C12   A    
C4    O6    A    
C15   H7    S    
C4    C6    S    
C3    O5    A    
Cu1   N1    S    
C1    O3    A    
Cu1   O1    S    
C13   H5    S    
C2    O4    A    
C14   H6    S    
C7    C9    A    
Cu1   O4    S    
Cu2   O3    S    
C8    N4    S    
C8    C10   A    
C3    C5    S    
