data_mof_unit_12878.cif
_audit_creation_date              2012-12-10T17:24:41-0500
_audit_creation_method            fapswitch 2.2
_symmetry_space_group_name_H-M    P1
_symmetry_Int_Tables_number       1
_space_group_crystal_system       triclinic
_cell_length_a                    23.458731
_cell_length_b                    10.896419
_cell_length_c                    9.664649
_cell_angle_alpha                 90.627454
_cell_angle_beta                  90.915824
_cell_angle_gamma                 94.400833
_cell_volume                      2462.65833624

loop_
_atom_site_label
_atom_site_type_symbol
_atom_type_description
_atom_site_fract_x
_atom_site_fract_y
_atom_site_fract_z
_atom_type_partial_charge
C1    C     C_R   0.493481 0.262634 0.499864 0.858016
C2    C     C_R   0.966652 0.447071 0.256279 0.693061
C3    C     C_R   0.025987 0.445671 0.257024 -0.175880
C4    C     C_R   0.057913 0.467655 0.379902 -0.078001
C5    C     C_R   0.029691 0.490497 0.504183 -0.090128
C6    C     C_R   0.061661 0.513563 0.627970 -0.227031
C7    C     C_R   0.032857 0.534967 0.751682 0.567123
C8    C     C_R   0.973352 0.533917 0.752220 0.603862
C9    C     C_R   0.117677 0.468059 0.381425 0.584175
C10   C     C_R   0.121664 0.515209 0.623586 0.618034
C11   C     C_R   0.241375 0.605284 0.456383 0.164266
C12   C     C_R   0.391453 0.501022 0.499103 0.804410
C13   C     C_R   0.301867 0.608433 0.453835 0.104836
C14   C     C_R   0.329252 0.503786 0.497235 -0.062210
C15   C     C_R   0.297178 0.398878 0.541765 -0.199283
C16   C     C_R   0.237647 0.393550 0.541700 0.160852
C17   C     C_R   0.209460 0.497034 0.499514 0.300754
C18   C     C_R   0.754903 0.387711 0.464141 0.636571
C19   C     C_R   0.695517 0.390207 0.461931 0.448956
C20   C     C_R   0.670482 0.497229 0.502891 -0.367246
C21   C     C_R   0.704956 0.602230 0.544638 0.475584
C22   C     C_R   0.764321 0.600381 0.544300 -0.229206
C23   C     C_R   0.500625 0.738468 0.500778 0.784516
C24   C     C_R   0.789662 0.493231 0.504369 0.004927
C25   C     C_R   0.472140 0.116249 0.757628 -0.157538
C26   C     C_R   0.490553 0.066567 0.880645 -0.093109
C27   C     C_R   0.521883 0.963232 0.875934 0.198559
C28   C     C_R   0.527712 0.901789 0.750039 -0.090287
C29   C     C_R   0.503804 0.944249 0.626923 0.005566
C30   C     C_R   0.485645 0.063936 0.628880 0.069706
C31   C     C_R   0.483993 0.127746 0.502584 -0.182343
C32   C     C_R   0.479836 0.060414 0.378489 -0.225115
C33   C     C_R   0.482003 0.933338 0.379727 0.563248
C34   C     C_R   0.608502 0.499183 0.500949 0.950513
C35   C     C_R   0.497852 0.873853 0.502150 -0.207774
C36   C     C_R   0.597232 0.617971 0.143089 0.248875
C37   C     C_R   0.648322 0.622164 0.069653 -0.153677
C38   C     C_R   0.645329 0.634210 0.927834 -0.178172
C39   C     C_R   0.592536 0.617934 0.861358 -0.075650
C40   C     C_R   0.545367 0.559096 0.927727 0.012279
C41   C     C_R   0.546089 0.560266 0.076729 0.061253
C42   C     C_R   0.456838 0.442549 0.071375 0.604663
C43   C     C_R   0.456614 0.443445 0.924290 0.582057
C44   C     C_R   0.880994 0.510310 0.626460 0.674352
C45   C     C_R   0.877949 0.473439 0.382178 0.691534
C46   C     C_R   0.937723 0.469982 0.379636 -0.141997
C47   C     C_R   0.969421 0.490651 0.504337 -0.165600
C48   C     C_R   0.941034 0.511912 0.628980 -0.233873
Cu1   Cu    Cu3+1 0.500000 0.499990 0.640660 1.007798
Cu2   Cu    Cu3+1 0.500000 0.500010 0.359340 1.048475
H1    H     H_    0.790789 0.682344 0.574669 0.223223
H2    H     H_    0.473856 0.105696 0.280652 0.191750
H3    H     H_    0.446872 0.194498 0.764223 0.218350
H4    H     H_    0.481852 0.110690 0.978252 0.158052
H5    H     H_    0.553406 0.825269 0.748922 0.153166
H6    H     H_    0.046843 0.427800 0.160447 0.243209
H7    H     H_    0.688630 0.651020 0.121136 0.180774
H8    H     H_    0.682873 0.667358 0.871612 0.216510
H9    H     H_    0.589847 0.654026 0.759918 0.209022
H10   H     H_    0.318831 0.319477 0.574964 0.170127
N1    N     N_R   0.850929 0.492015 0.504382 -0.444803
N2    N     N_R   0.148110 0.492720 0.501682 -0.480810
N3    N     N_R   0.500540 0.501210 0.147910 -0.269586
N4    N     N_R   0.500560 0.501290 0.852040 -0.270732
O1    O     O_R   0.500000 0.319640 0.618810 -0.575275
O2    O     O_2   0.846925 0.459729 0.263491 -0.395397
O3    O     O_2   0.145349 0.445058 0.263686 -0.481246
O4    O     O_2   0.153566 0.539269 0.739473 -0.424982
O5    O     O_R   0.500000 0.319660 0.381240 -0.546943
O6    O     O_R   0.417880 0.499950 0.618810 -0.518721
O7    O     O_R   0.417880 0.499980 0.381240 -0.513498
O8    O     O_R   0.500000 0.680340 0.618760 -0.611245
O9    O     O_R   0.500000 0.680360 0.381190 -0.539008
O10   O     O_R   0.582120 0.500020 0.618760 -0.587556
O11   O     O_R   0.582120 0.500050 0.381190 -0.571596
O12   O     O_2   0.852635 0.525881 0.744969 -0.412236
F1    F     F_    0.937981 0.424775 0.134378 -0.535030
F2    F     F_    0.662345 0.287889 0.422110 -0.600192
F3    F     F_    0.681178 0.706934 0.582663 -0.673542
C49   C     C_3   0.546782 0.913467 0.003992 -0.793955
H11   H     H_    0.541276 0.974202 0.095005 0.263899
H12   H     H_    0.524546 0.821607 0.021079 0.255612
H13   H     H_    0.593196 0.904262 0.990651 0.235475
F4    F     F_    0.468142 0.869682 0.261004 -0.684611
F5    F     F_    0.412889 0.380816 0.136540 -0.611416
C50   C     C_3   0.597136 0.728638 0.239600 -0.729455
H14   H     H_    0.631172 0.801381 0.214108 0.212684
H15   H     H_    0.557900 0.775372 0.225554 0.272817
H16   H     H_    0.605426 0.707989 0.349111 0.249629
F6    F     F_    0.411452 0.385503 0.855181 -0.637027
F7    F     F_    0.061869 0.557028 0.873272 -0.566349
F8    F     F_    0.947822 0.556032 0.874141 -0.519964
C51   C     C_3   0.211389 0.717905 0.414455 -0.746921
H17   H     H_    0.164310 0.706046 0.423666 0.231785
H18   H     H_    0.226313 0.797445 0.481812 0.227731
H19   H     H_    0.220816 0.740306 0.305032 0.251377
C52   C     C_3   0.336105 0.724330 0.408226 -0.744278
H20   H     H_    0.382821 0.717258 0.412239 0.237130
H21   H     H_    0.324367 0.745497 0.299864 0.259236
H22   H     H_    0.327270 0.802842 0.476645 0.220791
C53   C     C_3   0.205787 0.275709 0.586739 -0.736801
H23   H     H_    0.158719 0.278068 0.578364 0.232394
H24   H     H_    0.218097 0.198120 0.521006 0.227348
H25   H     H_    0.217169 0.257442 0.696155 0.253602
F9    F     F_    0.778713 0.282508 0.428252 -0.567219

loop_
_geom_bond_atom_site_label_1
_geom_bond_atom_site_label_2
_ccdc_geom_bond_type
C53   H23   S    
C15   H10   S    
C19   C20   A    
C9    O3    S    
C52   H20   S    
C7    C8    A    
C45   C46   A    
C2    C46   A    
C5    C47   A    
C26   C27   A    
C29   C30   A    
Cu1   O1    S    
C18   C24   A    
C36   C37   A    
Cu2   O5    S    
C25   H3    S    
C30   C31   A    
C50   H15   S    
C15   C16   A    
C1    C31   S    
C18   C19   A    
C44   O12   S    
C32   H2    S    
C38   H8    S    
C11   C17   A    
C31   C32   A    
C16   C17   A    
Cu1   O8    S    
C1    O1    A    
C8    F8    S    
C34   O11   A    
C20   C34   S    
C11   C51   S    
C39   H9    S    
C51   H18   S    
Cu1   N4    S    
C21   C22   A    
Cu2   N3    S    
C36   C41   A    
C10   N2    A    
C23   O9    A    
C49   H13   S    
C26   H4    S    
C52   H21   S    
C28   H5    S    
C43   N4    A    
C38   C39   A    
C43   F6    S    
C9    N2    A    
C49   H12   S    
C27   C49   S    
Cu2   O9    S    
C39   C40   A    
C50   H14   S    
C4    C5    A    
C36   C50   S    
C25   C26   A    
C1    O5    A    
C19   F2    S    
Cu2   O7    S    
C8    C48   A    
C37   C38   A    
C17   N2    S    
C3    H6    S    
C47   C48   A    
C7    F7    S    
C21   F3    S    
C42   F5    S    
C34   O10   A    
C24   N1    S    
C40   C41   A    
C12   O7    A    
C12   C14   S    
C53   H25   S    
C23   C35   S    
Cu1   O6    S    
C22   C24   A    
C42   C43   A    
C41   N3    A    
C3    C4    A    
C45   O2    S    
C52   H22   S    
C25   C30   A    
C12   O6    A    
C46   C47   A    
C28   C29   A    
C14   C15   A    
C23   O8    A    
C49   H11   S    
C50   H16   S    
C6    C10   A    
C6    C7    A    
C10   O4    S    
C44   N1    A    
C51   H19   S    
C51   H17   S    
C29   C35   A    
C40   N4    A    
C32   C33   A    
C2    C3    A    
C18   F9    S    
C2    F1    S    
Cu2   O11   S    
C11   C13   A    
C5    C6    A    
C45   N1    A    
C33   C35   A    
C13   C52   S    
C33   F4    S    
C16   C53   S    
C20   C21   A    
C53   H24   S    
Cu1   Cu2   S    
C27   C28   A    
Cu1   O10   S    
C4    C9    A    
C13   C14   A    
C42   N3    A    
C37   H7    S    
C44   C48   A    
C22   H1    S    
