data_mof_unit_26316.cif
_audit_creation_date              2013-03-05T16:36:35-0500
_audit_creation_method            fapswitch 2.2
_symmetry_space_group_name_H-M    P1
_symmetry_Int_Tables_number       1
_space_group_crystal_system       triclinic
_cell_length_a                    19.225999
_cell_length_b                    18.417027
_cell_length_c                    10.595003
_cell_angle_alpha                 88.86695
_cell_angle_beta                  89.55171
_cell_angle_gamma                 89.667785
_cell_volume                      3750.63141366

loop_
_atom_site_label
_atom_site_type_symbol
_atom_site_description
_atom_site_fract_x
_atom_site_fract_y
_atom_site_fract_z
_atom_type_partial_charge
O1    O     O_R   0.398180 0.560840 0.499970 -0.615573
O2    O     O_R   0.601820 0.439160 0.500030 -0.606094
O3    O     O_R   0.601820 0.560840 0.500030 -0.601650
O4    O     O_R   0.398180 0.439160 0.499970 -0.584670
C1    C     C_R   0.365823 0.500290 0.500180 0.985607
C2    C     C_R   0.634188 0.499794 0.500200 1.020898
O5    O     O_R   0.499990 0.560810 0.316770 -0.615518
O6    O     O_R   0.500010 0.439190 0.683230 -0.612072
O7    O     O_R   0.500010 0.560810 0.683230 -0.641932
O8    O     O_R   0.499990 0.439190 0.316770 -0.648260
C3    C     C_R   0.509201 0.500885 0.259357 0.969780
C4    C     C_R   0.488074 0.499118 0.739166 0.933330
Zn1   Zn    Zn3+2 0.500000 0.581210 0.500000 0.993579
Zn2   Zn    Zn3+2 0.500000 0.418790 0.500000 1.002096
H1    H     H_    0.565926 0.257199 0.103434 0.142150
H2    H     H_    0.426008 0.741895 0.891066 0.140802
H3    H     H_    0.492228 0.246581 0.914113 0.142269
H4    H     H_    0.498540 0.753489 0.081602 0.141039
C5    C     C_R   0.516029 0.638380 0.102596 -0.076286
C6    C     C_R   0.475421 0.361847 0.894455 -0.071733
C7    C     C_R   0.440245 0.626168 0.882207 -0.090729
C8    C     C_R   0.552456 0.373001 0.113565 -0.090670
C9    C     C_R   0.488919 0.700473 0.043208 -0.164379
C10   C     C_R   0.502165 0.299382 0.953093 -0.164109
C11   C     C_R   0.448775 0.694061 0.935505 -0.133328
C12   C     C_R   0.542986 0.305265 0.060076 -0.140785
C13   C     C_R   0.471562 0.563498 0.937234 0.078819
C14   C     C_R   0.520853 0.436055 0.060201 0.071539
C15   C     C_R   0.502318 0.568321 0.055734 0.109216
C16   C     C_R   0.489694 0.431524 0.942112 0.113727
C17   C     C_R   0.475025 0.496772 0.874732 -0.191641
C18   C     C_R   0.518336 0.503031 0.122731 -0.170655
H5    H     H_    0.549247 0.646187 0.183004 0.190082
H6    H     H_    0.442765 0.354999 0.812936 0.194379
H7    H     H_    0.409352 0.622848 0.797489 0.149761
H8    H     H_    0.584704 0.375792 0.196628 0.158831
C19   C     C_R   0.744905 0.459511 0.594993 0.239702
C20   C     C_R   0.255899 0.546896 0.413551 0.244803
C21   C     C_R   0.254936 0.469182 0.604084 0.234047
C22   C     C_R   0.745420 0.539136 0.406611 0.242533
C23   C     C_R   0.817788 0.460689 0.596605 -0.105293
C24   C     C_R   0.183884 0.557048 0.425100 -0.110378
C25   C     C_R   0.183095 0.479505 0.616213 -0.095720
C26   C     C_R   0.818063 0.540470 0.408270 -0.104022
C27   C     C_R   0.853817 0.502415 0.504546 -0.105582
C28   C     C_R   0.147632 0.521812 0.524705 -0.107808
C29   C     C_R   0.709364 0.499456 0.500754 -0.308495
C30   C     C_R   0.290696 0.502320 0.502406 -0.296231
C31   C     C_R   0.959289 0.554746 0.595962 -0.184046
C32   C     C_R   0.041773 0.471864 0.433905 -0.180111
C33   C     C_R   0.031154 0.560614 0.600216 -0.191185
C34   C     C_R   0.970074 0.466611 0.428686 -0.193288
H9    H     H_    0.927175 0.586897 0.658359 0.131588
H10   H     H_    0.073731 0.439572 0.371432 0.133468
H11   H     H_    0.054741 0.597508 0.665444 0.122503
H12   H     H_    0.946443 0.430527 0.362032 0.127638
C35   C     C_R   0.072164 0.518581 0.519934 0.169351
C36   C     C_R   0.929080 0.507678 0.510293 0.167300
C37   C     C_R   0.535458 0.724709 0.590792 0.036301
C38   C     C_R   0.464610 0.275281 0.409132 0.045561
C39   C     C_R   0.464326 0.727106 0.409383 0.033983
C40   C     C_R   0.535494 0.272909 0.590876 0.036964
H13   H     H_    0.563270 0.693767 0.662284 0.143700
H14   H     H_    0.436893 0.306214 0.337504 0.143483
H15   H     H_    0.436441 0.698010 0.338141 0.174862
H16   H     H_    0.563283 0.302018 0.662248 0.173390
C41   C     C_R   0.536009 0.800750 0.592628 -0.275045
C42   C     C_R   0.463996 0.199240 0.407409 -0.276117
C43   C     C_R   0.463635 0.803214 0.407503 -0.269835
C44   C     C_R   0.536122 0.196799 0.592858 -0.271424
H17   H     H_    0.563767 0.827428 0.666978 0.138585
H18   H     H_    0.436304 0.172546 0.332993 0.138229
H19   H     H_    0.435766 0.831855 0.333218 0.142944
H20   H     H_    0.563864 0.168158 0.667303 0.143200
C45   C     C_R   0.499836 0.841347 0.500017 0.115774
C46   C     C_R   0.500026 0.158659 0.500221 0.115678
N1    N     N_R   0.500000 0.689440 0.500000 -0.106552
N2    N     N_R   0.500000 0.310560 0.500000 -0.104539
C47   C     C_R   0.439941 0.962718 0.466786 -0.183016
C48   C     C_R   0.559897 0.037296 0.533530 -0.182140
C49   C     C_R   0.559859 0.961148 0.533372 -0.176454
C50   C     C_R   0.439983 0.038867 0.466923 -0.177153
H21   H     H_    0.392418 0.935160 0.442654 0.137619
H22   H     H_    0.607415 0.064859 0.557670 0.138337
H23   H     H_    0.607359 0.932399 0.557407 0.137226
H24   H     H_    0.392492 0.067626 0.442860 0.137014
C51   C     C_R   0.499963 0.077328 0.500286 0.121516
C52   C     C_R   0.499879 0.922682 0.500012 0.121336
N3    N     N_R   0.706959 0.418659 0.689720 0.208814
O9    O     O_R   0.661026 0.450707 0.760597 -0.408934
O10   O     O_R   0.718800 0.349510 0.706289 -0.399712
N4    N     N_R   0.293978 0.582019 0.312154 0.209835
O11   O     O_R   0.289644 0.652021 0.294576 -0.403043
O12   O     O_R   0.334583 0.544284 0.239311 -0.407876
N5    N     N_R   0.292088 0.428016 0.698495 0.191437
O13   O     O_R   0.314677 0.363056 0.674010 -0.407895
O14   O     O_R   0.296858 0.452264 0.812573 -0.411979
N6    N     N_R   0.708257 0.576110 0.306997 0.209580
O15   O     O_R   0.668723 0.539686 0.232265 -0.455147
O16   O     O_R   0.716493 0.645457 0.286932 -0.393776
C53   C     C_R   0.855913 0.417799 0.694024 0.181984
C54   C     C_R   0.850513 0.435805 0.821917 -0.100667
C55   C     C_R   0.882876 0.392285 0.914029 -0.128714
C56   C     C_R   0.920520 0.330659 0.879097 -0.097835
C57   C     C_R   0.927077 0.313161 0.751834 -0.126438
C58   C     C_R   0.894848 0.356493 0.659430 -0.097365
H25   H     H_    0.820559 0.482846 0.850092 0.140387
H26   H     H_    0.878271 0.405818 0.012583 0.119903
H27   H     H_    0.944779 0.296523 0.950651 0.114915
H28   H     H_    0.956599 0.265632 0.724914 0.122490
H29   H     H_    0.899045 0.341543 0.561313 0.119587
C59   C     C_R   0.146862 0.604782 0.333062 0.182076
C60   C     C_R   0.117273 0.670416 0.372816 -0.099398
C61   C     C_R   0.087845 0.718745 0.284783 -0.138588
C62   C     C_R   0.087443 0.701692 0.156861 -0.104866
C63   C     C_R   0.115346 0.635708 0.117004 -0.121677
C64   C     C_R   0.145073 0.587288 0.204683 -0.092888
H30   H     H_    0.118587 0.684863 0.471363 0.118534
H31   H     H_    0.065830 0.769689 0.315574 0.121765
H32   H     H_    0.065108 0.739457 0.088710 0.115032
H33   H     H_    0.114586 0.622536 0.017999 0.117792
H34   H     H_    0.167734 0.536874 0.172575 0.141308
C65   C     C_R   0.145627 0.444819 0.723988 0.187604
C66   C     C_R   0.134327 0.369607 0.726821 -0.091580
C67   C     C_R   0.102976 0.336453 0.832436 -0.129534
C68   C     C_R   0.082613 0.378200 0.935300 -0.093232
C69   C     C_R   0.092885 0.453224 0.932253 -0.138127
C70   C     C_R   0.124822 0.486469 0.827361 -0.099905
H35   H     H_    0.150500 0.336765 0.648037 0.133235
H36   H     H_    0.094628 0.278378 0.834737 0.123339
H37   H     H_    0.058726 0.352459 0.017327 0.113916
H38   H     H_    0.076662 0.485404 0.011693 0.121837
H39   H     H_    0.134235 0.544362 0.827202 0.111497
C71   C     C_R   0.856202 0.578799 0.305260 0.187555
C72   C     C_R   0.863496 0.546355 0.187132 -0.114660
C73   C     C_R   0.896864 0.583478 0.087781 -0.141021
C74   C     C_R   0.922135 0.653476 0.105494 -0.096890
C75   C     C_R   0.915046 0.686003 0.223124 -0.116686
C76   C     C_R   0.882675 0.648588 0.323279 -0.083222
H40   H     H_    0.842901 0.492651 0.172257 0.123660
H41   H     H_    0.902590 0.558343 0.996807 0.124555
H42   H     H_    0.947168 0.682503 0.028004 0.114763
H43   H     H_    0.934445 0.740317 0.236554 0.120850
H44   H     H_    0.877090 0.674308 0.413873 0.121384

loop_
_geom_bond_atom_site_label_1
_geom_bond_atom_site_label_2
_geom_bond_distance
_ccdc_geom_bond_type
C22   C29   1.405605 A    
C57   H28   1.082258 S    
C53   C54   1.404287 A    
C13   C15   1.396604 A    
N5    O13   1.300655 A    
C48   H22   1.082555 S    
O3    C2    1.281852 A    
C37   N1    1.360921 A    
C61   C62   1.397373 A    
C65   C66   1.403065 A    
C6    C16   1.417337 A    
O5    C3    1.281398 A    
C38   N2    1.360929 A    
C32   H10   1.083654 S    
O1    C1    1.280041 A    
C10   C12   1.390046 A    
C20   C24   1.400769 A    
C48   C51   1.407688 A    
C75   H43   1.082002 S    
C22   N6    1.437290 S    
C16   C17   1.413685 A    
C41   H17   1.082438 S    
C62   C63   1.397153 A    
C20   N4    1.440220 S    
H2    C11   1.082458 S    
C63   C64   1.398040 A    
C40   C44   1.401429 A    
C24   C28   1.409702 A    
O7    Zn1   1.970038 S    
C69   H38   1.081850 S    
C47   C52   1.407746 A    
C24   C59   1.483276 S    
C37   C41   1.401064 A    
C67   H36   1.082231 S    
C6    C10   1.394164 A    
C39   N1    1.360829 A    
C31   C33   1.387680 A    
C44   H20   1.082455 S    
C32   C34   1.384045 A    
C43   H19   1.082450 S    
C55   H26   1.081134 S    
C33   C35   1.397463 A    
C19   C29   1.407433 A    
C22   C26   1.397243 A    
C20   C30   1.407392 A    
C61   H31   1.082221 S    
O3    Zn1   1.991077 S    
C42   H18   1.082449 S    
C6    H6    1.081555 S    
C9    C11   1.389937 A    
C7    C13   1.416115 A    
C8    C14   1.417249 A    
O4    Zn2   1.991080 S    
C59   C60   1.403774 A    
O2    C2    1.281575 A    
C56   C57   1.397087 A    
C25   C28   1.409363 A    
C58   H29   1.082925 S    
C26   C71   1.479907 S    
C72   H40   1.082382 S    
C1    C30   1.444690 S    
Zn1   N1    1.993273 S    
C27   C36   1.452641 S    
H3    C10   1.082564 S    
C2    C29   1.445361 S    
C40   H16   1.081828 S    
C13   C17   1.408430 A    
H4    C9    1.082594 S    
C72   C73   1.397533 A    
C63   H33   1.081537 S    
C71   C76   1.402261 A    
C48   C49   1.402466 A    
H1    C12   1.082470 S    
C21   C25   1.398407 A    
C50   H24   1.082546 S    
C31   C36   1.399224 A    
C5    C9    1.394669 A    
C64   H34   1.083091 S    
C73   H41   1.082066 S    
C39   H15   1.081655 S    
C76   H44   1.083037 S    
C14   C18   1.412064 A    
O6    C4    1.281738 A    
N4    O12   1.301364 A    
C50   C51   1.407926 A    
C54   H25   1.083091 S    
C46   C51   1.497871 S    
C21   N5    1.435436 S    
C34   C36   1.396096 A    
C3    C18   1.456589 S    
N6    O15   1.300376 A    
N6    O16   1.300962 A    
O8    C3    1.290642 A    
C4    C17   1.455975 S    
C44   C46   1.407809 A    
C67   C68   1.398277 A    
O1    Zn1   1.995355 S    
C69   C70   1.397762 A    
C5    C15   1.418502 A    
C25   C65   1.481376 S    
C26   C27   1.407597 A    
C60   C61   1.397098 A    
C57   C58   1.397201 A    
C39   C43   1.401405 A    
C53   C58   1.404203 A    
C7    C11   1.393200 A    
O6    Zn2   1.984626 S    
C32   C35   1.399156 A    
C40   N2    1.360865 A    
C5    H5    1.081075 S    
C73   C74   1.396947 A    
C47   C50   1.402489 A    
N5    O14   1.300871 A    
C71   C72   1.403195 A    
C7    H7    1.083106 S    
C42   C46   1.407475 A    
C8    H8    1.082692 S    
C74   C75   1.398785 A    
C37   H13   1.081731 S    
C19   N3    1.438958 S    
C38   H14   1.081734 S    
C14   C16   1.395591 A    
C15   C18   1.417715 A    
C28   C35   1.453816 S    
C70   H39   1.082470 S    
C47   H21   1.082545 S    
C65   C70   1.403828 A    
C59   C64   1.404728 A    
C68   H37   1.082096 S    
C68   C69   1.396596 A    
C31   H9    1.083387 S    
O4    C1    1.283136 A    
N3    O10   1.301118 A    
N4    O11   1.301249 A    
C23   C53   1.483055 S    
C66   H35   1.083061 S    
C43   C45   1.407822 A    
C33   H11   1.082588 S    
Zn2   N2    1.993273 S    
C19   C23   1.401793 A    
C54   C55   1.398136 A    
O2    Zn2   1.995352 S    
O7    C4    1.291918 A    
C49   C52   1.407967 A    
C75   C76   1.397820 A    
C60   H30   1.083084 S    
C34   H12   1.083447 S    
C45   C52   1.497966 S    
O5    Zn1   1.984626 S    
C41   C45   1.407510 A    
C38   C42   1.401043 A    
C62   H32   1.082159 S    
C8    C12   1.393835 A    
C55   C56   1.397089 A    
C23   C27   1.409843 A    
C56   H27   1.082024 S    
C66   C67   1.398196 A    
N3    O9    1.301264 A    
C49   H23   1.082534 S    
C74   H42   1.082084 S    
O8    Zn2   1.970038 S    
C21   C30   1.404614 A    
