data_mof_unit_24776.cif
_audit_creation_date              2012-12-10T20:38:18-0500
_audit_creation_method            fapswitch 2.2
_symmetry_space_group_name_H-M    P1
_symmetry_Int_Tables_number       1
_space_group_crystal_system       triclinic
_cell_length_a                    9.925702
_cell_length_b                    10.746036
_cell_length_c                    16.917245
_cell_angle_alpha                 92.963558
_cell_angle_beta                  86.25028
_cell_angle_gamma                 88.282984
_cell_volume                      1797.14858627

loop_
_atom_site_label
_atom_site_type_symbol
_atom_type_description
_atom_site_fract_x
_atom_site_fract_y
_atom_site_fract_z
_atom_type_partial_charge
C1    C     C_R   0.499059 0.739585 0.495111 0.981176
C2    C     C_R   0.361477 0.468103 0.781911 -0.111400
C3    C     C_R   0.410918 0.359688 0.153517 0.448831
C4    C     C_R   0.406246 0.412728 0.230340 -0.269211
C5    C     C_R   0.646410 0.449765 0.217152 -0.279192
C6    C     C_R   0.652211 0.400064 0.138702 0.465466
C7    C     C_R   0.533500 0.356258 0.107556 -0.024253
C8    C     C_2   0.486580 0.442362 0.984899 0.453795
C9    C     C_2   0.526998 0.340500 0.022105 0.046538
C10   C     C_R   0.523510 0.456738 0.262827 -0.118209
C11   C     C_R   0.379208 0.943134 0.494223 -0.057763
C12   C     C_R   0.483993 0.488040 0.651718 1.028148
C13   C     C_R   0.498135 0.870333 0.480106 -0.207933
C14   C     C_R   0.616678 0.929162 0.450299 0.490918
C15   C     C_R   0.620072 0.059055 0.456381 -0.179283
C16   C     C_R   0.503663 0.128534 0.484324 -0.124256
C17   C     C_R   0.382491 0.069533 0.494297 0.029800
C18   C     C_3   0.265146 0.094118 0.553081 0.156448
C19   C     C_3   0.259080 0.952355 0.554596 0.240360
C20   C     C_R   0.920023 0.545469 0.564350 -0.016490
C21   C     C_R   0.936189 0.432809 0.442766 0.010120
C22   C     C_R   0.081001 0.426380 0.445569 0.016638
C23   C     C_R   0.502109 0.260334 0.496588 0.965094
C24   C     C_R   0.061327 0.539628 0.566447 0.034002
C25   C     C_3   0.061635 0.659100 0.615189 -0.360367
C26   C     C_3   0.908920 0.673519 0.603736 0.281325
C27   C     C_R   0.517347 0.494176 0.347135 0.856832
C28   C     C_R   0.482903 0.458384 0.735346 -0.194461
C29   C     C_R   0.603958 0.421889 0.769748 -0.143371
C30   C     C_R   0.605431 0.426530 0.852705 0.402021
C31   C     C_R   0.482500 0.440052 0.898657 -0.114118
C32   C     C_R   0.358871 0.456796 0.863155 0.420868
H1    H     H_    0.712876 0.104614 0.439874 0.182732
H2    H     H_    0.178102 0.141790 0.527551 0.158550
H3    H     H_    0.310077 0.419403 0.264299 0.163002
H4    H     H_    0.126989 0.725400 0.586026 0.255887
H5    H     H_    0.736463 0.485033 0.241821 0.199597
H6    H     H_    0.267546 0.482469 0.754999 0.188236
N1    N     N_R   0.857140 0.500860 0.500530 -0.145656
N2    N     N_R   0.142780 0.500820 0.500530 -0.142192
O1    O     O_R   0.385310 0.683210 0.499990 -0.600029
O2    O     O_R   0.614650 0.683240 0.500000 -0.561009
O3    O     O_R   0.371780 0.500000 0.615800 -0.604627
O4    O     O_R   0.601120 0.500040 0.615800 -0.612992
O5    O     O_R   0.385350 0.316760 0.500000 -0.643200
O6    O     O_R   0.614690 0.316790 0.500010 -0.632972
O7    O     O_R   0.398880 0.499960 0.384200 -0.658724
O8    O     O_R   0.628220 0.500000 0.384200 -0.663386
Zn1   Zn    Zn3+2 0.346870 0.499980 0.499990 0.971402
Zn2   Zn    Zn3+2 0.653130 0.500020 0.500010 0.997863
C33   C     C_2   0.721875 0.362522 0.721403 0.526562
H7    H     H_    0.824686 0.380537 0.735346 0.009950
O9    O     O_2   0.704505 0.287516 0.666588 -0.507923
O10   O     O_3   0.770128 0.398023 0.090440 -0.702826
H8    H     H_    0.843276 0.432660 0.121286 0.361957
O11   O     O_3   0.730334 0.864609 0.417127 -0.709320
H9    H     H_    0.700808 0.788263 0.388756 0.332853
O12   O     O_3   0.304324 0.152914 0.623696 -0.729518
H10   H     H_    0.219339 0.174859 0.656228 0.337388
C34   C     C_2   0.280461 0.904849 0.635459 0.625139
H11   H     H_    0.201970 0.923548 0.682596 0.108016
O13   O     O_2   0.384551 0.849425 0.649636 -0.524426
O14   O     O_3   0.139784 0.909501 0.523486 -0.794366
H12   H     H_    0.135506 0.936337 0.468333 0.367735
C35   C     C_2   0.871480 0.366145 0.377508 0.531396
H13   H     H_    0.779328 0.317497 0.388815 0.084214
O15   O     O_2   0.921691 0.364706 0.309598 -0.586855
C36   C     C_2   0.160745 0.324756 0.399110 0.426034
H14   H     H_    0.265807 0.332036 0.382794 0.112156
O16   O     O_2   0.110399 0.225384 0.382140 -0.578737
C37   C     C_2   0.094660 0.636271 0.698947 0.407050
H15   H     H_    0.051946 0.558084 0.728903 0.053760
O17   O     O_2   0.167763 0.705673 0.734392 -0.527457
C38   C     C_2   0.813353 0.682224 0.677210 0.628980
H16   H     H_    0.817746 0.612363 0.721003 -0.110036
O18   O     O_2   0.729014 0.767510 0.687935 -0.457161
O19   O     O_3   0.878855 0.766595 0.551117 -0.615039
H17   H     H_    0.936331 0.751034 0.501049 0.376301
C39   C     C_2   0.556567 0.213637 0.984247 0.500753
H18   H     H_    0.603488 0.143058 0.018061 0.081566
O20   O     O_2   0.525731 0.185003 0.917194 -0.524637
O21   O     O_3   0.234378 0.465258 0.905119 -0.716785
H19   H     H_    0.243851 0.441910 0.960316 0.374934
O22   O     O_3   0.295979 0.317565 0.120160 -0.746615
H20   H     H_    0.218284 0.327527 0.160174 0.364301
O23   O     O_3   0.453414 0.552748 0.028981 -0.739238
H21   H     H_    0.431213 0.618139 0.992167 0.358246
O24   O     O_3   0.723448 0.412100 0.890932 -0.712209
H22   H     H_    0.798659 0.445933 0.858270 0.333301

loop_
_geom_bond_atom_site_label_1
_geom_bond_atom_site_label_2
_ccdc_geom_bond_type
C27   O8    A    
C10   C27   S    
C14   O11   S    
C23   O5    A    
C5    H5    S    
O7    Zn1   S    
O19   H17   S    
C11   C19   S    
C38   O18   D    
C12   C28   S    
C34   O13   D    
C28   C29   A    
C12   O3    A    
C3    C7    A    
C5    C6    A    
C16   C17   A    
O4    Zn2   S    
N2    Zn1   S    
O11   H9    S    
C2    C32   A    
C18   C19   S    
C9    C39   S    
C24   N2    A    
C18   O12   S    
C20   C24   A    
C19   O14   S    
C36   H14   S    
C35   O15   D    
C25   C37   S    
O8    Zn2   S    
C4    H3    S    
C23   O6    A    
C13   C14   A    
C6    O10   S    
O1    Zn1   S    
C26   O19   S    
C38   H16   S    
C33   H7    S    
C24   C25   S    
C39   O20   D    
C20   N1    A    
O23   H21   S    
O3    Zn1   S    
C25   C26   S    
O14   H12   S    
C34   H11   S    
C33   O9    D    
C29   C30   A    
C2    H6    S    
C31   C32   A    
C21   N1    A    
O5    Zn1   S    
C22   N2    A    
C17   C18   S    
C8    C9    D    
O22   H20   S    
C18   H2    S    
C22   C36   S    
O2    Zn2   S    
C1    O1    A    
O21   H19   S    
C16   C23   S    
C1    C13   S    
C4    C10   A    
C3    C4    A    
C37   O17   D    
C29   C33   S    
C27   O7    A    
C7    C9    S    
O10   H8    S    
C11   C17   A    
C21   C35   S    
C8    C31   S    
C6    C7    A    
C19   C34   S    
C32   O21   S    
O6    Zn2   S    
O12   H10   S    
C5    C10   A    
C12   O4    A    
C11   C13   A    
C30   C31   A    
C20   C26   S    
C26   C38   S    
C8    O23   S    
C25   H4    S    
C39   H18   S    
C1    O2    A    
C37   H15   S    
N1    Zn2   S    
O24   H22   S    
C36   O16   D    
C35   H13   S    
C3    O22   S    
C14   C15   A    
C2    C28   A    
C21   C22   A    
C30   O24   S    
C15   H1    S    
C15   C16   A    
