data_mof_unit_67381.cif
_audit_creation_date              2013-03-05T16:10:59-0500
_audit_creation_method            fapswitch 2.2
_symmetry_space_group_name_H-M    P1
_symmetry_Int_Tables_number       1
_space_group_crystal_system       triclinic
_cell_length_a                    17.328152
_cell_length_b                    28.841536
_cell_length_c                    8.68268
_cell_angle_alpha                 89.911511
_cell_angle_beta                  105.775994
_cell_angle_gamma                 90.063738
_cell_volume                      4175.88684996

loop_
_atom_site_label
_atom_site_type_symbol
_atom_site_description
_atom_site_fract_x
_atom_site_fract_y
_atom_site_fract_z
_atom_type_partial_charge
P1    P     P_3+3 0.171820 0.553000 0.158080 0.574364
P2    P     P_3+3 0.171820 0.447000 0.658080 0.574796
P3    P     P_3+3 0.671820 0.053000 0.158080 0.661039
P4    P     P_3+3 0.671820 0.947000 0.658080 0.660638
O1    O     O_2   0.163830 0.569270 0.980510 -0.299417
O2    O     O_2   0.163830 0.430730 0.480510 -0.298177
O3    O     O_2   0.663830 0.069270 0.980510 -0.316111
O4    O     O_2   0.663830 0.930730 0.480510 -0.318242
O5    O     O_3   0.095420 0.524330 0.188510 -0.318049
O6    O     O_3   0.095420 0.475670 0.688510 -0.317808
O7    O     O_3   0.595420 0.024330 0.188510 -0.277247
O8    O     O_3   0.595420 0.975670 0.688510 -0.277311
O9    O     O_3   0.028940 0.612400 0.656050 -0.321364
O10   O     O_3   0.028940 0.387600 0.156050 -0.322173
O11   O     O_3   0.528940 0.112400 0.656050 -0.305084
O12   O     O_3   0.528940 0.887600 0.156050 -0.306225
O13   O     O_2   0.168181 0.644643 0.825141 -0.254743
O14   O     O_2   0.167684 0.355614 0.327181 -0.253823
O15   O     O_2   0.668022 0.145251 0.821135 -0.270802
O16   O     O_2   0.666173 0.853417 0.324488 -0.273568
O17   O     O_3   0.257763 0.519308 0.170550 -0.620223
O18   O     O_3   0.257613 0.480937 0.670408 -0.620322
O19   O     O_3   0.766648 0.025899 0.203167 -0.596644
O20   O     O_3   0.766804 0.973914 0.703875 -0.596428
O21   O     O_3   0.068590 0.709983 0.684905 -0.592897
O22   O     O_3   0.068705 0.290089 0.186475 -0.592220
O23   O     O_3   0.566028 0.210080 0.683476 -0.594320
O24   O     O_3   0.562344 0.789999 0.180980 -0.593368
H1    H     H_    0.966375 0.682007 0.729164 0.103500
H2    H     H_    0.966616 0.318026 0.230942 0.103519
H3    H     H_    0.464021 0.181598 0.726329 0.108505
H4    H     H_    0.462103 0.819876 0.227152 0.107813
C1    C     C_3   0.957102 0.755405 0.708290 -0.191234
C2    C     C_3   0.957153 0.244633 0.210669 -0.191360
C3    C     C_3   0.454218 0.254874 0.702970 -0.168543
C4    C     C_3   0.448589 0.746839 0.199852 -0.180784
H5    H     H_    0.989437 0.763150 0.833825 0.193451
H6    H     H_    0.989419 0.236915 0.336346 0.193899
H7    H     H_    0.488367 0.262889 0.826756 0.201978
H8    H     H_    0.481609 0.738508 0.323617 0.206429
P5    P     P_3+3 0.829210 0.554130 0.532500 0.595784
P6    P     P_3+3 0.829210 0.445870 0.032500 0.596257
P7    P     P_3+3 0.329210 0.054130 0.532500 0.620354
P8    P     P_3+3 0.329210 0.945870 0.032500 0.620832
P9    P     P_3+3 0.895955 0.654551 0.017583 0.581329
P10   P     P_3+3 0.896118 0.345346 0.518576 0.581363
P11   P     P_3+3 0.395536 0.154538 0.017386 0.564150
P12   P     P_3+3 0.394830 0.845768 0.517926 0.564827
O25   O     O_2   0.837400 0.570350 0.710350 -0.334445
O26   O     O_2   0.837400 0.429650 0.210350 -0.333576
O27   O     O_2   0.337400 0.070350 0.710350 -0.307188
O28   O     O_2   0.337400 0.929650 0.210350 -0.307331
O29   O     O_3   0.972820 0.612580 0.035550 -0.321282
O30   O     O_3   0.972820 0.387420 0.535550 -0.321086
O31   O     O_3   0.472820 0.112580 0.035550 -0.322976
O32   O     O_3   0.472820 0.887420 0.535550 -0.322465
O33   O     O_2   0.845417 0.651095 0.841606 -0.347995
O34   O     O_2   0.845393 0.348666 0.342583 -0.347605
O35   O     O_2   0.346516 0.151148 0.840635 -0.365252
O36   O     O_2   0.345606 0.849700 0.341487 -0.364483
O37   O     O_3   0.749880 0.513652 0.488722 -0.578993
O38   O     O_3   0.749990 0.486366 0.988644 -0.578848
O39   O     O_3   0.256077 0.011942 0.524441 -0.555892
O40   O     O_3   0.256193 0.988141 0.024000 -0.553202
O41   O     O_3   0.936466 0.711220 0.032379 -0.524229
O42   O     O_3   0.937143 0.288809 0.534427 -0.524396
O43   O     O_3   0.434546 0.211790 0.034392 -0.514015
O44   O     O_3   0.432123 0.788191 0.532934 -0.524822
C5    C     C_3   0.010093 0.714582 0.153247 0.373284
C6    C     C_3   0.010731 0.285698 0.655744 0.374320
C7    C     C_3   0.508298 0.215077 0.154589 0.382535
C8    C     C_3   0.505297 0.783457 0.654141 0.375935
H9    H     H_    0.015989 0.689121 0.249957 0.078613
H10   H     H_    0.016627 0.311438 0.751367 0.078018
H11   H     H_    0.514327 0.188735 0.248901 0.074217
H12   H     H_    0.513281 0.809806 0.748497 0.073340
C9    C     C_3   0.026423 0.764020 0.224832 -0.049803
C10   C     C_3   0.027030 0.236448 0.729360 -0.049571
C11   C     C_3   0.524665 0.263833 0.233344 -0.037195
C12   C     C_3   0.516675 0.734565 0.732163 -0.029933
H13   H     H_    0.088835 0.775520 0.235110 0.096451
H14   H     H_    0.089792 0.225188 0.742390 0.094487
H15   H     H_    0.583098 0.278259 0.226526 0.111154
H16   H     H_    0.580714 0.723926 0.764470 0.091806
C13   C     C_3   0.717370 0.493556 0.118205 0.247978
C14   C     C_3   0.717591 0.506182 0.618655 0.247219
C15   C     C_3   0.212692 0.997278 0.866420 0.194497
C16   C     C_3   0.213368 0.002270 0.366994 0.200991
H17   H     H_    0.708671 0.460771 0.178146 0.146824
H18   H     H_    0.708644 0.538876 0.678473 0.145413
H19   H     H_    0.253284 0.000171 0.788710 0.138500
H20   H     H_    0.254791 0.997720 0.291663 0.143706
H21   H     H_    0.757521 0.516636 0.205614 0.108762
H22   H     H_    0.758121 0.483233 0.705999 0.108708
H23   H     H_    0.168262 0.969136 0.822611 0.109176
H24   H     H_    0.170525 0.030891 0.319345 0.107329
C17   C     C_3   0.634624 0.516130 0.059610 -0.082405
C18   C     C_3   0.635091 0.483218 0.560713 -0.079925
C19   C     C_3   0.169623 0.043727 0.866298 -0.039490
C20   C     C_3   0.167749 0.956780 0.369695 -0.043117
H25   H     H_    0.590252 0.489039 0.003703 0.170893
H26   H     H_    0.590213 0.510155 0.505716 0.170524
H27   H     H_    0.144973 0.045511 0.971826 0.142192
H28   H     H_    0.141106 0.956960 0.472696 0.144269
H29   H     H_    0.616959 0.530731 0.163429 0.144951
H30   H     H_    0.617992 0.468194 0.664726 0.143177
H31   H     H_    0.213054 0.072667 0.876534 0.124769
H32   H     H_    0.209918 0.927028 0.386403 0.117903
Ba1   Ba    Ba6+2 0.000400 0.534870 0.845190 1.843009
Ba2   Ba    Ba6+2 0.000400 0.465130 0.345190 1.843406
Ba3   Ba    Ba6+2 0.500400 0.034870 0.845190 1.846352
Ba4   Ba    Ba6+2 0.500400 0.965130 0.345190 1.846939
C21   C     C_3   0.280727 0.489784 0.302984 0.481720
C22   C     C_3   0.279788 0.510936 0.801435 0.481289
C23   C     C_3   0.769382 0.979458 0.249165 0.518135
C24   C     C_3   0.769584 0.020349 0.749453 0.517291
H33   H     H_    0.257429 0.501838 0.402662 0.057325
H34   H     H_    0.256572 0.498971 0.901490 0.058233
H35   H     H_    0.764087 0.975864 0.372775 0.086797
H36   H     H_    0.764176 0.023934 0.872964 0.086637
C25   C     C_3   0.374399 0.490159 0.358106 0.094394
C26   C     C_3   0.373429 0.511339 0.856962 0.096129
C27   C     C_3   0.851540 0.960893 0.242294 0.097146
C28   C     C_3   0.851808 0.038854 0.742714 0.100359
H37   H     H_    0.395300 0.490149 0.249823 0.177998
H38   H     H_    0.394437 0.511497 0.748833 0.179308
H39   H     H_    0.857471 0.966438 0.119775 0.133397
H40   H     H_    0.857600 0.033752 0.619912 0.132923
O45   O     O_3   0.904940 0.476110 0.001150 -0.261456
O46   O     O_3   0.904940 0.523890 0.501150 -0.261313
O47   O     O_3   0.404940 0.976110 0.001150 -0.259697
O48   O     O_3   0.404940 0.023890 0.501150 -0.260897
P13   P     P_3+3 0.104885 0.346172 0.166794 0.608615
P14   P     P_3+3 0.104695 0.653948 0.665378 0.608569
P15   P     P_3+3 0.602349 0.845014 0.163923 0.605043
P16   P     P_3+3 0.603143 0.154591 0.662761 0.603079
C29   C     C_3   0.984759 0.709361 0.655996 0.615455
C30   C     C_3   0.984871 0.290689 0.157876 0.616456
C31   C     C_3   0.482202 0.208859 0.652585 0.600559
C32   C     C_3   0.478576 0.792661 0.151440 0.605359
H41   H     H_    0.967907 0.784429 0.632422 0.200356
H42   H     H_    0.968002 0.215617 0.135152 0.200257
H43   H     H_    0.463748 0.283691 0.625029 0.202798
H44   H     H_    0.457562 0.718080 0.121492 0.199043
H45   H     H_    0.022838 0.764590 0.350115 0.129263
H46   H     H_    0.022374 0.236032 0.853876 0.130588
H47   H     H_    0.531837 0.260669 0.363884 0.106409
H48   H     H_    0.503058 0.734957 0.848979 0.138397
C33   C     C_2   0.838572 0.392381 0.744815 0.079253
C34   C     C_2   0.838343 0.607379 0.243703 0.079292
C35   C     C_2   0.332917 0.894181 0.735424 0.045792
C36   C     C_2   0.333567 0.106040 0.235655 0.045381
C37   C     C_R   0.142017 0.615906 0.397876 -0.347360
C38   C     C_R   0.142722 0.384229 0.899460 -0.352916
C39   C     C_R   0.632291 0.120845 0.379540 -0.367297
C40   C     C_R   0.631691 0.878967 0.879855 -0.361886
C41   C     C_2   0.737823 0.365043 0.875394 0.072982
C42   C     C_2   0.738845 0.634979 0.376347 0.077926
C43   C     C_2   0.234630 0.865661 0.869396 0.139812
C44   C     C_2   0.236070 0.134917 0.370678 0.141443
C45   C     C_2   0.802188 0.396080 0.882889 -0.005038
C46   C     C_2   0.802566 0.603806 0.382611 -0.009919
C47   C     C_2   0.297210 0.897729 0.874883 -0.063832
C48   C     C_2   0.297805 0.102436 0.375223 -0.060864
C49   C     C_2   0.827263 0.353643 0.650075 0.196732
C50   C     C_2   0.826984 0.646147 0.148796 0.197232
C51   C     C_2   0.322785 0.855017 0.642420 0.124240
C52   C     C_2   0.324027 0.145430 0.143249 0.118133
C53   C     C_3   0.775454 0.316810 0.681058 0.060484
C54   C     C_3   0.775590 0.683033 0.180416 0.054152
C55   C     C_3   0.270499 0.818149 0.672090 0.117257
C56   C     C_3   0.273458 0.182687 0.175826 0.111923
C57   C     C_3   0.709598 0.335749 0.737068 0.167324
C58   C     C_3   0.710045 0.664169 0.237856 0.170391
C59   C     C_3   0.205102 0.836940 0.729692 0.034892
C60   C     C_3   0.207353 0.163954 0.231537 0.035034
C61   C     C_2   0.748683 0.276858 0.558681 -0.276856
C62   C     C_2   0.748465 0.722950 0.057917 -0.272297
C63   C     C_2   0.245049 0.777280 0.552032 -0.294212
C64   C     C_2   0.248183 0.223615 0.055922 -0.290382
C65   C     C_2   0.235899 0.732709 0.601426 0.443114
C66   C     C_2   0.237588 0.267874 0.105469 0.436838
C67   C     C_2   0.735586 0.232688 0.605475 0.456249
C68   C     C_2   0.734749 0.766961 0.104604 0.452016
C69   C     C_R   0.267163 0.678046 0.390733 0.251742
C70   C     C_R   0.268906 0.322713 0.894492 0.264529
C71   C     C_R   0.764863 0.178701 0.390266 0.282057
C72   C     C_R   0.762988 0.820592 0.887448 0.277811
C73   C     C_R   0.215051 0.690804 0.491573 -0.306001
C74   C     C_R   0.216907 0.309886 0.995765 -0.314920
C75   C     C_R   0.712939 0.191789 0.491089 -0.289378
C76   C     C_R   0.711859 0.807867 0.990437 -0.287312
C77   C     C_R   0.252700 0.636197 0.287774 0.129817
C78   C     C_R   0.253773 0.364381 0.790069 0.129498
C79   C     C_R   0.751326 0.136423 0.289422 0.101131
C80   C     C_R   0.749601 0.862928 0.786654 0.103535
C81   C     C_R   0.191512 0.606982 0.285569 0.083765
C82   C     C_R   0.192080 0.393222 0.786877 0.079723
C83   C     C_R   0.685650 0.109501 0.275320 0.193727
C84   C     C_R   0.684613 0.890180 0.774265 0.189811
C85   C     C_R   0.155828 0.653782 0.504264 0.274493
C86   C     C_R   0.156940 0.346554 0.006959 0.276881
C87   C     C_R   0.651112 0.155959 0.497016 0.233260
C88   C     C_R   0.650691 0.843882 0.997974 0.238563
H49   H     H_    0.098060 0.590283 0.406423 0.215044
H50   H     H_    0.098384 0.409645 0.907082 0.215934
H51   H     H_    0.584632 0.097086 0.380985 0.231899
H52   H     H_    0.584299 0.902814 0.881699 0.232856
H53   H     H_    0.737326 0.284552 0.432159 0.166077
H54   H     H_    0.737407 0.715367 0.931447 0.168344
H55   H     H_    0.231685 0.784676 0.425084 0.159727
H56   H     H_    0.236082 0.216547 0.928972 0.160467
N1    N     N_R   0.633487 0.552870 0.943366 0.284699
O49   O     O_R   0.679542 0.588930 0.982551 -0.416274
O50   O     O_R   0.581779 0.551431 0.803445 -0.339122
N2    N     N_R   0.634104 0.446823 0.443702 0.285355
O51   O     O_R   0.680671 0.410964 0.481778 -0.416035
O52   O     O_R   0.582492 0.448508 0.303707 -0.341112
N3    N     N_R   0.104452 0.049987 0.721448 0.264643
O53   O     O_R   0.044183 0.076229 0.726125 -0.276326
O54   O     O_R   0.115634 0.040084 0.583384 -0.380809
N4    N     N_R   0.103908 0.950018 0.223088 0.265970
O55   O     O_R   0.045823 0.921505 0.223888 -0.275694
O56   O     O_R   0.114846 0.962403 0.086717 -0.382631
N5    N     N_R   0.246921 0.444495 0.247441 0.232522
O57   O     O_R   0.290125 0.412260 0.207473 -0.362846
O58   O     O_R   0.169849 0.442689 0.186521 -0.367296
N6    N     N_R   0.245259 0.555887 0.743740 0.232076
O59   O     O_R   0.287522 0.587618 0.697812 -0.367036
O60   O     O_R   0.168007 0.557301 0.685494 -0.366137
N7    N     N_R   0.706852 0.954811 0.136540 0.198124
O61   O     O_R   0.698246 0.963629 0.987472 -0.479709
O62   O     O_R   0.644853 0.941784 0.180075 -0.331346
N8    N     N_R   0.707208 0.045035 0.636472 0.198063
O63   O     O_R   0.698745 0.036175 0.487570 -0.480636
O64   O     O_R   0.645076 0.057966 0.679555 -0.330497
N9    N     N_R   0.411904 0.450269 0.454733 0.259760
O65   O     O_R   0.436627 0.415926 0.383667 -0.222490
O66   O     O_R   0.446365 0.455662 0.606264 -0.388453
N10   N     N_R   0.409984 0.551609 0.952449 0.259897
O67   O     O_R   0.432584 0.586539 0.880110 -0.227159
O68   O     O_R   0.445746 0.546381 0.103558 -0.386210
N11   N     N_R   0.860142 0.911378 0.276936 0.265219
O69   O     O_R   0.816244 0.882669 0.175207 -0.357359
O70   O     O_R   0.921633 0.895379 0.385615 -0.268459
N12   N     N_R   0.860940 0.088211 0.779225 0.264955
O71   O     O_R   0.817143 0.117310 0.678839 -0.356384
O72   O     O_R   0.922611 0.103777 0.888411 -0.267578
I1    I     I_    0.420271 0.554277 0.474212 -0.095884
I2    I     I_    0.420139 0.447571 0.975322 -0.109833
I3    I     I_    0.945955 0.000353 0.397001 -0.109187
I4    I     I_    0.945611 0.998655 0.895777 -0.103063
N13   N     N_R   0.946148 0.701195 0.486590 0.175968
O73   O     O_R   0.950509 0.660565 0.427624 -0.513694
O74   O     O_R   0.903389 0.732755 0.395296 -0.400721
N14   N     N_R   0.946118 0.298861 0.988425 0.176250
O75   O     O_R   0.902986 0.267367 0.897625 -0.400454
O76   O     O_R   0.950855 0.339409 0.928782 -0.512995
N15   N     N_R   0.444117 0.200260 0.483111 0.178563
O77   O     O_R   0.446471 0.159091 0.426347 -0.499987
O78   O     O_R   0.402298 0.231882 0.390474 -0.410852
N16   N     N_R   0.440254 0.802349 0.982564 0.175660
O79   O     O_R   0.392489 0.772681 0.891999 -0.422812
O80   O     O_R   0.448779 0.842603 0.923888 -0.497965
I5    I     I_    0.832634 0.748536 0.687982 -0.142892
I6    I     I_    0.832588 0.251372 0.189864 -0.149231
I7    I     I_    0.330712 0.247500 0.689014 -0.140939
I8    I     I_    0.325462 0.754623 0.187211 -0.156543
I9    I     I_    0.669923 0.363679 0.044379 -0.147965
I10   I     I_    0.673897 0.636715 0.549762 -0.108624
I11   I     I_    0.178382 0.857890 0.053807 -0.117545
I12   I     I_    0.180940 0.143671 0.556294 -0.116928
I13   I     I_    0.328428 0.628650 0.137318 -0.001471
I14   I     I_    0.329689 0.372790 0.639916 0.007710
I15   I     I_    0.843949 0.121427 0.181057 -0.041124
I16   I     I_    0.842107 0.878017 0.677704 -0.040394
N17   N     N_R   0.883534 0.429963 0.708431 0.227260
O81   O     O_R   0.860733 0.446295 0.564080 -0.325742
O82   O     O_R   0.957883 0.434871 0.790106 -0.357924
N18   N     N_R   0.883142 0.569812 0.207312 0.227584
O83   O     O_R   0.860351 0.553655 0.062863 -0.325516
O84   O     O_R   0.957473 0.564851 0.289004 -0.357559
N19   N     N_R   0.378631 0.931485 0.699315 0.237892
O85   O     O_R   0.359440 0.945689 0.552313 -0.361833
O86   O     O_R   0.452211 0.936645 0.784639 -0.341247
N20   N     N_R   0.378883 0.068659 0.199439 0.237544
O87   O     O_R   0.359403 0.054418 0.052599 -0.361031
O88   O     O_R   0.452469 0.063385 0.284563 -0.343780
N21   N     N_R   0.251128 0.724196 0.768484 0.291010
O89   O     O_R   0.301416 0.692044 0.835748 -0.245530
O90   O     O_R   0.211166 0.746452 0.851389 -0.328749
N22   N     N_R   0.251501 0.275967 0.272511 0.288363
O91   O     O_R   0.299478 0.309015 0.340386 -0.241103
O92   O     O_R   0.211271 0.253167 0.353922 -0.333866
N23   N     N_R   0.748585 0.223946 0.772805 0.291747
O93   O     O_R   0.800309 0.192994 0.844943 -0.223136
O94   O     O_R   0.708861 0.247108 0.853978 -0.346580
N24   N     N_R   0.747747 0.775613 0.271772 0.289479
O95   O     O_R   0.799138 0.806776 0.343550 -0.224929
O96   O     O_R   0.707531 0.752602 0.352603 -0.344271
I17   I     I_    0.104998 0.699664 0.056992 -0.261532
I18   I     I_    0.106039 0.300123 0.559748 -0.260438
I19   I     I_    0.603244 0.201794 0.055133 -0.273086
I20   I     I_    0.602194 0.793729 0.557270 -0.259645
N25   N     N_R   0.971128 0.798029 0.131394 0.307270
O97   O     O_R   0.899941 0.801625 0.150863 -0.275438
O98   O     O_R   0.995630 0.828911 0.046225 -0.306682
N26   N     N_R   0.972699 0.202092 0.635586 0.306410
O99   O     O_R   0.901026 0.198310 0.652452 -0.277186
O100  O     O_R   0.998456 0.171094 0.553098 -0.305977
N27   N     N_R   0.462984 0.298046 0.164389 0.309300
O101  O     O_R   0.433588 0.322764 0.259715 -0.235871
O102  O     O_R   0.455046 0.313117 0.019899 -0.354173
N28   N     N_R   0.468786 0.698848 0.630660 0.298954
O103  O     O_R   0.412695 0.678001 0.677532 -0.268601
O104  O     O_R   0.495197 0.679419 0.520102 -0.338660

loop_
_geom_bond_atom_site_label_1
_geom_bond_atom_site_label_2
_geom_bond_distance
_ccdc_geom_bond_type
C19   H27   1.112490 S    
H2    C30   1.111476 S    
C15   H19   1.102140 S    
O2    Ba2   2.928841 S    
P5    O37   1.763729 S    
P6    C45   1.908497 S    
P7    O39   1.743542 S    
C40   C84   1.497232 S    
P8    O40   1.745001 S    
P9    O33   1.544079 D    
C54   C62   1.550217 S    
O23   P16   1.753066 S    
C39   H51   1.075221 S    
C36   N20   1.419520 S    
O26   Ba2   2.931681 S    
O14   P13   1.540817 D    
C12   N28   1.459365 S    
C3    C31   1.518698 S    
C42   C58   1.440586 A    
C2    H42   1.111182 S    
C1    C29   1.523473 S    
C6    H10   1.098432 S    
P4    O8    1.643013 S    
C17   H29   1.111348 S    
P5    C46   1.904904 S    
C4    I8    2.118534 S    
N8    O64   1.287813 A    
P5    O25   1.583195 D    
N6    O59   1.299634 A    
C64   C66   1.376018 D    
C37   C85   1.409331 A    
N1    O50   1.299495 A    
C49   C53   1.461238 A    
C44   I12   2.100650 S    
C23   C27   1.537855 S    
C14   H18   1.108402 S    
C51   C55   1.463487 A    
N28   O103  1.298027 A    
C18   H26   1.111138 S    
C70   C74   1.466626 S    
C10   H14   1.111215 S    
C21   N5    1.458937 S    
O44   C8    1.417147 S    
C76   C88   1.499048 S    
C80   C84   1.354007 D    
P8    Ba4   3.478651 S    
N24   O95   1.299014 A    
C19   H31   1.110583 S    
C54   C58   1.463053 A    
O29   Ba1   2.902914 S    
O5    Ba2   2.946445 S    
O31   Ba3   2.902914 S    
O7    Ba4   2.946445 S    
N15   O78   1.298514 A    
H4    C32   1.110791 S    
C18   H30   1.111383 S    
C8    I20   2.092941 S    
C4    H44   1.111149 S    
P2    O18   1.757886 S    
N20   O88   1.297286 A    
O42   C6    1.418875 S    
C35   C51   1.372637 D    
N22   O92   1.297503 A    
Ba4   O47   3.011845 S    
C28   N12   1.457960 S    
C40   H52   1.075234 S    
C13   C17   1.530701 S    
C10   H46   1.105840 S    
P11   O35   1.542001 D    
C12   H48   1.102154 S    
C66   C74   1.521738 S    
C3    I7    2.120882 S    
P10   C49   1.877955 S    
O24   P15   1.752941 S    
C5    C9    1.551045 S    
Ba3   Ba4   4.781844 S    
P3    O7    1.641122 S    
C20   H28   1.112429 S    
C27   N11   1.458387 S    
N23   O94   1.297359 A    
C5    I17   2.082811 S    
C29   N13   1.460228 S    
C11   N27   1.458428 S    
N13   O73   1.289994 A    
C38   C82   1.485824 S    
O41   C5    1.417919 S    
O28   Ba4   2.931681 S    
C34   C50   1.370181 D    
O30   Ba2   2.898148 S    
Ba2   O45   3.011845 S    
C64   H56   1.084168 S    
O9    Ba1   2.892995 S    
C68   N24   1.429328 S    
C13   H21   1.102979 S    
C26   N10   1.467450 S    
N25   O98   1.299345 A    
N14   O76   1.289794 A    
P8    C47   1.923454 S    
C33   N17   1.418677 S    
P9    C50   1.877236 S    
P6    O38   1.763945 S    
O40   C15   1.395781 S    
P7    C48   1.921928 S    
P8    O28   1.581877 D    
P9    O29   1.775866 S    
P5    Ba1   3.478365 S    
N17   O81   1.295454 A    
P10   O34   1.544734 D    
C55   C63   1.556680 S    
P7    Ba3   3.478365 S    
C39   C87   1.412094 A    
C53   C61   1.551288 S    
N26   O100  1.299288 A    
C79   C83   1.354836 D    
C20   H32   1.111176 S    
C33   C49   1.370409 D    
N18   O83   1.295463 A    
O17   C21   1.398068 S    
C74   C86   1.505110 S    
O11   P16   1.758812 S    
C1    H41   1.111186 S    
C2    C30   1.523706 S    
O23   C31   1.403969 S    
C24   H36   1.106591 S    
O21   C29   1.405409 S    
C25   H37   1.095565 S    
C26   I2    2.153813 S    
C27   H39   1.107556 S    
C41   I9    2.115917 S    
N21   O89   1.297595 A    
C22   H34   1.106533 S    
N4    O56   1.298501 A    
P6    O26   1.581877 D    
C21   H33   1.106399 S    
Ba3   O47   2.940525 S    
O20   C24   1.394154 S    
C23   H35   1.106464 S    
N27   O102  1.298611 A    
C79   I15   2.114792 S    
C37   H49   1.077554 S    
C39   C83   1.495773 S    
P14   C85   1.848249 S    
O10   Ba2   2.897759 S    
N12   O71   1.295956 A    
C70   C78   1.484295 S    
P1    C81   1.887991 S    
C69   C73   1.465970 S    
N16   O79   1.296977 A    
O10   P13   1.761995 S    
C72   C76   1.465713 S    
N9    O66   1.298099 A    
P6    Ba2   3.478651 S    
C8    C12   1.552851 S    
P9    O41   1.769069 S    
P11   C52   1.879742 S    
C78   C82   1.349568 D    
P12   C51   1.879764 S    
N10   O67   1.301420 A    
N5    O58   1.296880 A    
P6    O45   1.657632 S    
C22   N6    1.458251 S    
P4    C84   1.904334 S    
C21   C25   1.562508 S    
C24   N8    1.435442 S    
N19   O85   1.294379 A    
C53   C57   1.463247 A    
Ba1   O45   2.940525 S    
P16   C87   1.847622 S    
C56   C60   1.461894 A    
C40   C88   1.413537 A    
C16   H24   1.112226 S    
O39   C16   1.394624 S    
C67   N23   1.430451 S    
C12   H16   1.111505 S    
N6    O60   1.296668 A    
N1    O49   1.298417 A    
C75   C87   1.498561 S    
P1    O1    1.580602 D    
C44   C48   1.415159 A    
O25   Ba1   2.932610 S    
C7    I19   2.091484 S    
P10   O42   1.769724 S    
P3    O3    1.580602 D    
O4    Ba4   2.928841 S    
P5    O46   1.659610 S    
P4    O20   1.764062 S    
C6    C10   1.551105 S    
N28   O104  1.298472 A    
N11   O69   1.296120 A    
P1    Ba1   3.477101 S    
C65   C73   1.521919 S    
C9    N25   1.454420 S    
P3    Ba3   3.477101 S    
C31   N15   1.461174 S    
C68   C76   1.521667 S    
C5    H9    1.098360 S    
C80   I16   2.115518 S    
P4    O4    1.581925 D    
C28   H40   1.107841 S    
C56   C64   1.555144 S    
C17   N1    1.458710 S    
C43   I11   2.100228 S    
C6    I18   2.083557 S    
C65   N21   1.422959 S    
N24   O96   1.296974 A    
C30   N14   1.460552 S    
C7    C11   1.556301 S    
C38   C86   1.408912 A    
C34   C46   1.501892 S    
C78   I14   2.102342 S    
P1    O5    1.641122 S    
N3    O53   1.300019 A    
C13   H17   1.108382 S    
C11   H47   1.109764 S    
C61   C67   1.373829 D    
C1    H5    1.104662 S    
C1    I5    2.124735 S    
C2    H6    1.104844 S    
C3    H7    1.101543 S    
C20   N4    1.454914 S    
P10   O30   1.775157 S    
C3    H43   1.111178 S    
N7    O62   1.287527 A    
Ba4   O48   2.945055 S    
O21   P14   1.758627 S    
C16   C20   1.534419 S    
C19   N3    1.455042 S    
C33   C45   1.502539 S    
N8    O63   1.286912 A    
C36   C52   1.373761 D    
C41   C45   1.417050 A    
N23   O93   1.298962 A    
O12   Ba4   2.897759 S    
P13   C86   1.849412 S    
P7    O48   1.659610 S    
C24   C28   1.536825 S    
N2    O52   1.299426 A    
O22   C30   1.405766 S    
P15   C88   1.853472 S    
H1    C29   1.111494 S    
C42   I10   2.111408 S    
O15   P16   1.544766 D    
Ba1   Ba2   4.781844 S    
C11   H15   1.110596 S    
P7    O27   1.583195 D    
O1    Ba1   2.927936 S    
C10   N26   1.454199 S    
O3    Ba3   2.927936 S    
Ba2   O46   2.945055 S    
O43   C7    1.416408 S    
C14   C18   1.530778 S    
C34   N18   1.418702 S    
O37   C14   1.405147 S    
C52   C56   1.462976 A    
C28   I4    2.139459 S    
N25   O97   1.294092 A    
O13   P14   1.541495 D    
C66   N22   1.423711 S    
C41   C57   1.441644 A    
P2    Ba2   3.476831 S    
N27   O101  1.297956 A    
P1    O17   1.757558 S    
N19   O86   1.297280 A    
O9    P14   1.762013 S    
P3    O19   1.765336 S    
O24   C32   1.405850 S    
C8    H12   1.099051 S    
P8    O47   1.657632 S    
C62   H54   1.084714 S    
O6    Ba1   2.951002 S    
N22   O91   1.296372 A    
N18   O84   1.298410 A    
N20   O87   1.294403 A    
C25   N9    1.467002 S    
C37   C81   1.486173 S    
C77   I13   2.099884 S    
C63   H55   1.083825 S    
C61   H53   1.084696 S    
C14   H22   1.102869 S    
C16   H20   1.102725 S    
N11   O70   1.300677 A    
P3    C83   1.902839 S    
C9    H13   1.111035 S    
C23   N7    1.435250 S    
P4    Ba4   3.476831 S    
C43   C59   1.443619 A    
C44   C60   1.442027 A    
P2    O2    1.581925 D    
P11   O43   1.774630 S    
P12   O36   1.541574 D    
C15   C19   1.534081 S    
O38   C13   1.405249 S    
N12   O72   1.300639 A    
O11   Ba3   2.892995 S    
C4    H8    1.097760 S    
N2    O51   1.298383 A    
N13   O74   1.298380 A    
N16   O80   1.291510 A    
C73   C85   1.504686 S    
C55   C59   1.462331 A    
P12   O44   1.774299 S    
C15   H23   1.112003 S    
C26   H38   1.095358 S    
C27   I3    2.140510 S    
C35   N19   1.419674 S    
N3    O54   1.297550 A    
C25   I1    2.152813 S    
O18   C22   1.398246 S    
N14   O75   1.298284 A    
N10   O68   1.298340 A    
N5    O57   1.299661 A    
C4    C32   1.519462 S    
C38   H50   1.077525 S    
C35   C47   1.505799 S    
N17   O82   1.298401 A    
C43   C47   1.415443 A    
H3    C31   1.111312 S    
N15   O77   1.291233 A    
P2    O6    1.643013 S    
C9    H45   1.106443 S    
N7    O61   1.286957 A    
N26   O99   1.293976 A    
P11   O31   1.780693 S    
P12   O32   1.782523 S    
C18   N2    1.458821 S    
O27   Ba3   2.932610 S    
C71   C79   1.483079 S    
P2    C82   1.887310 S    
C71   C75   1.465765 S    
C2    I6    2.125608 S    
C69   C77   1.483132 S    
C36   C48   1.507021 S    
C67   C75   1.523966 S    
O22   P13   1.758901 S    
C7    H11   1.100190 S    
C77   C81   1.349646 D    
N21   O90   1.297367 A    
C50   C54   1.461589 A    
O16   P15   1.545164 D    
N4    O55   1.300515 A    
C62   C68   1.373574 D    
C42   C46   1.414158 A    
O19   C23   1.394262 S    
C22   C26   1.562077 S    
Ba3   O48   3.012427 S    
C72   C80   1.482420 S    
Ba1   O46   3.012427 S    
C32   N16   1.462445 S    
N9    O65   1.300754 A    
O12   P15   1.757068 S    
O32   Ba4   2.898148 S    
O8    Ba3   2.951002 S    
C17   H25   1.110951 S    
C63   C65   1.377083 D    
