data_mof_unit_31975.cif
_audit_creation_date              2012-12-11T15:14:41-0500
_audit_creation_method            fapswitch 2.2
_symmetry_space_group_name_H-M    P1
_symmetry_Int_Tables_number       1
_space_group_crystal_system       triclinic
_cell_length_a                    22.224527
_cell_length_b                    7.230024
_cell_length_c                    19.272484
_cell_angle_alpha                 90.029269
_cell_angle_beta                  99.128186
_cell_angle_gamma                 90.007858
_cell_volume                      3057.55876872

loop_
_atom_site_label
_atom_site_type_symbol
_atom_type_description
_atom_site_fract_x
_atom_site_fract_y
_atom_site_fract_z
_atom_type_partial_charge
O1    O     O_R   0.448470 0.506130 0.415700 -0.532761
O2    O     O_R   0.551530 0.006130 0.584300 -0.532589
O3    O     O_R   0.436320 0.174490 0.555800 -0.533860
O4    O     O_R   0.563680 0.674490 0.444200 -0.533876
C1    C     C_R   0.421096 0.344395 0.575128 0.705776
C2    C     C_R   0.578896 0.844355 0.424860 0.705657
O5    O     O_R   0.441350 0.176340 0.414480 -0.534061
O6    O     O_R   0.558650 0.676340 0.585520 -0.534092
O7    O     O_R   0.556600 0.007100 0.441970 -0.532445
O8    O     O_R   0.443400 0.507100 0.558030 -0.532584
C3    C     C_R   0.427141 0.344641 0.389076 0.673679
C4    C     C_R   0.572866 0.844770 0.610916 0.673837
O9    O     O_3   0.537810 0.339550 0.509190 -0.371817
O10   O     O_3   0.462190 0.839550 0.490810 -0.371936
V1    V     V_3+5 0.492990 0.064280 0.498300 1.427411
V2    V     V_3+5 0.507010 0.564280 0.501700 1.427180
C5    C     C_R   0.868233 0.976007 0.693285 -0.190746
C6    C     C_R   0.132475 0.487957 0.305997 -0.185191
H1    H     H_    0.785077 0.971454 0.578546 0.120791
H2    H     H_    0.215846 0.489108 0.420550 0.120507
H3    H     H_    0.885554 0.000953 0.644581 0.110410
H4    H     H_    0.115310 0.519067 0.354345 0.114026
C7    C     C_R   0.886530 0.942258 0.820157 -0.058746
C8    C     C_R   0.113679 0.443306 0.179617 -0.068246
C9    C     C_R   0.590602 0.817671 0.739775 -0.160343
C10   C     C_R   0.409114 0.310413 0.260474 -0.159934
C11   C     C_R   0.627712 0.816248 0.805007 -0.124676
C12   C     C_R   0.371896 0.306137 0.195336 -0.124728
C13   C     C_R   0.690218 0.846797 0.810641 -0.157922
C14   C     C_R   0.309553 0.339674 0.189552 -0.157962
C15   C     C_R   0.717634 0.880292 0.750416 0.086934
C16   C     C_R   0.282434 0.379373 0.249512 0.086905
C17   C     C_R   0.678955 0.883188 0.683343 0.067061
C18   C     C_R   0.321263 0.385771 0.316451 0.067142
C19   C     C_R   0.782023 0.910522 0.754506 0.073446
C20   C     C_R   0.218187 0.412309 0.245294 0.073887
C21   C     C_R   0.805729 0.944103 0.691524 0.108866
C22   C     C_R   0.194808 0.452836 0.307957 0.106639
C23   C     C_R   0.767020 0.946163 0.626732 -0.190454
C24   C     C_R   0.233667 0.458574 0.372607 -0.191491
C25   C     C_R   0.704794 0.916010 0.622586 -0.190107
C26   C     C_R   0.295728 0.425173 0.376921 -0.190007
C27   C     C_R   0.823862 0.909228 0.818640 -0.254227
C28   C     C_R   0.176185 0.407252 0.181315 -0.250739
C29   C     C_R   0.908915 0.976309 0.756788 0.137607
C30   C     C_R   0.091640 0.484280 0.242649 0.135549
C31   C     C_R   0.615159 0.851329 0.678569 -0.078698
C32   C     C_R   0.384871 0.350430 0.321402 -0.079219
H5    H     H_    0.809242 0.885099 0.868561 0.103694
H6    H     H_    0.190579 0.378242 0.131612 0.104245
H7    H     H_    0.542227 0.792037 0.736968 0.104218
H8    H     H_    0.457326 0.281842 0.263437 0.104506
H9    H     H_    0.715763 0.842979 0.862988 0.106747
H10   H     H_    0.283897 0.333185 0.137301 0.106716
H11   H     H_    0.607832 0.790371 0.851859 0.115917
H12   H     H_    0.391544 0.275412 0.148698 0.115947
H13   H     H_    0.676976 0.918800 0.571105 0.109197
H14   H     H_    0.323664 0.430783 0.428297 0.110298
C33   C     C_3   0.775864 0.947588 0.316353 -0.137365
C34   C     C_3   0.222568 0.431113 0.682367 -0.137166
C35   C     C_3   0.769729 0.073311 0.250413 -0.138754
C36   C     C_3   0.225949 0.569335 0.744454 -0.138359
H15   H     H_    0.785438 0.218979 0.249644 0.107596
H16   H     H_    0.206769 0.711438 0.741165 0.106803
H17   H     H_    0.796335 0.989150 0.370419 0.106633
H18   H     H_    0.200919 0.458821 0.627403 0.106481
H19   H     H_    0.663499 0.097515 0.209887 0.107087
H20   H     H_    0.331400 0.620847 0.782954 0.106620
C37   C     C_1   0.875518 0.940343 0.121566 -0.184088
C38   C     C_1   0.124343 0.440377 0.878261 -0.184620
C39   C     C_1   0.625192 0.853979 0.379520 -0.182458
C40   C     C_1   0.374773 0.354152 0.620430 -0.182513
C41   C     C_3   0.798582 0.787051 0.273763 -0.141420
C42   C     C_3   0.203997 0.274816 0.729875 -0.138910
C43   C     C_3   0.791818 0.912584 0.208454 0.169767
C44   C     C_3   0.208011 0.412847 0.791327 0.169080
C45   C     C_3   0.731926 0.720563 0.251765 -0.137341
C46   C     C_3   0.272114 0.225237 0.753009 -0.138208
C47   C     C_3   0.709814 0.881304 0.293713 0.169357
C48   C     C_3   0.290083 0.381719 0.706142 0.168980
C49   C     C_3   0.725781 0.846288 0.185845 -0.136370
C50   C     C_3   0.275512 0.363450 0.815068 -0.137571
C51   C     C_3   0.703090 0.006824 0.228404 -0.139307
C52   C     C_3   0.294059 0.519744 0.767593 -0.138383
C53   C     C_1   0.837721 0.928983 0.160601 -0.069547
C54   C     C_1   0.162103 0.429135 0.839177 -0.063647
C55   C     C_1   0.663506 0.865124 0.341106 -0.065321
C56   C     C_1   0.336429 0.365438 0.658802 -0.065273
H21   H     H_    0.705298 0.804702 0.131787 0.107397
H22   H     H_    0.297177 0.335733 0.870025 0.107519
H23   H     H_    0.716235 0.574879 0.252529 0.107575
H24   H     H_    0.291240 0.083076 0.756315 0.107797
H25   H     H_    0.838228 0.696482 0.292216 0.107203
H26   H     H_    0.166622 0.173759 0.714571 0.107052
O11   O     O_R   0.056650 0.288730 0.942060 -0.532761
O12   O     O_R   0.943350 0.788730 0.057940 -0.530516
O13   O     O_R   0.058660 0.616870 0.085540 -0.532705
O14   O     O_R   0.941340 0.116870 0.914460 -0.540122
C57   C     C_R   0.072556 0.448913 0.111218 0.690075
C58   C     C_R   0.927733 0.948795 0.888537 0.695794
O15   O     O_R   0.063700 0.618520 0.944220 -0.535834
O16   O     O_R   0.936300 0.118520 0.055780 -0.535892
O17   O     O_R   0.948460 0.787610 0.915680 -0.534146
O18   O     O_R   0.051540 0.287610 0.084320 -0.536621
C59   C     C_R   0.078747 0.450053 0.924453 0.707896
C60   C     C_R   0.921201 0.950058 0.075483 0.713061
O19   O     O_3   0.962230 0.453430 0.990860 -0.372623
O20   O     O_3   0.037770 0.953430 0.009140 -0.371926
V3    V     V_3+5 0.007010 0.728750 0.001700 1.413642
V4    V     V_3+5 0.992990 0.228750 0.998300 1.407642
C61   C     C_3   0.975839 0.012785 0.755231 -0.378845
C62   C     C_3   0.011880 0.832493 0.757973 -0.744773
H27   H     H_    0.009071 0.755938 0.807203 0.234685
H28   H     H_    0.993895 0.743660 0.712323 0.222545
H29   H     H_    0.060535 0.863471 0.756057 0.211350
H30   H     H_    0.981662 0.087637 0.706342 0.174235
H31   H     H_    0.995415 0.103837 0.799535 0.182217
C63   C     C_3   0.024940 0.523784 0.244402 -0.367449
C64   C     C_3   0.013574 0.731208 0.249323 -0.729600
H32   H     H_    0.040206 0.788835 0.298195 0.218431
H33   H     H_    0.026742 0.803785 0.203212 0.233650
H34   H     H_    0.964406 0.756348 0.250203 0.209396
H35   H     H_    0.995252 0.468135 0.197244 0.171271
H36   H     H_    0.010658 0.453313 0.290406 0.170263

loop_
_geom_bond_atom_site_label_1
_geom_bond_atom_site_label_2
_ccdc_geom_bond_type
C14   C16   A    
H19   C51   S    
O14   V4    S    
C11   C13   A    
C8    C57   S    
C42   H26   S    
C61   C62   S    
O1    C3    A    
C41   H25   S    
C48   C52   S    
O2    C4    A    
C26   H14   S    
C2    O7    A    
C62   H28   S    
C12   H12   S    
C37   C53   T    
C23   C25   A    
C35   C43   S    
O5    C3    A    
C14   H10   S    
C42   C44   S    
C7    C29   A    
C16   C20   A    
C19   C21   A    
C5    C29   A    
C1    C40   S    
H2    C24   S    
C46   C48   S    
O15   V3    S    
C7    C27   A    
O20   V3    S    
C30   C63   S    
C34   C36   S    
C35   H15   S    
C63   C64   S    
C36   H16   S    
O11   C59   A    
C40   C56   T    
C36   C52   S    
C43   C53   S    
C34   C48   S    
C18   C26   A    
C15   C17   A    
O16   C60   A    
C61   H30   S    
C19   C27   A    
C9    C31   A    
C10   C32   A    
C49   H21   S    
C24   C26   A    
C57   O18   A    
C34   H18   S    
O6    V2    S    
C22   C24   A    
C13   C15   A    
C41   C43   S    
C36   C44   S    
C3    C32   S    
C4    C31   S    
C6    C30   A    
C47   C55   S    
C62   H27   S    
C49   C51   S    
C64   H33   S    
O15   C59   A    
C2    C39   S    
C33   C35   S    
H20   C52   S    
O4    C2    A    
C35   C51   S    
C44   C50   S    
C27   H5    S    
C5    C21   A    
O5    V1    S    
C46   H24   S    
C38   C59   S    
C58   O17   A    
C5    H3    S    
C16   C18   A    
O4    V2    S    
C9    H7    S    
C10   H8    S    
O13   V3    S    
C46   C50   S    
C45   C49   S    
O6    C4    A    
C45   C47   S    
O1    V2    S    
C63   H36   S    
O2    V1    S    
H1    C23   S    
C39   C55   T    
C50   C52   S    
C17   C31   A    
O19   V4    S    
C15   C19   A    
C20   C28   A    
C18   C32   A    
C33   C47   S    
C20   C22   A    
C38   C54   T    
C44   C54   S    
O3    V1    S    
O18   V4    S    
C64   H34   S    
C28   H6    S    
O12   C60   A    
C45   H23   S    
C37   C60   S    
O13   C57   A    
C6    H4    S    
C43   C49   S    
O3    C1    A    
O11   V4    S    
C64   H32   S    
C29   C61   S    
C9    C11   A    
O12   V3    S    
C10   C12   A    
C50   H22   S    
C61   H31   S    
O17   V3    S    
C8    C30   A    
C12   C14   A    
C6    C22   A    
C17   C25   A    
C1    O8    A    
C21   C23   A    
O8    V2    S    
C33   H17   S    
C47   C51   S    
C13   H9    S    
C8    C28   A    
C34   C42   S    
C7    C58   S    
C11   H11   S    
C63   H35   S    
O7    V1    S    
C33   C41   S    
O14   C58   A    
O16   V4    S    
C25   H13   S    
C48   C56   S    
C42   C46   S    
O9    V2    S    
C41   C45   S    
O10   V1    S    
C62   H29   S    
