data_mof_unit_10164.cif
_audit_creation_date              2012-12-10T18:18:20-0500
_audit_creation_method            fapswitch 2.2
_symmetry_space_group_name_H-M    P1
_symmetry_Int_Tables_number       1
_space_group_crystal_system       triclinic
_cell_length_a                    14.008957
_cell_length_b                    15.018002
_cell_length_c                    15.454966
_cell_angle_alpha                 90.036035
_cell_angle_beta                  67.330621
_cell_angle_gamma                 89.999322
_cell_volume                      3000.31764335

loop_
_atom_site_label
_atom_site_type_symbol
_atom_type_description
_atom_site_fract_x
_atom_site_fract_y
_atom_site_fract_z
_atom_type_partial_charge
C1    C     C_R   0.500095 0.673499 0.499642 0.875057
C2    C     C_R   0.500017 0.326476 0.500116 0.900096
C3    C     C_R   0.380575 0.482558 0.106315 -0.215248
C4    C     C_R   0.619461 0.481569 0.893673 -0.217088
C5    C     C_R   0.307083 0.470923 0.067033 -0.229164
C6    C     C_R   0.692834 0.469556 0.933026 -0.229099
C7    C     C_R   0.582828 0.185125 0.509137 -0.269297
C8    C     C_R   0.418439 0.814746 0.488390 -0.269524
C9    C     C_R   0.500407 0.230609 0.499938 -0.066536
C10   C     C_R   0.500235 0.769307 0.498753 -0.059518
C11   C     C_R   0.418726 0.184896 0.490216 -0.246662
C12   C     C_R   0.582035 0.815007 0.508242 -0.249169
C13   C     C_R   0.418567 0.092914 0.489492 0.076978
C14   C     C_R   0.582757 0.906970 0.507900 0.077481
C15   C     C_R   0.501426 0.046217 0.498754 0.036686
C16   C     C_R   0.500121 0.953663 0.498223 0.036679
C17   C     C_R   0.585240 0.092365 0.508625 0.052014
C18   C     C_R   0.416365 0.907505 0.488253 0.052097
C19   C     C_R   0.336132 0.047939 0.479546 -0.220319
C20   C     C_R   0.665459 0.951923 0.517343 -0.221055
C21   C     C_R   0.333076 0.954753 0.478695 0.156289
C22   C     C_R   0.668797 0.045100 0.517688 0.156307
C23   C     C_R   0.435387 0.503157 0.676308 0.866120
C24   C     C_R   0.564629 0.503199 0.323683 0.868292
C25   C     C_R   0.181604 0.435043 0.547596 -0.071307
C26   C     C_R   0.818457 0.564864 0.452263 -0.075100
C27   C     C_R   0.221923 0.565111 0.452763 -0.070527
C28   C     C_R   0.777724 0.435402 0.548038 -0.071575
C29   C     C_R   0.121837 0.566631 0.451489 0.013982
C30   C     C_R   0.877908 0.433764 0.549111 0.013911
C31   C     C_R   0.050547 0.500085 0.500140 0.086101
C32   C     C_R   0.949310 0.500139 0.500192 0.086289
C33   C     C_R   0.080400 0.433557 0.548855 0.018009
C34   C     C_R   0.919526 0.566568 0.451327 0.016231
C35   C     C_R   0.091444 0.632829 0.403074 -0.212401
C36   C     C_R   0.908281 0.367637 0.597620 -0.215942
C37   C     C_R   0.991180 0.632751 0.402930 -0.208519
C38   C     C_R   0.008674 0.367508 0.597448 -0.212483
C39   C     C_R   0.394118 0.508299 0.778428 -0.117142
C40   C     C_R   0.606021 0.508148 0.221539 -0.118708
C41   C     C_R   0.263131 0.469107 0.929424 -0.207630
C42   C     C_R   0.736741 0.467875 0.070678 -0.208004
C43   C     C_R   0.294725 0.476370 0.832382 -0.227413
C44   C     C_R   0.705171 0.475548 0.167702 -0.228429
C45   C     C_R   0.459622 0.537062 0.822516 0.089295
C46   C     C_R   0.540866 0.537283 0.177280 0.103106
C47   C     C_R   0.438124 0.506564 0.914021 0.083179
C48   C     C_R   0.562107 0.506438 0.085888 0.083142
C49   C     C_R   0.335116 0.482732 0.970760 0.137626
C50   C     C_R   0.664896 0.481810 0.029260 0.137458
C51   C     C_R   0.515157 0.499362 0.951031 0.060673
C52   C     C_R   0.485016 0.499625 0.048900 0.060070
H1    H     H_    0.206030 0.384598 0.584720 0.128964
H2    H     H_    0.794126 0.615154 0.414911 0.133333
H3    H     H_    0.145201 0.684601 0.365303 0.141535
H4    H     H_    0.854473 0.315980 0.635579 0.139459
H5    H     H_    0.184950 0.447711 0.971095 0.141551
H6    H     H_    0.814738 0.445907 0.029111 0.141710
H7    H     H_    0.357099 0.469371 0.180379 0.153816
H8    H     H_    0.642853 0.468178 0.819636 0.148995
H9    H     H_    0.355150 0.220919 0.482833 0.155841
H10   H     H_    0.645246 0.778991 0.516314 0.154845
H11   H     H_    0.274570 0.086891 0.472576 0.159997
H12   H     H_    0.726967 0.912957 0.524400 0.159792
N1    N     N_R   0.249980 0.499930 0.499960 -0.096123
N2    N     N_R   0.750020 0.500070 0.500040 -0.099247
O1    O     O_R   0.419720 0.632140 0.499980 -0.631190
O2    O     O_R   0.580280 0.367860 0.500020 -0.624872
O3    O     O_R   0.580270 0.632160 0.499970 -0.632897
O4    O     O_R   0.419730 0.367840 0.500030 -0.624764
O5    O     O_R   0.373870 0.499980 0.632250 -0.606682
O6    O     O_R   0.626130 0.500020 0.367750 -0.607584
O7    O     O_R   0.534420 0.500000 0.632240 -0.621670
O8    O     O_R   0.465580 0.500000 0.367760 -0.617197
Zn1   Zn    Zn3+2 0.392800 0.499980 0.500010 0.935564
Zn2   Zn    Zn3+2 0.607200 0.500020 0.499990 0.931196
H13   H     H_    0.228637 0.452848 0.111821 0.149275
H14   H     H_    0.771120 0.450874 0.888317 0.148912
H15   H     H_    0.277581 0.615990 0.416315 0.123092
H16   H     H_    0.721631 0.385115 0.585425 0.131665
H17   H     H_    0.969678 0.684465 0.365030 0.140948
H18   H     H_    0.030196 0.315768 0.635308 0.138793
C53   C     C_3   0.463558 0.613039 0.220462 -0.388741
C54   C     C_3   0.480911 0.691989 0.153616 -0.874669
H19   H     H_    0.563064 0.713565 0.127221 0.265145
H20   H     H_    0.459995 0.674647 0.093393 0.266018
H21   H     H_    0.431345 0.748616 0.191460 0.244858
H22   H     H_    0.382387 0.590483 0.244067 0.202011
H23   H     H_    0.472820 0.640287 0.283598 0.208742
C55   C     C_3   0.537795 0.612090 0.778819 -0.368467
C56   C     C_3   0.523172 0.690624 0.845873 -0.872991
H24   H     H_    0.572318 0.747187 0.807467 0.249121
H25   H     H_    0.441120 0.712657 0.874539 0.263782
H26   H     H_    0.546464 0.672666 0.904536 0.265062
H27   H     H_    0.618730 0.588372 0.753358 0.208793
H28   H     H_    0.527233 0.640249 0.716655 0.215085
H29   H     H_    0.757599 0.455742 0.200542 0.167518
H30   H     H_    0.242106 0.456830 0.799631 0.163836
H31   H     H_    0.644551 0.223049 0.517003 0.153467
H32   H     H_    0.356813 0.776782 0.480392 0.153088
C57   C     C_3   0.242817 0.905046 0.468114 -0.402168
C58   C     C_3   0.156749 0.962420 0.459165 -0.892034
H33   H     H_    0.119965 0.004281 0.522692 0.259322
H34   H     H_    0.187720 0.004936 0.395585 0.260103
H35   H     H_    0.096243 0.918508 0.452308 0.253415
H36   H     H_    0.273725 0.862242 0.404591 0.199990
H37   H     H_    0.206394 0.861363 0.530235 0.209531
C59   C     C_3   0.759529 0.094761 0.527435 -0.401853
C60   C     C_3   0.846124 0.037349 0.535333 -0.892489
H38   H     H_    0.815925 0.994911 0.599018 0.259657
H39   H     H_    0.882086 0.995404 0.471745 0.259651
H40   H     H_    0.907087 0.081242 0.541357 0.253378
H41   H     H_    0.795315 0.138541 0.465292 0.208645
H42   H     H_    0.729264 0.137458 0.591063 0.200818

loop_
_geom_bond_atom_site_label_1
_geom_bond_atom_site_label_2
_ccdc_geom_bond_type
C57   H37   S    
O5    Zn1   S    
C57   C58   S    
C27   C29   A    
C34   C37   A    
C43   H30   S    
O6    Zn2   S    
C5    C49   A    
C42   H6    S    
C55   H27   S    
C47   C49   A    
C40   C46   A    
C7    H31   S    
C58   H35   S    
C27   N1    A    
C35   C37   A    
C25   H1    S    
C2    O2    A    
C60   H39   S    
C22   C59   S    
C6    H14   S    
C15   C16   A    
C18   C21   A    
C59   C60   S    
O3    Zn2   S    
C15   C17   A    
C59   H42   S    
C24   C40   S    
C26   C34   A    
C31   C32   A    
C19   H11   S    
C7    C17   A    
C54   H21   S    
C39   C45   A    
C21   C57   S    
C48   C50   A    
C53   H22   S    
C38   H18   S    
C41   C43   A    
C37   H17   S    
C42   C44   A    
C23   O7    A    
C26   H2    S    
C41   C49   A    
C45   C47   A    
C53   H23   S    
C46   C48   A    
O8    Zn1   S    
C13   C19   A    
C4    C51   A    
C35   H3    S    
C51   C52   A    
C26   N2    A    
C14   C20   A    
C25   N1    A    
C54   H19   S    
C4    C6    A    
C60   H40   S    
C56   H24   S    
C39   C43   A    
C3    C5    A    
C8    C18   A    
C32   C34   A    
C59   H41   S    
C20   H12   S    
C28   N2    A    
C36   H4    S    
C23   O5    A    
C56   H25   S    
C12   H10   S    
C44   H29   S    
C53   C54   S    
C40   C44   A    
N2    Zn2   S    
C4    H8    S    
C31   C33   A    
C6    C50   A    
C58   H34   S    
C45   C55   S    
C9    C11   A    
C10   C12   A    
C42   C50   A    
C16   C18   A    
C12   C14   A    
C13   C15   A    
O7    Zn2   S    
C14   C16   A    
O1    Zn1   S    
C5    H13   S    
C24   O6    A    
C57   H36   S    
C7    C9    A    
C19   C21   A    
C1    C10   S    
C33   C38   A    
C20   C22   A    
C11   H9    S    
C47   C51   A    
C3    C52   A    
C55   H28   S    
O2    Zn2   S    
C29   C35   A    
C27   H15   S    
C17   C22   A    
N1    Zn1   S    
C30   C36   A    
C36   C38   A    
C8    H32   S    
C41   H5    S    
C29   C31   A    
C60   H38   S    
C56   H26   S    
C30   C32   A    
C11   C13   A    
C24   O8    A    
C55   C56   S    
C23   C39   S    
C28   C30   A    
C1    O1    A    
C58   H33   S    
C28   H16   S    
C1    O3    A    
C46   C53   S    
C48   C52   A    
C8    C10   A    
O4    Zn1   S    
C54   H20   S    
C2    O4    A    
C2    C9    S    
C25   C33   A    
C3    H7    S    
