data_mof_unit_12381.cif
_audit_creation_date              2012-12-10T19:23:59-0500
_audit_creation_method            fapswitch 2.2
_symmetry_space_group_name_H-M    P1
_symmetry_Int_Tables_number       1
_space_group_crystal_system       triclinic
_cell_length_a                    17.776322
_cell_length_b                    16.391494
_cell_length_c                    10.94757
_cell_angle_alpha                 89.902173
_cell_angle_beta                  89.504295
_cell_angle_gamma                 89.982738
_cell_volume                      3189.78398654

loop_
_atom_site_label
_atom_site_type_symbol
_atom_type_description
_atom_site_fract_x
_atom_site_fract_y
_atom_site_fract_z
_atom_type_partial_charge
C1    C     C_R   0.355031 0.499889 0.500531 0.808218
C2    C     C_R   0.644965 0.499871 0.499251 0.807183
C3    C     C_R   0.728233 0.497677 0.500242 -0.133645
C4    C     C_R   0.271764 0.497720 0.498888 -0.133855
C5    C     C_R   0.763836 0.422920 0.526849 -0.244973
C6    C     C_R   0.236268 0.423088 0.471638 -0.243759
C7    C     C_R   0.842025 0.416386 0.527809 0.303201
C8    C     C_R   0.158083 0.416550 0.470164 0.303620
C9    C     C_R   0.885960 0.485253 0.502617 0.047055
C10   C     C_R   0.114048 0.485289 0.495502 0.046715
C11   C     C_1   0.966290 0.481093 0.500241 0.047760
C12   C     C_1   0.033720 0.481098 0.497665 0.047887
C13   C     C_R   0.544625 0.828796 0.581852 -0.215515
C14   C     C_R   0.455492 0.828975 0.417872 -0.215573
C15   C     C_R   0.543630 0.742869 0.580778 0.121064
C16   C     C_R   0.456423 0.743047 0.419115 0.119475
C17   C     C_R   0.500077 0.872928 0.499810 0.133079
C18   C     C_1   0.500109 0.962435 0.499697 -0.008068
C19   C     C_1   0.500119 0.037025 0.499614 -0.037737
C20   C     C_R   0.507503 0.500263 0.261877 0.807990
C21   C     C_R   0.492959 0.500110 0.738287 0.807203
C22   C     C_R   0.564181 0.170550 0.533533 -0.285984
C23   C     C_R   0.435991 0.170649 0.465792 -0.285197
C24   C     C_R   0.562791 0.256497 0.534216 0.109623
C25   C     C_R   0.437284 0.256596 0.465469 0.105208
C26   C     C_R   0.500109 0.126533 0.499582 0.123019
C27   C     C_R   0.533136 0.651495 0.113183 -0.276107
C28   C     C_R   0.465538 0.650766 0.886311 -0.275142
C29   C     C_R   0.517308 0.725306 0.055263 0.270603
C30   C     C_R   0.480594 0.724931 0.943441 0.271122
C31   C     C_R   0.488071 0.575439 0.938769 0.047747
C32   C     C_R   0.511891 0.575751 0.061155 0.048179
C33   C     C_R   0.514173 0.500875 0.126881 -0.164826
C34   C     C_R   0.487288 0.500431 0.873442 -0.164252
C35   C     C_R   0.510463 0.425910 0.062948 -0.061564
C36   C     C_R   0.493743 0.425585 0.937766 -0.062173
C37   C     C_R   0.851819 0.559932 0.477481 -0.249641
C38   C     C_R   0.148083 0.559853 0.521179 -0.249314
C39   C     C_R   0.773452 0.567018 0.475182 -0.006340
C40   C     C_R   0.226435 0.566944 0.523908 -0.006407
Cu1   Cu    Cu3+1 0.500000 0.580420 0.500000 0.952254
Cu2   Cu    Cu3+1 0.500000 0.419580 0.500000 0.955225
H1    H     H_    0.614763 0.138790 0.560853 0.144171
H2    H     H_    0.385446 0.138968 0.438337 0.145536
H3    H     H_    0.612295 0.288769 0.563605 0.119890
H4    H     H_    0.387764 0.288958 0.436131 0.120568
H5    H     H_    0.564509 0.654732 0.196884 0.195698
H6    H     H_    0.433996 0.653404 0.802700 0.196086
H7    H     H_    0.886504 0.612779 0.456926 0.153706
H8    H     H_    0.113321 0.612607 0.541799 0.153781
H9    H     H_    0.730993 0.368889 0.547019 0.171601
H10   H     H_    0.269190 0.369156 0.451369 0.171684
H11   H     H_    0.579898 0.860449 0.646534 0.158010
H12   H     H_    0.420246 0.860772 0.353124 0.158797
H13   H     H_    0.578170 0.709535 0.644613 0.133933
H14   H     H_    0.421891 0.709851 0.355305 0.134087
N1    N     N_R   0.500000 0.701220 0.500000 -0.183935
N2    N     N_R   0.500000 0.298780 0.500000 -0.162862
O1    O     O_R   0.391260 0.567930 0.500000 -0.575977
O2    O     O_R   0.608740 0.567930 0.500000 -0.576231
O3    O     O_R   0.391280 0.432120 0.500000 -0.597903
O4    O     O_R   0.608720 0.432120 0.500000 -0.597924
O5    O     O_R   0.500000 0.567920 0.319650 -0.594749
O6    O     O_R   0.500000 0.567920 0.680350 -0.594246
O7    O     O_R   0.500030 0.432100 0.319660 -0.567010
O8    O     O_R   0.499970 0.432100 0.680340 -0.566987
C41   C     C_R   0.530455 0.347238 0.123210 0.149410
C42   C     C_R   0.476399 0.285571 0.140471 -0.115173
C43   C     C_R   0.497839 0.209307 0.185557 -0.123428
C44   C     C_R   0.572552 0.195020 0.218023 -0.087717
C45   C     C_R   0.625997 0.257028 0.205588 -0.136340
C46   C     C_R   0.605233 0.332792 0.157735 -0.138671
H15   H     H_    0.418310 0.295945 0.115853 0.127668
H16   H     H_    0.456445 0.161329 0.195781 0.144584
H17   H     H_    0.588920 0.136039 0.253568 0.146528
H18   H     H_    0.683722 0.246049 0.231605 0.147414
H19   H     H_    0.647498 0.379770 0.145682 0.120639
C47   C     C_R   0.476956 0.345978 0.878212 0.150460
C48   C     C_R   0.533564 0.287054 0.861133 -0.118307
C49   C     C_R   0.515193 0.209430 0.818109 -0.127990
C50   C     C_R   0.440951 0.191075 0.787453 -0.084535
C51   C     C_R   0.384918 0.250369 0.799604 -0.136483
C52   C     C_R   0.402650 0.327463 0.845491 -0.137098
H20   H     H_    0.591268 0.300532 0.884699 0.128489
H21   H     H_    0.558592 0.163558 0.808058 0.143482
H22   H     H_    0.426936 0.131039 0.753550 0.148464
H23   H     H_    0.327550 0.236221 0.775041 0.146181
H24   H     H_    0.358422 0.372255 0.857661 0.121457
Br1   Br    Br    0.543579 0.825872 0.133250 -0.553686
Br2   Br    Br    0.453569 0.825009 0.864224 -0.553640
C53   C     C_R   0.742491 0.646533 0.438243 0.153049
C54   C     C_R   0.741678 0.711990 0.520672 -0.150483
C55   C     C_R   0.719875 0.789635 0.481505 -0.165427
C56   C     C_R   0.699457 0.802309 0.359937 -0.054777
C57   C     C_R   0.701084 0.737349 0.277363 -0.117123
C58   C     C_R   0.721854 0.659474 0.316449 -0.156709
H25   H     H_    0.758804 0.703036 0.614445 0.131952
H26   H     H_    0.719333 0.840089 0.545136 0.137569
H27   H     H_    0.683073 0.862559 0.329534 0.160745
H28   H     H_    0.687348 0.747357 0.182529 0.170111
H29   H     H_    0.723847 0.609829 0.251303 0.120027
C59   C     C_R   0.257205 0.646340 0.561218 0.153066
C60   C     C_R   0.259039 0.711746 0.478401 -0.149545
C61   C     C_R   0.280245 0.789420 0.517836 -0.165143
C62   C     C_R   0.299065 0.802159 0.640015 -0.052971
C63   C     C_R   0.296470 0.737225 0.722931 -0.116065
C64   C     C_R   0.276270 0.659333 0.683617 -0.159168
H30   H     H_    0.243083 0.702750 0.384124 0.131726
H31   H     H_    0.281515 0.839857 0.453932 0.137551
H32   H     H_    0.314950 0.862444 0.670607 0.161357
H33   H     H_    0.308999 0.747271 0.818175 0.170162
H34   H     H_    0.273419 0.609730 0.749014 0.121400
Br3   Br    Br    0.886501 0.312428 0.563218 -0.463689
Br4   Br    Br    0.113749 0.312762 0.433921 -0.462406

loop_
_geom_bond_atom_site_label_1
_geom_bond_atom_site_label_2
_ccdc_geom_bond_type
C62   H32   S    
C55   C56   A    
C21   O8    A    
C27   C29   A    
C64   H34   S    
C57   C58   A    
C30   Br2   S    
Cu2   N2    S    
C29   Br1   S    
C50   C51   A    
C49   H21   S    
C24   H3    S    
C18   C19   T    
C1    O1    A    
C45   H18   S    
C2    O2    A    
C63   C64   A    
C51   H23   S    
C41   C46   A    
Cu1   Cu2   S    
C23   C26   A    
C19   C26   S    
C21   O6    A    
C46   H19   S    
C59   C60   A    
C53   C58   A    
C47   C52   A    
C4    C40   A    
C42   C43   A    
Cu2   O7    S    
C44   C45   A    
C14   C16   A    
Cu2   O4    S    
C50   H22   S    
C8    Br4   S    
C52   H24   S    
C3    C39   A    
C58   H29   S    
C15   N1    A    
C14   C17   A    
C43   C44   A    
C39   C53   S    
C61   C62   A    
C54   H25   S    
C13   H11   S    
C63   H33   S    
C41   C42   A    
C20   O7    A    
C43   H16   S    
Cu1   O1    S    
C4    C6    A    
C53   C54   A    
C5    C7    A    
C47   C48   A    
C6    C8    A    
C21   C34   S    
C42   H15   S    
C23   H2    S    
C35   C36   A    
C15   H13   S    
C16   H14   S    
C29   C30   A    
C37   H7    S    
C31   C32   A    
C35   C41   S    
C9    C37   A    
C17   C18   S    
C31   C34   A    
C59   C64   A    
C9    C11   S    
Cu2   O3    S    
C60   H30   S    
C10   C12   S    
C20   C33   S    
C8    C10   A    
C14   H12   S    
C13   C15   A    
C22   C24   A    
C25   N2    A    
Cu1   O5    S    
C44   H17   S    
C27   H5    S    
C7    C9    A    
C28   H6    S    
C48   H20   S    
C27   C32   A    
C57   H28   S    
C28   C31   A    
Cu1   O2    S    
C49   C50   A    
C3    C5    A    
C1    O3    A    
C11   C12   T    
C38   H8    S    
C62   C63   A    
C13   C17   A    
C10   C38   A    
C1    C4    S    
C32   C33   A    
C7    Br3   S    
C20   O5    A    
C28   C30   A    
C2    C3    S    
Cu1   N1    S    
C45   C46   A    
C37   C39   A    
C36   C47   S    
C38   C40   A    
C61   H31   S    
C56   H27   S    
C25   H4    S    
C54   C55   A    
C33   C35   A    
C34   C36   A    
C16   N1    A    
C23   C25   A    
C56   C57   A    
C40   C59   S    
C48   C49   A    
C24   N2    A    
C51   C52   A    
C22   C26   A    
C60   C61   A    
Cu2   O8    S    
C5    H9    S    
Cu1   O6    S    
C6    H10   S    
C55   H26   S    
C22   H1    S    
C2    O4    A    
