data_mof_unit_23896.cif
_audit_creation_date              2012-12-10T18:33:44-0500
_audit_creation_method            fapswitch 2.2
_symmetry_space_group_name_H-M    P1
_symmetry_Int_Tables_number       1
_space_group_crystal_system       triclinic
_cell_length_a                    10.499674
_cell_length_b                    15.007701
_cell_length_c                    15.426334
_cell_angle_alpha                 82.238416
_cell_angle_beta                  89.738907
_cell_angle_gamma                 104.595084
_cell_volume                      2328.93965627

loop_
_atom_site_label
_atom_site_type_symbol
_atom_type_description
_atom_site_fract_x
_atom_site_fract_y
_atom_site_fract_z
_atom_type_partial_charge
C1    C     C_R   0.484447 0.441908 0.662281 0.895811
C2    C     C_R   0.597870 0.495927 0.041990 0.106206
C3    C     C_R   0.606093 0.404258 0.071884 -0.251713
C4    C     C_R   0.615754 0.618449 0.919221 -0.251683
C5    C     C_R   0.593573 0.338442 0.014931 -0.130738
C6    C     C_R   0.627678 0.684463 0.975632 -0.130781
C7    C     C_R   0.684363 0.839693 0.644026 -0.298285
C8    C     C_R   0.312366 0.159386 0.357933 -0.293680
C9    C     C_R   0.656490 0.751820 0.618813 0.012986
C10   C     C_R   0.341955 0.247733 0.382104 0.013997
C11   C     C_R   0.517108 0.794527 0.508780 -0.039441
C12   C     C_R   0.521558 0.558291 0.337698 0.894535
C13   C     C_R   0.482630 0.205426 0.491451 -0.043117
C14   C     C_R   0.541215 0.885276 0.531062 0.001244
C15   C     C_R   0.456276 0.114067 0.470506 0.000229
C16   C     C_R   0.742627 0.500945 0.500211 0.860021
C17   C     C_R   0.257350 0.499034 0.499839 0.863906
C18   C     C_R   0.626706 0.906729 0.600533 0.166553
C19   C     C_R   0.369667 0.092292 0.401673 0.165014
C20   C     C_R   0.483474 0.954457 0.487608 0.078071
C21   C     C_R   0.513006 0.044621 0.514556 0.073229
C22   C     C_R   0.597785 0.062240 0.584693 -0.202717
C23   C     C_R   0.518960 0.473145 0.812331 -0.252469
C24   C     C_R   0.397175 0.936431 0.418316 -0.207928
C25   C     C_R   0.653478 0.994507 0.626514 -0.180010
C26   C     C_R   0.341225 0.004071 0.376647 -0.178123
C27   C     C_3   0.931701 0.431545 0.560648 -0.171687
C28   C     C_3   0.068192 0.568400 0.439481 -0.173050
C29   C     C_3   0.047017 0.512394 0.579596 -0.167096
C30   C     C_3   0.952887 0.487551 0.420529 -0.168464
C31   C     C_3   0.121551 0.497773 0.499572 0.016951
C32   C     C_3   0.878371 0.502174 0.500549 0.018573
C33   C     C_3   0.008888 0.416888 0.480617 -0.135879
C34   C     C_R   0.561444 0.531891 0.188096 -0.257230
C35   C     C_3   0.991014 0.583054 0.519510 -0.135086
C36   C     C_R   0.498716 0.408428 0.754278 -0.140336
C37   C     C_R   0.551233 0.594273 0.244975 -0.142851
C38   C     C_R   0.541929 0.292675 0.868594 0.448071
C39   C     C_R   0.604060 0.721618 0.124677 0.446861
C40   C     C_R   0.510289 0.318267 0.782162 -0.262401
C41   C     C_R   0.575178 0.689124 0.213745 -0.258898
C42   C     C_R   0.561267 0.452982 0.896278 0.043939
C43   C     C_R   0.593358 0.561418 0.099354 0.045912
C44   C     C_R   0.566062 0.360286 0.926961 0.006920
C45   C     C_R   0.609690 0.657057 0.066224 0.008954
C46   C     C_R   0.591577 0.522755 0.951573 0.108098
H1    H     H_    0.089967 0.522147 0.644347 0.146551
H2    H     H_    0.370053 0.870459 0.394263 0.146613
H3    H     H_    0.871376 0.376147 0.610098 0.146288
H4    H     H_    0.128453 0.623833 0.390041 0.142244
H5    H     H_    0.020150 0.349210 0.464767 0.151450
H6    H     H_    0.979732 0.650726 0.535363 0.151590
H7    H     H_    0.601131 0.269761 0.041803 0.219044
H8    H     H_    0.645092 0.756350 0.946692 0.217300
H9    H     H_    0.538084 0.458935 0.213579 0.173728
H10   H     H_    0.499897 0.539920 0.791055 0.173156
H11   H     H_    0.569163 0.737475 0.258748 0.213712
H12   H     H_    0.909878 0.477813 0.355788 0.144113
H13   H     H_    0.496653 0.268549 0.736144 0.210989
H14   H     H_    0.626371 0.382403 0.138853 0.153151
H15   H     H_    0.629048 0.644243 0.850054 0.147693
H16   H     H_    0.718003 0.011038 0.679967 0.167839
H17   H     H_    0.275354 0.987169 0.323945 0.164668
H18   H     H_    0.540311 0.054855 0.836658 0.403629
H19   H     H_    0.629699 0.965065 0.148831 0.405908
H20   H     H_    0.548168 0.229557 0.541500 0.128814
H21   H     H_    0.453210 0.770811 0.457809 0.128117
H22   H     H_    0.298870 0.300515 0.348682 0.138760
H23   H     H_    0.699421 0.698979 0.652304 0.133448
H24   H     H_    0.749700 0.854957 0.697286 0.158379
H25   H     H_    0.245823 0.143747 0.305364 0.162347
H26   H     H_    0.623178 0.127775 0.609646 0.158347
N1    N     N_R   0.574200 0.731700 0.552740 -0.101481
N2    N     N_R   0.425800 0.268300 0.447260 -0.103285
O1    O     O_R   0.462600 0.383110 0.605620 -0.614597
O2    O     O_2   0.452826 0.130117 0.972167 -0.271969
O3    O     O_3   0.526070 0.116535 0.814419 -0.569999
O4    O     O_2   0.761441 0.880577 0.043782 -0.282388
O5    O     O_2   0.523688 0.856755 0.026506 -0.282896
O6    O     O_3   0.619031 0.899438 0.174903 -0.559814
O7    O     O_R   0.537400 0.616890 0.394380 -0.616073
O8    O     O_R   0.510210 0.531900 0.639510 -0.623377
O9    O     O_R   0.489790 0.468100 0.360490 -0.624107
O10   O     O_R   0.662240 0.425610 0.483080 -0.621912
O11   O     O_R   0.337760 0.574390 0.516920 -0.619379
O12   O     O_R   0.709860 0.574400 0.516970 -0.622897
O13   O     O_R   0.290140 0.425600 0.483030 -0.621838
O14   O     O_2   0.688836 0.178489 0.931858 -0.292978
S1    S     S_3+6 0.553412 0.176914 0.899776 0.023300
S2    S     S_3+6 0.628114 0.842374 0.089315 0.025859
Zn1   Zn    Zn3+2 0.468210 0.400660 0.477370 0.944103
Zn2   Zn    Zn3+2 0.531790 0.599340 0.522630 0.945429

loop_
_geom_bond_atom_site_label_1
_geom_bond_atom_site_label_2
_ccdc_geom_bond_type
C30   C32   S    
C6    C45   A    
O13   Zn1   S    
C27   C29   S    
C34   C37   A    
H18   O3    S    
C14   C18   A    
O6    S2    S    
C7    H24   S    
C23   H10   S    
C39   C41   A    
C4    C46   A    
O4    S2    D    
C15   C19   A    
C38   S1    S    
O3    S1    S    
C23   C42   A    
C9    N1    A    
C29   H1    S    
C17   O11   A    
C5    H7    S    
C9    H23   S    
C11   C14   A    
C16   O10   A    
O8    Zn2   S    
C42   C46   A    
C12   C37   S    
C19   C26   A    
O5    S2    D    
C2    C46   A    
O7    Zn2   S    
C28   H4    S    
C20   C24   A    
C28   C35   S    
C22   C25   A    
C31   C33   S    
O10   Zn1   S    
C39   S2    S    
O1    Zn1   S    
O2    S1    D    
C39   C45   A    
C3    H14   S    
C34   H9    S    
C40   H13   S    
C21   C22   A    
C16   O12   A    
C18   C25   A    
C42   C44   A    
C6    H8    S    
C22   H26   S    
O11   Zn2   S    
C11   H21   S    
C13   H20   S    
C8    C19   A    
C1    O1    A    
C32   C35   S    
C14   C20   A    
C36   C40   A    
C4    C6    A    
C11   N1    A    
C1    O8    A    
C4    H15   S    
C27   C33   S    
C12   O9    A    
C24   H2    S    
N2    Zn1   S    
C26   H17   S    
C38   C44   A    
C2    C43   A    
C7    C18   A    
C20   C21   A    
C43   C45   A    
C5    C44   A    
C13   C15   A    
C17   C31   S    
C33   H5    S    
C7    C9    A    
C8    H25   S    
C30   C33   S    
C27   C32   S    
C17   O13   A    
C28   C31   S    
C34   C43   A    
N1    Zn2   S    
C24   C26   A    
C3    C5    A    
C10   H22   S    
C16   C32   S    
O9    Zn1   S    
C29   C35   S    
C28   C30   S    
C2    C3    A    
C41   H11   S    
C29   C31   S    
O12   Zn2   S    
C38   C40   A    
C10   N2    A    
C30   H12   S    
C12   O7    A    
C25   H16   S    
C37   C41   A    
C15   C21   A    
O14   S1    D    
C8    C10   A    
C23   C36   A    
C35   H6    S    
H19   O6    S    
C27   H3    S    
C1    C36   S    
C13   N2    A    
