data_mof_unit_19499.cif
_audit_creation_date              2012-12-10T20:32:43-0500
_audit_creation_method            fapswitch 2.2
_symmetry_space_group_name_H-M    P1
_symmetry_Int_Tables_number       1
_space_group_crystal_system       triclinic
_cell_length_a                    11.522279
_cell_length_b                    10.693836
_cell_length_c                    9.954175
_cell_angle_alpha                 89.587092
_cell_angle_beta                  89.781177
_cell_angle_gamma                 90.157426
_cell_volume                      1226.48166631

loop_
_atom_site_label
_atom_site_type_symbol
_atom_type_description
_atom_site_fract_x
_atom_site_fract_y
_atom_site_fract_z
_atom_type_partial_charge
C1    C     C_R   0.506750 0.260383 0.500265 0.899497
C2    C     C_R   0.528928 0.129007 0.501194 -0.204121
C3    C     C_R   0.560544 0.064930 0.382838 0.527185
C4    C     C_R   0.558315 0.934308 0.383473 -0.321643
C5    C     C_R   0.520958 0.870710 0.499400 -0.208511
C6    C     C_R   0.508191 0.935719 0.618179 0.019059
C7    C     C_3   0.421299 0.931070 0.731475 1.005753
C8    C     C_3   0.437405 0.074220 0.738880 -0.234995
C9    C     C_R   0.405693 0.541169 0.071076 0.001965
C10   C     C_R   0.595781 0.463424 0.070776 0.160394
C11   C     C_R   0.595981 0.466120 0.927472 -0.192492
C12   C     C_R   0.282198 0.500259 0.500282 0.894369
C13   C     C_R   0.404594 0.535815 0.929338 0.114675
C14   C     C_3   0.285481 0.478261 0.927269 -0.229583
C15   C     C_3   0.283030 0.492836 0.080707 0.561586
C16   C     C_R   0.503451 0.739521 0.499474 0.912544
C17   C     C_R   0.717841 0.500064 0.499791 0.896706
C18   C     C_1   0.161698 0.500882 0.500960 -0.189894
C19   C     C_1   0.059426 0.501124 0.500839 -0.017582
C20   C     C_1   0.940690 0.500882 0.499995 -0.006312
C21   C     C_1   0.838403 0.500483 0.499507 -0.175571
C22   C     C_R   0.517929 0.062365 0.620817 -0.120297
H1    H     H_    0.579399 0.884258 0.292373 0.185443
H2    H     H_    0.358141 0.130268 0.719551 0.155875
H3    H     H_    0.672703 0.436977 0.873282 0.152896
H4    H     H_    0.220771 0.535794 0.872092 0.166031
N1    N     N_R   0.499240 0.499140 0.142800 -0.080425
N2    N     N_R   0.499240 0.499180 0.857150 -0.093101
O1    O     O_R   0.500010 0.316790 0.614690 -0.643054
O2    O     O_R   0.500000 0.316760 0.385350 -0.544965
O3    O     O_R   0.334450 0.500030 0.614670 -0.624164
O4    O     O_R   0.334440 0.500000 0.385330 -0.587073
O5    O     O_R   0.500000 0.683240 0.614650 -0.562371
O6    O     O_R   0.499990 0.683210 0.385310 -0.645217
O7    O     O_R   0.665560 0.500000 0.614670 -0.623562
O8    O     O_R   0.665550 0.499970 0.385330 -0.587397
Zn1   Zn    Zn3+2 0.500010 0.500020 0.653130 0.963822
Zn2   Zn    Zn3+2 0.499990 0.499980 0.346870 0.999272
O9    O     O_3   0.592829 0.129689 0.267979 -0.600300
C23   C     C_3   0.502974 0.120696 0.172858 -0.255110
H5    H     H_    0.512747 0.199236 0.100633 0.204315
H6    H     H_    0.414619 0.129456 0.218082 0.162986
H7    H     H_    0.510428 0.031473 0.117603 0.166996
N3    N     N_3   0.285152 0.346822 0.885766 -0.434820
H8    H     H_    0.352738 0.298554 0.932588 0.221599
H9    H     H_    0.299465 0.342141 0.782595 0.226649
N4    N     N_3   0.201225 0.589148 0.127246 -0.481074
H10   H     H_    0.228795 0.623192 0.219777 0.197956
H11   H     H_    0.201802 0.665691 0.061448 0.120997
O10   O     O_3   0.276501 0.379102 0.155106 -0.571377
C24   C     C_3   0.161007 0.334840 0.163150 -0.246986
H12   H     H_    0.162463 0.236470 0.199190 0.159946
H13   H     H_    0.116467 0.336347 0.064227 0.174550
H14   H     H_    0.110437 0.389884 0.237019 0.180890
O11   O     O_3   0.306498 0.888682 0.698634 -0.634738
C25   C     C_3   0.262694 0.929215 0.572875 -0.409547
H15   H     H_    0.284912 0.860484 0.494045 0.176851
H16   H     H_    0.291684 0.023938 0.541470 0.141189
H17   H     H_    0.166657 0.931947 0.579791 0.212149
O12   O     O_3   0.468596 0.864761 0.842345 -0.613356
C26   C     C_3   0.388010 0.858880 0.949429 -0.272279
H18   H     H_    0.317248 0.792140 0.925954 0.190772
H19   H     H_    0.350726 0.952016 0.973277 0.161080
H20   H     H_    0.433008 0.823642 0.040395 0.159410
N5    N     N_3   0.500525 0.115880 0.857942 -0.481629
H21   H     H_    0.579251 0.067943 0.867090 0.231579
H22   H     H_    0.522430 0.209918 0.844166 0.210541
N6    N     N_3   0.695808 0.417837 0.139397 -0.376439
H23   H     H_    0.712147 0.326975 0.106335 0.187894
H24   H     H_    0.766584 0.473705 0.111340 0.164567

loop_
_geom_bond_atom_site_label_1
_geom_bond_atom_site_label_2
_ccdc_geom_bond_type
C10   N1    A    
C2    C22   A    
C26   H20   S    
C8    C22   S    
O11   C25   S    
C13   N2    A    
C6    C7    S    
C8    H2    S    
C17   O8    A    
C10   N6    S    
C16   O5    A    
C24   H13   S    
C5    C16   S    
C19   C20   S    
C25   H17   S    
C7    O11   S    
C24   H14   S    
C23   H7    S    
O8    Zn2   S    
O10   C24   S    
C9    C15   S    
C3    O9    S    
C8    N5    S    
N4    H11   S    
C13   C14   S    
C12   O4    A    
C9    N1    A    
C1    O1    A    
C5    C6    A    
C14   H4    S    
N2    Zn1   S    
C4    C5    A    
C11   N2    A    
C23   H6    S    
C23   H5    S    
O7    Zn1   S    
N3    H9    S    
C18   C19   T    
C2    C3    A    
O4    Zn2   S    
N5    H21   S    
C12   O3    A    
C26   H18   S    
C17   C21   S    
C10   C11   A    
C11   H3    S    
N1    Zn2   S    
O1    Zn1   S    
C3    C4    A    
C6    C22   A    
N4    H10   S    
C7    O12   S    
C7    C8    S    
C24   H12   S    
C20   C21   T    
O2    Zn2   S    
C14   N3    S    
C1    C2    S    
C15   O10   S    
C12   C18   S    
O9    C23   S    
C25   H15   S    
N6    H24   S    
C9    C13   A    
C14   C15   S    
C1    O2    A    
C15   N4    S    
C17   O7    A    
C16   O6    A    
C4    H1    S    
O6    Zn2   S    
N6    H23   S    
C26   H19   S    
O5    Zn1   S    
N3    H8    S    
O3    Zn1   S    
C25   H16   S    
O12   C26   S    
N5    H22   S    
