data_mof_unit_14232.cif
_audit_creation_date              2012-12-10T17:35:35-0500
_audit_creation_method            fapswitch 2.2
_symmetry_space_group_name_H-M    P1
_symmetry_Int_Tables_number       1
_space_group_crystal_system       triclinic
_cell_length_a                    10.79427
_cell_length_b                    12.395142
_cell_length_c                    13.279608
_cell_angle_alpha                 116.659028
_cell_angle_beta                  76.06905
_cell_angle_gamma                 102.34106
_cell_volume                      1529.6890331

loop_
_atom_site_label
_atom_site_type_symbol
_atom_type_description
_atom_site_fract_x
_atom_site_fract_y
_atom_site_fract_z
_atom_type_partial_charge
C1    C     C_R   0.509701 0.854651 0.286750 0.782614
C2    C     C_3   0.119912 0.002972 0.505128 0.022801
C3    C     C_3   0.033848 0.011962 0.621393 -0.145614
C4    C     C_3   0.068663 0.882054 0.406894 -0.211096
C5    C     C_R   0.445145 0.268803 0.036659 -0.141237
C6    C     C_R   0.484018 0.226455 0.835654 -0.101790
C7    C     C_R   0.573904 0.819285 0.083699 -0.248312
C8    C     C_R   0.615535 0.743282 0.970540 0.000343
C9    C     C_R   0.601308 0.616638 0.935485 -0.057514
C10   C     C_R   0.525120 0.564577 0.010913 0.030500
C11   C     C_R   0.481203 0.643846 0.125867 0.058830
C12   C     C_R   0.739885 0.000062 0.499029 0.769039
C13   C     C_R   0.495427 0.436709 0.979222 0.079699
C14   C     C_R   0.450676 0.392439 0.064489 0.102625
C15   C     C_R   0.402888 0.470728 0.174387 -0.214379
C16   C     C_R   0.406087 0.592405 0.200499 -0.168805
C17   C     C_R   0.497578 0.351639 0.865906 -0.239776
C18   C     C_R   0.468623 0.185790 0.922791 0.156553
C19   C     C_R   0.516210 0.771573 0.163877 -0.127080
C20   C     C_R   0.703333 0.346008 0.321170 -0.104810
C21   C     C_R   0.329337 0.758426 0.650411 0.123706
C22   C     C_R   0.309216 0.672735 0.694981 -0.250583
C23   C     C_R   0.487297 0.144640 0.713470 0.818507
C24   C     C_R   0.381938 0.576477 0.646605 0.154944
C25   C     C_R   0.467566 0.556277 0.541474 -0.032904
C26   C     C_R   0.493855 0.653825 0.505480 0.216096
C27   C     C_R   0.533136 0.448596 0.474340 -0.077749
C28   C     C_R   0.631585 0.446473 0.380148 0.068665
C29   C     C_R   0.657440 0.545893 0.349773 0.082870
C30   C     C_R   0.592449 0.646820 0.414030 -0.217500
C31   C     C_R   0.501228 0.340221 0.493425 -0.020995
C32   C     C_R   0.677996 0.251350 0.355954 0.288538
C33   C     C_R   0.259369 0.001599 0.503008 0.746908
C34   C     C_3   0.962949 0.100869 0.465475 -0.362948
C35   C     C_3   0.102077 0.113095 0.482076 0.003400
C36   C     C_3   0.894365 0.025478 0.621393 -0.389181
C37   C     C_3   0.922562 0.877593 0.413228 -0.440615
C38   C     C_3   0.877296 0.001373 0.499893 0.091899
Cu1   Cu    Cu3+1 0.529690 0.098270 0.475420 0.930606
Cu2   Cu    Cu3+1 0.470310 0.901730 0.524580 0.942761
H1    H     H_    0.923812 0.189689 0.516442 0.201764
H2    H     H_    0.826742 0.960117 0.651080 0.181105
H3    H     H_    0.031551 0.926137 0.629514 0.163958
H4    H     H_    0.355606 0.436640 0.238113 0.152539
H5    H     H_    0.420812 0.236373 0.103325 0.146771
H6    H     H_    0.502013 0.382337 0.800995 0.171713
H7    H     H_    0.595188 0.916881 0.110730 0.170096
H8    H     H_    0.962789 0.075631 0.373845 0.140009
H9    H     H_    0.349398 0.644403 0.280447 0.198619
H10   H     H_    0.417034 0.327821 0.550595 0.131121
H11   H     H_    0.241189 0.685048 0.773135 0.168343
H12   H     H_    0.624736 0.719713 0.389069 0.208369
H13   H     H_    0.166875 0.109896 0.401674 0.139117
H14   H     H_    0.868871 0.118171 0.682107 0.178082
H15   H     H_    0.865879 0.805714 0.440089 0.188319
H16   H     H_    0.902515 0.854634 0.326976 0.144975
H17   H     H_    0.119548 0.881701 0.323219 0.125540
N1    N     N_R   0.574690 0.246280 0.438200 -0.188770
N2    N     N_R   0.426100 0.754320 0.561190 -0.217990
O1    O     O_R   0.537340 0.972510 0.318130 -0.591392
O2    O     O_R   0.487200 0.806530 0.359650 -0.609888
O3    O     O_R   0.707380 0.082980 0.479220 -0.594601
O4    O     O_R   0.657240 0.917000 0.520740 -0.602363
O5    O     O_R   0.512800 0.193470 0.640350 -0.578660
O6    O     O_R   0.462660 0.027490 0.681870 -0.587392
O7    O     O_R   0.342760 0.083000 0.479260 -0.599488
O8    O     O_R   0.292620 0.917020 0.520780 -0.568287
C39   C     C_1   0.092161 0.769459 0.408335 0.262888
N3    N     N_1   0.109611 0.681230 0.409720 -0.285764
N4    N     N_3   0.475374 0.062625 0.899880 -0.584874
H18   H     H_    0.559751 0.034259 0.842781 0.240424
H19   H     H_    0.395630 0.007880 0.864397 0.248746
C40   C     C_1   0.680369 0.546169 0.829550 0.208408
N5    N     N_1   0.743855 0.490525 0.745119 -0.270821
C41   C     C_1   0.681591 0.798493 0.893363 0.266631
N6    N     N_1   0.734245 0.842606 0.831606 -0.291751
N7    N     N_3   0.770115 0.166320 0.308537 -0.608945
H20   H     H_    0.728062 0.076754 0.278950 0.259663
H21   H     H_    0.826990 0.187742 0.369499 0.228677
N8    N     N_3   0.748046 0.545610 0.250872 -0.582463
H22   H     H_    0.819439 0.619286 0.276837 0.218160
H23   H     H_    0.700249 0.556972 0.197109 0.231893
C42   C     C_1   0.810313 0.338917 0.228715 0.358213
N9    N     N_1   0.895729 0.332353 0.155019 -0.243435
C43   C     C_1   0.251740 0.856255 0.709073 0.289975
N10   N     N_1   0.188201 0.934246 0.759415 -0.312751
N11   N     N_3   0.382778 0.518729 0.718736 -0.595277
H24   H     H_    0.310044 0.445585 0.705971 0.218533
H25   H     H_    0.473607 0.494592 0.707518 0.228569
N12   N     N_3   0.130217 0.232747 0.575346 -0.573089
H26   H     H_    0.216988 0.240113 0.600294 0.227469
H27   H     H_    0.140928 0.299517 0.545084 0.215984
C44   C     C_1   0.082586 0.111630 0.722729 0.311133
N13   N     N_1   0.120678 0.189684 0.802132 -0.256824

loop_
_geom_bond_atom_site_label_1
_geom_bond_atom_site_label_2
_ccdc_geom_bond_type
C2    C35   S    
C18   N4    S    
N11   H24   S    
C44   N13   T    
C35   H13   S    
C40   N5    T    
C36   H2    S    
C32   N1    A    
C7    C8    A    
N7    H20   S    
Cu1   O5    S    
C11   C19   A    
C37   C38   S    
Cu2   O4    S    
C31   N1    A    
C28   C29   A    
C15   H4    S    
C21   N2    A    
Cu1   O1    S    
C15   C16   A    
C34   C35   S    
C6    C17   A    
C32   N7    S    
C37   H16   S    
C39   N3    T    
Cu2   O8    S    
C4    H17   S    
C24   C25   A    
N4    H18   S    
C9    C10   A    
Cu2   N2    S    
C21   C22   A    
C34   H1    S    
C9    C40   S    
C33   O7    A    
N7    H21   S    
C6    C18   A    
C21   C43   S    
C1    C19   S    
C27   C31   A    
C17   H6    S    
N8    H23   S    
C1    O1    A    
Cu1   Cu2   S    
C4    C39   S    
C12   O4    A    
C8    C9    A    
C5    C18   A    
C20   C28   A    
C25   C26   A    
C43   N10   T    
Cu1   N1    S    
C5    H5    S    
C8    C41   S    
Cu2   O2    S    
C7    H7    S    
C2    C4    S    
C41   N6    T    
C29   C30   A    
C12   O3    A    
C11   C16   A    
N12   H27   S    
C42   N9    T    
C3    H3    S    
C3    C44   S    
C16   H9    S    
C5    C14   A    
C2    C33   S    
C23   O5    A    
C26   C30   A    
C7    C19   A    
Cu2   O6    S    
N11   H25   S    
Cu1   O7    S    
C22   C24   A    
C34   H8    S    
C31   H10   S    
C33   O8    A    
C20   C32   A    
Cu1   O3    S    
C30   H12   S    
C34   C38   S    
N8    H22   S    
C10   C13   A    
C1    O2    A    
C25   C27   A    
C13   C17   A    
C23   O6    A    
C36   C38   S    
C2    C3    S    
N12   H26   S    
C29   N8    S    
C3    C36   S    
C6    C23   S    
C12   C38   S    
C24   N11   S    
C36   H14   S    
C10   C11   A    
C37   H15   S    
C35   N12   S    
C4    C37   S    
C20   C42   S    
C27   C28   A    
C14   C15   A    
C26   N2    A    
N4    H19   S    
C13   C14   A    
C22   H11   S    
