data_mof_unit_54499.cif
_audit_creation_date              2012-12-10T17:27:09-0500
_audit_creation_method            fapswitch 2.2
_symmetry_space_group_name_H-M    P1
_symmetry_Int_Tables_number       1
_space_group_crystal_system       triclinic
_cell_length_a                    18.548845
_cell_length_b                    17.511405
_cell_length_c                    12.041949
_cell_angle_alpha                 87.879191
_cell_angle_beta                  83.359461
_cell_angle_gamma                 90.92369
_cell_volume                      3881.69947536

loop_
_atom_site_label
_atom_site_type_symbol
_atom_type_description
_atom_site_fract_x
_atom_site_fract_y
_atom_site_fract_z
_atom_type_partial_charge
C1    C     C_R   0.406077 0.107163 0.520099 0.886971
C2    C     C_R   0.535380 0.998966 0.017909 -0.020653
C3    C     C_3   0.868279 0.236163 0.825474 -0.851745
C4    C     C_3   0.888283 0.705917 0.730953 -0.361293
C5    C     C_3   0.908745 0.782832 0.777739 -0.861501
C6    C     C_3   0.135211 0.320812 0.255918 -0.378095
C7    C     C_3   0.163263 0.285567 0.145170 -0.850916
C8    C     C_1   0.716817 0.228640 0.756662 0.166888
C9    C     C_1   0.280488 0.771622 0.238324 0.146664
C10   C     C_1   0.211275 0.168330 0.292184 0.161881
C11   C     C_1   0.756505 0.795603 0.746958 0.168514
C12   C     C_1   0.216851 0.728586 0.756679 0.167034
C13   C     C_R   0.964412 0.496087 0.982143 -0.021600
C14   C     C_1   0.780508 0.271599 0.238316 0.146695
C15   C     C_1   0.711243 0.668308 0.292191 0.161875
C16   C     C_1   0.256570 0.295673 0.746914 0.168502
C17   C     C_1   0.671003 0.989098 0.963376 0.162820
C18   C     C_1   0.328958 0.979049 0.038659 0.169573
C19   C     C_1   0.171005 0.489122 0.963374 0.162851
C20   C     C_1   0.828957 0.479034 0.038661 0.169541
C21   C     C_R   0.035380 0.498971 0.017908 -0.020657
C22   C     C_R   0.587180 0.998575 0.822367 0.050628
C23   C     C_R   0.412827 0.994145 0.177987 0.043634
C24   C     C_R   0.087180 0.498585 0.822367 0.050632
C25   C     C_R   0.912827 0.494140 0.177987 0.043652
C26   C     C_R   0.597128 0.996974 0.935827 -0.127436
C27   C     C_R   0.402802 0.991102 0.064778 -0.127792
C28   C     C_R   0.097128 0.496987 0.935826 -0.127446
C29   C     C_R   0.595322 0.894013 0.479550 0.888030
C30   C     C_R   0.902802 0.491093 0.064779 -0.127799
C31   C     C_R   0.458660 0.998400 0.864989 0.025945
C32   C     C_R   0.541140 0.003413 0.134539 0.037357
C33   C     C_R   0.958660 0.498394 0.864989 0.025933
C34   C     C_R   0.041140 0.503420 0.134538 0.037349
C35   C     C_R   0.642811 0.175633 0.454325 -0.139456
C36   C     C_R   0.359249 0.822531 0.543899 -0.150565
C37   C     C_R   0.358841 0.174243 0.531148 -0.160354
C38   C     C_R   0.640286 0.825226 0.469726 -0.166425
C39   C     C_R   0.142811 0.675632 0.454338 -0.139456
C40   C     C_R   0.595259 0.106970 0.475494 0.881392
C41   C     C_R   0.859239 0.322540 0.543902 -0.150528
C42   C     C_R   0.858816 0.674224 0.531159 -0.160321
C43   C     C_R   0.140305 0.325241 0.469722 -0.166405
C44   C     C_R   0.256029 0.757860 0.651723 -0.006941
C45   C     C_R   0.744635 0.240860 0.344718 -0.008917
C46   C     C_R   0.711317 0.731252 0.367150 0.007919
C47   C     C_R   0.275457 0.252837 0.646985 -0.006472
C48   C     C_R   0.756004 0.257893 0.651712 -0.006903
C49   C     C_R   0.244627 0.740869 0.344727 -0.008923
C50   C     C_R   0.211347 0.231276 0.367140 0.007911
C51   C     C_R   0.405179 0.892657 0.524135 0.889657
C52   C     C_R   0.775408 0.752788 0.647011 -0.006472
C53   C     C_R   0.322737 0.797950 0.650679 0.088766
C54   C     C_R   0.676847 0.202400 0.347790 0.106998
C55   C     C_R   0.661477 0.790581 0.365271 0.064745
C56   C     C_R   0.340378 0.210942 0.634720 0.088612
C57   C     C_R   0.822719 0.297964 0.650675 0.088795
C58   C     C_R   0.176837 0.702411 0.347805 0.107014
C59   C     C_R   0.161496 0.290596 0.365266 0.064742
C60   C     C_R   0.840342 0.710911 0.634735 0.088629
C61   C     C_R   0.344868 0.782574 0.449135 0.116110
C62   C     C_R   0.906070 0.607158 0.520102 0.886936
C63   C     C_R   0.657508 0.216125 0.546968 0.110642
C64   C     C_R   0.663051 0.791521 0.568774 0.119773
C65   C     C_R   0.325754 0.198403 0.436262 0.112372
C66   C     C_R   0.844863 0.282579 0.449141 0.116096
C67   C     C_R   0.157519 0.716108 0.546991 0.110659
C68   C     C_R   0.163090 0.291553 0.568766 0.119768
C69   C     C_R   0.825723 0.698379 0.436275 0.112369
C70   C     C_R   0.274081 0.753587 0.446674 -0.018007
C71   C     C_R   0.728480 0.243792 0.549401 -0.014402
C72   C     C_R   0.730916 0.756421 0.558641 -0.025391
C73   C     C_R   0.095327 0.394016 0.479549 0.888034
C74   C     C_R   0.256313 0.228228 0.453617 -0.020314
C75   C     C_R   0.774076 0.253594 0.446669 -0.018021
C76   C     C_R   0.228496 0.743769 0.549415 -0.014422
C77   C     C_R   0.230959 0.256463 0.558621 -0.025402
C78   C     C_R   0.756279 0.728196 0.453633 -0.020319
C79   C     C_1   0.350068 0.991551 0.261569 0.274674
C80   C     C_1   0.649898 0.998840 0.738805 0.287023
C81   C     C_1   0.850068 0.491546 0.261569 0.274655
C82   C     C_1   0.149898 0.498856 0.738805 0.286999
C83   C     C_1   0.609349 0.015237 0.178290 0.211429
C84   C     C_R   0.095258 0.606971 0.475496 0.881386
C85   C     C_1   0.390237 0.001913 0.819297 0.223916
C86   C     C_1   0.109347 0.515253 0.178289 0.211433
C87   C     C_1   0.890236 0.501897 0.819295 0.223909
C88   C     C_3   0.594461 0.248698 0.621646 -0.390878
C89   C     C_3   0.542516 0.290855 0.552045 -0.878750
C90   C     C_3   0.406492 0.762067 0.360115 -0.382520
C91   C     C_3   0.470976 0.728575 0.410758 -0.902915
C92   C     C_3   0.366782 0.203835 0.317812 -0.345777
C93   C     C_3   0.440983 0.242690 0.313904 -0.892471
C94   C     C_3   0.612403 0.781126 0.678255 -0.360237
C95   C     C_R   0.905176 0.392660 0.524136 0.889659
C96   C     C_3   0.539056 0.746349 0.661786 -0.895019
C97   C     C_3   0.094480 0.748682 0.621685 -0.390893
C98   C     C_3   0.042537 0.790856 0.552101 -0.878747
C99   C     C_3   0.906498 0.262056 0.360148 -0.382514
C100  C     C_3   0.970975 0.228576 0.410830 -0.902885
C101  C     C_3   0.866751 0.703818 0.317825 -0.345760
C102  C     C_3   0.940947 0.742684 0.313917 -0.892478
C103  C     C_3   0.112464 0.281172 0.678269 -0.360155
C104  C     C_3   0.039108 0.246399 0.661855 -0.895135
C105  C     C_3   0.639180 0.200860 0.241381 -0.372343
C106  C     C_R   0.464413 0.996090 0.982143 -0.021596
C107  C     C_3   0.615440 0.280580 0.205243 -0.859137
C108  C     C_3   0.353141 0.810890 0.762066 -0.370891
C109  C     C_3   0.368195 0.736255 0.825632 -0.851875
C110  C     C_3   0.388308 0.205927 0.730951 -0.361294
C111  C     C_3   0.408787 0.282830 0.777762 -0.861490
C112  C     C_3   0.635209 0.820809 0.255918 -0.378118
C113  C     C_3   0.663261 0.785561 0.145172 -0.850886
C114  C     C_3   0.139153 0.700895 0.241411 -0.372365
C115  C     C_3   0.115401 0.780622 0.205331 -0.859108
C116  C     C_3   0.853143 0.310848 0.762064 -0.370779
H1    H     H_    0.504446 0.249451 0.521532 0.250994
H2    H     H_    0.424363 0.812095 0.303845 0.229946
H3    H     H_    0.479294 0.205070 0.352396 0.267099
H4    H     H_    0.462648 0.254791 0.225175 0.255285
H5    H     H_    0.436626 0.297568 0.357394 0.267064
H6    H     H_    0.371331 0.147558 0.279149 0.226473
H7    H     H_    0.337438 0.239970 0.260845 0.201426
H8    H     H_    0.504048 0.790254 0.629159 0.268876
H9    H     H_    0.545893 0.697891 0.604861 0.270197
H10   H     H_    0.512370 0.723846 0.743669 0.258110
H11   H     H_    0.634848 0.738982 0.735437 0.209811
H12   H     H_    0.511014 0.332719 0.603258 0.261518
H13   H     H_    0.605675 0.835002 0.723464 0.229911
H14   H     H_    0.004469 0.749461 0.521562 0.250979
H15   H     H_    0.011035 0.832713 0.603331 0.261517
H16   H     H_    0.072897 0.823397 0.480100 0.270875
H17   H     H_    0.065396 0.702798 0.675819 0.218710
H18   H     H_    0.113520 0.792120 0.676936 0.216758
H19   H     H_    0.008184 0.201811 0.345116 0.262036
H20   H     H_    0.001193 0.274822 0.445715 0.253031
H21   H     H_    0.952517 0.184332 0.476947 0.274086
H22   H     H_    0.888915 0.215984 0.307952 0.219569
H23   H     H_    0.572875 0.323384 0.480032 0.270873
H24   H     H_    0.924375 0.312076 0.303867 0.229936
H25   H     H_    0.979254 0.705089 0.352459 0.267075
H26   H     H_    0.962627 0.754752 0.225186 0.255288
H27   H     H_    0.936577 0.797579 0.357359 0.267054
H28   H     H_    0.871307 0.647541 0.279160 0.226471
H29   H     H_    0.837405 0.739948 0.260856 0.201423
H30   H     H_    0.012455 0.223912 0.743767 0.258106
H31   H     H_    0.004088 0.290299 0.629241 0.268927
H32   H     H_    0.045923 0.197930 0.604944 0.270195
H33   H     H_    0.134919 0.239030 0.735443 0.209793
H34   H     H_    0.565383 0.202815 0.675792 0.218702
H35   H     H_    0.105752 0.335052 0.723469 0.229913
H36   H     H_    0.582399 0.307220 0.275630 0.262692
H37   H     H_    0.661944 0.319337 0.175913 0.282033
H38   H     H_    0.582539 0.275671 0.134365 0.249211
H39   H     H_    0.676216 0.177411 0.172360 0.223868
H40   H     H_    0.589468 0.165181 0.250518 0.234134
H41   H     H_    0.320172 0.715847 0.882749 0.278850
H42   H     H_    0.385340 0.690852 0.766758 0.266182
H43   H     H_    0.411817 0.746180 0.879700 0.244309
H44   H     H_    0.405476 0.841830 0.752363 0.237970
H45   H     H_    0.613495 0.292148 0.676884 0.216767
H46   H     H_    0.314514 0.845273 0.816044 0.222606
H47   H     H_    0.403356 0.331119 0.717155 0.268045
H48   H     H_    0.374296 0.292810 0.857251 0.269878
H49   H     H_    0.465683 0.282367 0.798303 0.246058
H50   H     H_    0.360633 0.168561 0.800010 0.212990
H51   H     H_    0.441152 0.181061 0.704185 0.233495
H52   H     H_    0.723431 0.782724 0.135033 0.265754
H53   H     H_    0.637694 0.728467 0.138563 0.269256
H54   H     H_    0.647487 0.822128 0.074901 0.254803
H55   H     H_    0.575041 0.818244 0.263327 0.230745
H56   H     H_    0.501203 0.774815 0.445638 0.253050
H57   H     H_    0.654244 0.880788 0.244979 0.246391
H58   H     H_    0.082327 0.807218 0.275731 0.262678
H59   H     H_    0.161900 0.819411 0.176075 0.282016
H60   H     H_    0.082528 0.775733 0.134412 0.249216
H61   H     H_    0.176181 0.677465 0.172364 0.223861
H62   H     H_    0.089444 0.665211 0.250549 0.234134
H63   H     H_    0.820226 0.215539 0.882374 0.278799
H64   H     H_    0.885630 0.190886 0.766481 0.266111
H65   H     H_    0.911767 0.246147 0.879782 0.244342
H66   H     H_    0.905454 0.341836 0.752371 0.237930
H67   H     H_    0.452525 0.684324 0.476869 0.274104
H68   H     H_    0.814495 0.345162 0.816148 0.222561
H69   H     H_    0.903302 0.831112 0.717120 0.268049
H70   H     H_    0.874251 0.792813 0.857230 0.269888
H71   H     H_    0.965642 0.782387 0.798274 0.246058
H72   H     H_    0.860621 0.668548 0.800022 0.212985
H73   H     H_    0.941134 0.681065 0.704181 0.233495
H74   H     H_    0.223434 0.282743 0.135022 0.265759
H75   H     H_    0.137706 0.228468 0.138566 0.269261
H76   H     H_    0.147478 0.322129 0.074902 0.254785
H77   H     H_    0.075043 0.318231 0.263342 0.230737
H78   H     H_    0.508174 0.701816 0.345024 0.262044
H79   H     H_    0.154231 0.380796 0.244970 0.246386
H80   H     H_    0.388902 0.716005 0.307908 0.219580
N1    N     N_R   0.480750 1.000000 0.209750 -0.153774
N2    N     N_1   0.335286 0.004884 0.782550 -0.200587
N3    N     N_1   0.164352 0.524754 0.213023 -0.213040
N4    N     N_1   0.835284 0.504860 0.782545 -0.200565
N5    N     N_1   0.685037 0.205199 0.839690 -0.223296
N6    N     N_1   0.309026 0.795965 0.153498 -0.216069
N7    N     N_1   0.211222 0.117826 0.232832 -0.202670
N8    N     N_1   0.740837 0.829805 0.826348 -0.222031
N9    N     N_1   0.185073 0.705132 0.839712 -0.223293
N10   N     N_1   0.809056 0.295931 0.153490 -0.216067
N11   N     N_1   0.711188 0.617804 0.232837 -0.202656
N12   N     N_R   0.519250 0.000000 0.790250 -0.156064
N13   N     N_1   0.240915 0.329890 0.826291 -0.222010
N14   N     N_1   0.730189 0.982599 0.983537 -0.176457
N15   N     N_1   0.269775 0.969162 0.019842 -0.182114
N16   N     N_1   0.230192 0.482631 0.983534 -0.176429
N17   N     N_1   0.769772 0.469144 0.019847 -0.182115
N18   N     N_R   0.980750 0.500000 0.209750 -0.153767
N19   N     N_R   0.019250 0.500000 0.790250 -0.156055
N20   N     N_1   0.299311 0.989199 0.327436 -0.190804
N21   N     N_1   0.700745 0.999102 0.673203 -0.201347
N22   N     N_1   0.799310 0.489195 0.327436 -0.190813
N23   N     N_1   0.200746 0.499123 0.673203 -0.201351
N24   N     N_1   0.664354 0.024731 0.213025 -0.213061
O1    O     O_R   0.418020 0.076820 0.422210 -0.609339
O2    O     O_R   0.569630 0.923170 0.391410 -0.633618
O3    O     O_R   0.569630 0.076830 0.391410 -0.627317
O4    O     O_R   0.430370 0.923170 0.608590 -0.631572
O5    O     O_R   0.930370 0.576830 0.608590 -0.627768
O6    O     O_R   0.069630 0.423170 0.391410 -0.633621
O7    O     O_R   0.069630 0.576830 0.391410 -0.627300
O8    O     O_R   0.930370 0.423170 0.608590 -0.631580
O9    O     O_R   0.581980 0.923180 0.577790 -0.610161
O10   O     O_R   0.581980 0.076820 0.577790 -0.612826
O11   O     O_R   0.418020 0.923180 0.422210 -0.607942
O12   O     O_R   0.918020 0.576820 0.422210 -0.609334
O13   O     O_R   0.081980 0.423180 0.577790 -0.610153
O14   O     O_R   0.081980 0.576820 0.577790 -0.612831
O15   O     O_R   0.918020 0.423180 0.422210 -0.607941
O16   O     O_R   0.430370 0.076830 0.608590 -0.627763
Zn1   Zn    Zn3+2 0.491750 0.000000 0.375560 0.931917
Zn2   Zn    Zn3+2 0.508250 1.000000 0.624440 0.932067
Zn3   Zn    Zn3+2 0.991750 0.500000 0.375560 0.931925
Zn4   Zn    Zn3+2 0.008250 0.500000 0.624440 0.932066

loop_
_geom_bond_atom_site_label_1
_geom_bond_atom_site_label_2
_ccdc_geom_bond_type
C61   C70   A    
C43   C73   S    
C65   C92   S    
C101  C102  S    
C31   C85   S    
C46   C55   A    
C91   H67   S    
C63   C88   S    
C104  H32   S    
C68   C103  S    
C5    H69   S    
C6    C7    S    
C109  H41   S    
C113  H52   S    
C114  C115  S    
C33   N19   A    
C48   C57   A    
C20   C30   S    
C94   H11   S    
C7    H75   S    
C105  C107  S    
C101  H29   S    
C115  H60   S    
C95   O15   A    
C91   H56   S    
C9    N6    T    
C111  H48   S    
C17   C26   S    
C90   H2    S    
C1    O1    A    
C25   N18   A    
O13   Zn4   S    
C93   H5    S    
C39   C84   S    
O8    Zn4   S    
C115  H58   S    
C3    C116  S    
C50   C74   A    
C73   O6    A    
C55   C112  S    
C24   N19   A    
C3    H63   S    
C112  H55   S    
C81   N22   T    
C1    O16   A    
C88   H45   S    
C47   C56   A    
C68   C77   A    
C12   N9    T    
C108  C109  S    
C2    C32   A    
C34   C86   S    
C44   C76   A    
C24   C82   S    
C95   O8    A    
C112  C113  S    
C72   C78   A    
C11   C52   S    
C52   C60   A    
C110  C111  S    
C37   C56   A    
N1    Zn1   S    
C44   C53   A    
C38   C55   A    
C43   C68   A    
C89   H23   S    
C74   C77   A    
C116  H66   S    
C98   H15   S    
O12   Zn3   S    
C115  H59   S    
C99   H22   S    
C36   C53   A    
C93   H4    S    
C23   C27   A    
C57   C116  S    
C10   N7    T    
C42   C62   S    
C73   O13   A    
C100  H19   S    
C43   C59   A    
C86   N3    T    
C112  H57   S    
C87   N4    T    
C35   C54   A    
C25   C81   S    
C64   C94   S    
C104  H31   S    
C4    C60   S    
C69   C78   A    
C39   C67   A    
C5    H70   S    
C109  H42   S    
C4    H73   S    
C16   C47   S    
C56   C110  S    
C6    H79   S    
C47   C77   A    
C97   C98   S    
C14   C45   S    
C38   C64   A    
C29   O2    A    
C41   C57   A    
C94   H13   S    
C96   H8    S    
C40   O3    A    
C51   O11   A    
C19   N16   T    
C104  H30   S    
C13   C30   A    
C9    C49   S    
C2    C26   A    
C17   N14   T    
O3    Zn1   S    
C92   H7    S    
N12   Zn2   S    
C80   N21   T    
C46   C78   A    
C91   H78   S    
C103  H33   S    
C113  H53   S    
C21   C34   A    
C27   C106  A    
C114  H62   S    
C39   C58   A    
C108  H46   S    
C2    C106  A    
C42   C69   A    
C49   C58   A    
O1    Zn1   S    
C66   C99   S    
C29   C38   S    
C84   O14   A    
C3    H64   S    
C8    C48   S    
C13   C33   A    
C32   N1    A    
C52   C72   A    
C92   H6    S    
C110  H51   S    
C99   C100  S    
C51   O4    A    
C114  H61   S    
O7    Zn3   S    
C98   H14   S    
C22   N12   A    
C7    H74   S    
O14   Zn4   S    
C82   N23   T    
C94   C96   S    
C19   C28   S    
C3    H65   S    
C107  H37   S    
C36   C51   S    
N18   Zn3   S    
C111  H49   S    
C107  H36   S    
C37   C65   A    
C79   N20   T    
C102  H25   S    
C21   C28   A    
C89   H1    S    
C45   C54   A    
C62   O12   A    
C49   C70   A    
C14   N10   T    
C70   C76   A    
C31   C106  A    
C99   H24   S    
O10   Zn2   S    
C102  H27   S    
C50   C59   A    
C48   C71   A    
C97   H18   S    
C36   C61   A    
C10   C50   S    
C42   C60   A    
C61   C90   S    
C34   N18   A    
C25   C30   A    
C32   C83   S    
C8    N5    T    
O15   Zn3   S    
O6    Zn3   S    
C65   C74   A    
C54   C105  S    
C105  H39   S    
C88   H34   S    
C6    C59   S    
C18   C27   S    
C24   C28   A    
C40   O10   A    
C63   C71   A    
C4    C5    S    
C67   C76   A    
C113  H54   S    
C41   C66   A    
C108  H44   S    
C103  H35   S    
C62   O5    A    
C102  H26   S    
C23   N1    A    
O2    Zn1   S    
O11   Zn1   S    
C45   C75   A    
C20   N17   T    
C4    H72   S    
C18   N15   T    
C33   C87   S    
C22   C80   S    
C31   N12   A    
C12   C44   S    
C111  H47   S    
C13   C21   A    
C71   C75   A    
C83   N24   T    
C110  H50   S    
C53   C108  S    
C90   C91   S    
C41   C95   S    
C66   C75   A    
C116  H68   S    
C92   C93   S    
C101  H28   S    
O16   Zn2   S    
C96   H9    S    
C35   C40   S    
C11   N8    T    
C64   C72   A    
C7    H76   S    
C107  H38   S    
C100  H21   S    
C67   C97   S    
C29   O9    A    
C100  H20   S    
C85   N2    T    
C105  H40   S    
C90   H80   S    
C88   C89   S    
C16   N13   T    
C22   C26   A    
C98   H16   S    
C103  C104  S    
C58   C114  S    
O5    Zn4   S    
C5    H71   S    
C97   H17   S    
C35   C63   A    
N19   Zn4   S    
C93   H3    S    
C15   C46   S    
C23   C79   S    
O9    Zn2   S    
C84   O7    A    
O4    Zn2   S    
C6    H77   S    
C15   N11   T    
C96   H10   S    
C1    C37   S    
C69   C101  S    
C89   H12   S    
C109  H43   S    
