data_mof_unit_33202.cif
_audit_creation_date              2012-12-10T20:38:25-0500
_audit_creation_method            fapswitch 2.2
_symmetry_space_group_name_H-M    P1
_symmetry_Int_Tables_number       1
_space_group_crystal_system       triclinic
_cell_length_a                    9.848325
_cell_length_b                    10.678192
_cell_length_c                    16.753164
_cell_angle_alpha                 90.087382
_cell_angle_beta                  85.401793
_cell_angle_gamma                 89.890273
_cell_volume                      1756.12508

loop_
_atom_site_label
_atom_site_type_symbol
_atom_type_description
_atom_site_fract_x
_atom_site_fract_y
_atom_site_fract_z
_atom_type_partial_charge
C1    C     C_R   0.500229 0.740144 0.497519 0.887516
C2    C     C_R   0.528980 0.450757 0.264113 -0.062049
C3    C     C_R   0.378836 0.936484 0.484449 0.145762
C4    C     C_R   0.481449 0.496979 0.653357 0.865600
C5    C     C_R   0.501467 0.871494 0.484478 -0.109380
C6    C     C_R   0.625343 0.934968 0.468809 -0.222948
C7    C     C_R   0.625474 0.064502 0.468544 -0.219482
C8    C     C_R   0.501735 0.128644 0.483976 -0.103722
C9    C     C_R   0.378960 0.064255 0.484075 0.126967
C10   C     C_3   0.254371 0.072299 0.541037 -0.472798
C11   C     C_3   0.254587 0.930407 0.541721 -0.494186
C12   C     C_R   0.343984 0.468791 0.783018 -0.195021
C13   C     C_R   0.923738 0.596302 0.534669 0.214264
C14   C     C_R   0.933703 0.411260 0.459355 -0.122583
C15   C     C_R   0.077812 0.411270 0.459326 -0.129672
C16   C     C_R   0.500477 0.259916 0.497265 0.880977
C17   C     C_R   0.066406 0.596075 0.534902 0.218684
C18   C     C_3   0.059549 0.633141 0.620962 -0.517859
C19   C     C_3   0.905621 0.634538 0.620400 -0.499902
C20   C     C_R   0.518559 0.492800 0.346991 0.870173
C21   C     C_R   0.471317 0.473660 0.739232 -0.042014
C22   C     C_R   0.589631 0.444504 0.776577 -0.211107
C23   C     C_R   0.429305 0.337319 0.159291 -0.173451
C24   C     C_R   0.581163 0.410086 0.856275 -0.128800
C25   C     C_R   0.453849 0.404013 0.900086 0.189887
C26   C     C_R   0.335542 0.434852 0.863327 -0.168184
C27   C     C_2   0.796373 0.430059 0.090083 0.885933
C28   C     C_R   0.418529 0.387592 0.235391 -0.187661
C29   C     C_R   0.652713 0.458406 0.217045 -0.248566
C30   C     C_R   0.664530 0.411197 0.138740 0.006730
C31   C     C_R   0.548964 0.352878 0.109277 0.104528
C32   C     C_2   0.443665 0.382851 0.986407 -0.226049
C33   C     C_2   0.541920 0.326483 0.024176 -0.185442
H1    H     H_    0.689133 0.446497 0.744143 0.154176
H2    H     H_    0.097377 0.558432 0.659590 0.213366
H3    H     H_    0.323733 0.375536 0.272045 0.162269
H4    H     H_    0.103169 0.727362 0.629932 0.199191
H5    H     H_    0.855147 0.561377 0.659261 0.215065
H6    H     H_    0.860711 0.729817 0.627943 0.202815
H7    H     H_    0.738784 0.504469 0.240860 0.195130
H8    H     H_    0.625877 0.278029 0.991555 0.177170
H9    H     H_    0.236845 0.433260 0.896934 0.139553
H10   H     H_    0.341434 0.290913 0.137783 0.151031
H11   H     H_    0.251245 0.490252 0.755309 0.148827
H12   H     H_    0.721906 0.885728 0.462470 0.171172
H13   H     H_    0.359583 0.429019 0.020936 0.159003
H14   H     H_    0.675155 0.392118 0.883359 0.177937
H15   H     H_    0.999141 0.458587 0.089787 0.341213
H16   H     H_    0.722080 0.113284 0.462077 0.166195
H17   H     H_    0.274751 0.114477 0.599633 0.208268
H18   H     H_    0.166199 0.112923 0.512526 0.200733
H19   H     H_    0.275914 0.890266 0.600651 0.199366
H20   H     H_    0.166241 0.888957 0.513899 0.205005
H21   H     H_    0.883689 0.338317 0.427834 0.146089
H22   H     H_    0.136726 0.338366 0.427756 0.142908
N1    N     N_R   0.857140 0.500860 0.500530 -0.107650
N2    N     N_R   0.142780 0.500820 0.500530 -0.105525
O1    O     O_R   0.385310 0.683210 0.499990 -0.611236
O2    O     O_R   0.916063 0.445701 0.128692 -0.817260
O3    O     O_R   0.614650 0.683240 0.500000 -0.620336
O4    O     O_R   0.371780 0.500000 0.615800 -0.619058
O5    O     O_R   0.601120 0.500040 0.615800 -0.618384
O6    O     O_R   0.385350 0.316760 0.500000 -0.622319
O7    O     O_R   0.614690 0.316790 0.500010 -0.625126
O8    O     O_R   0.398880 0.499960 0.384200 -0.618202
O9    O     O_R   0.628220 0.500000 0.384200 -0.615444
O10   O     O_2   0.801267 0.434825 0.017051 -0.664189
Zn1   Zn    Zn3+2 0.346870 0.499980 0.499990 0.945316
Zn2   Zn    Zn3+2 0.653130 0.500020 0.500010 0.946786

loop_
_geom_bond_atom_site_label_1
_geom_bond_atom_site_label_2
_ccdc_geom_bond_type
C14   N1    A    
C31   C33   S    
C6    C7    A    
C3    C9    A    
C19   H5    S    
O7    Zn2   S    
C9    C10   S    
C11   H20   S    
C3    C11   S    
C13   C17   A    
C13   N1    A    
C33   H8    S    
C32   C33   D    
O8    Zn1   S    
C25   C32   S    
C14   C15   A    
C17   C18   S    
C7    C8    A    
C8    C16   S    
C27   O2    S    
C1    O1    A    
C27   C30   S    
C4    C21   S    
C15   N2    A    
O4    Zn1   S    
C28   H3    S    
C18   H2    S    
C29   C30   A    
C19   H6    S    
O3    Zn2   S    
C2    C29   A    
C1    C5    S    
C10   H18   S    
C12   C21   A    
C29   H7    S    
O1    Zn1   S    
C16   O6    A    
C18   H4    S    
N1    Zn2   S    
C26   H9    S    
C12   C26   A    
C30   C31   A    
C22   H1    S    
C22   C24   A    
O9    Zn2   S    
C27   O10   D    
C23   C28   A    
C13   C19   S    
N2    Zn1   S    
C2    C20   S    
C23   C31   A    
C10   H17   S    
C4    O5    A    
C20   O8    A    
C23   H10   S    
C24   C25   A    
C7    H16   S    
H15   O2    S    
C12   H11   S    
C18   C19   S    
C10   C11   S    
C1    O3    A    
C20   O9    A    
C5    C6    A    
O6    Zn1   S    
C6    H12   S    
C2    C28   A    
C11   H19   S    
C16   O7    A    
C14   H21   S    
C25   C26   A    
C21   C22   A    
C24   H14   S    
C32   H13   S    
C4    O4    A    
O5    Zn2   S    
C17   N2    A    
C8    C9    A    
C3    C5    A    
C15   H22   S    
