data_mof_unit_37695.cif
_audit_creation_date              2012-12-10T19:07:36-0500
_audit_creation_method            fapswitch 2.2
_symmetry_space_group_name_H-M    P1
_symmetry_Int_Tables_number       1
_space_group_crystal_system       triclinic
_cell_length_a                    10.866594
_cell_length_b                    10.873368
_cell_length_c                    9.542131
_cell_angle_alpha                 90.968179
_cell_angle_beta                  90.915403
_cell_angle_gamma                 90.54649
_cell_volume                      1127.10548624

loop_
_atom_site_label
_atom_site_type_symbol
_atom_type_description
_atom_site_fract_x
_atom_site_fract_y
_atom_site_fract_z
_atom_type_partial_charge
C1    C     C_R   0.503327 0.262282 0.498404 0.824154
C2    C     C_R   0.939614 0.462998 0.620656 0.100881
C3    C     C_3   0.936504 0.518984 0.764308 -0.522640
C4    C     C_3   0.076661 0.518521 0.764903 -0.190381
C5    C     C_R   0.476933 0.066281 0.618023 0.048872
C6    C     C_R   0.501365 0.128612 0.494248 -0.140231
C7    C     C_R   0.519775 0.059060 0.369169 0.149344
C8    C     C_R   0.513827 0.931435 0.372716 -0.241080
C9    C     C_R   0.498418 0.870497 0.499529 -0.130396
C10   C     C_R   0.478228 0.939211 0.621152 0.131650
C11   C     C_3   0.549848 0.939135 0.755965 -0.450597
C12   C     C_R   0.262550 0.497321 0.498961 0.807748
C13   C     C_3   0.544438 0.077975 0.755350 -0.406926
C14   C     C_R   0.543220 0.599775 0.076738 0.244142
C15   C     C_R   0.440268 0.410668 0.071598 -0.054181
C16   C     C_R   0.441171 0.409991 0.922661 -0.078957
C17   C     C_R   0.543473 0.599668 0.929212 0.257247
C18   C     C_3   0.671293 0.649229 0.929638 -0.517099
C19   C     C_3   0.669394 0.652886 0.088043 -0.480950
C20   C     C_R   0.500945 0.737504 0.500753 0.818495
C21   C     C_R   0.737929 0.497367 0.500475 0.800141
C22   C     C_R   0.066153 0.464558 0.619599 0.078609
C23   C     C_R   0.129971 0.484353 0.496332 -0.107889
C24   C     C_R   0.062790 0.486035 0.369309 -0.218085
C25   C     C_R   0.934214 0.486010 0.370535 -0.199497
C26   C     C_R   0.871249 0.484560 0.498680 -0.094199
Cu1   Cu    Cu3+1 0.499990 0.499980 0.640670 0.950805
Cu2   Cu    Cu3+1 0.500010 0.500020 0.359330 0.957639
H1    H     H_    0.108776 0.493871 0.269923 0.163621
H2    H     H_    0.644810 0.904543 0.741844 0.190201
H3    H     H_    0.485412 0.116765 0.838891 0.206129
H4    H     H_    0.636345 0.122885 0.746664 0.211487
H5    H     H_    0.392863 0.337808 0.125097 0.160486
H6    H     H_    0.395249 0.336047 0.864822 0.139340
H7    H     H_    0.734122 0.579132 0.889148 0.217833
H8    H     H_    0.678957 0.741232 0.882769 0.195390
H9    H     H_    0.736613 0.589553 0.136112 0.214465
H10   H     H_    0.670086 0.747831 0.132972 0.199281
H11   H     H_    0.885192 0.492943 0.271625 0.162035
H12   H     H_    0.896383 0.612599 0.763018 0.197116
H13   H     H_    0.897422 0.454429 0.841374 0.194124
H14   H     H_    0.115177 0.450897 0.839728 0.140683
H15   H     H_    0.529242 0.879909 0.276609 0.178728
H16   H     H_    0.498352 0.897634 0.843131 0.203912
N1    N     N_R   0.500790 0.500930 0.147930 -0.180869
N2    N     N_R   0.500790 0.500890 0.852020 -0.183876
O1    O     O_R   0.500000 0.319640 0.618810 -0.590695
O2    O     O_R   0.500010 0.319680 0.381230 -0.553061
O3    O     O_R   0.319650 0.499970 0.618810 -0.580493
O4    O     O_R   0.319660 0.500010 0.381230 -0.592641
O5    O     O_R   0.499990 0.680320 0.618770 -0.572780
O6    O     O_R   0.500000 0.680360 0.381190 -0.592627
O7    O     O_R   0.680340 0.499990 0.618770 -0.580260
O8    O     O_R   0.680350 0.500030 0.381190 -0.579509
C27   C     C_R   0.133878 0.646157 0.779356 0.199902
C28   C     C_R   0.213652 0.672513 0.893552 -0.119402
C29   C     C_R   0.262411 0.790919 0.914345 -0.145857
C30   C     C_R   0.232304 0.884119 0.821227 -0.104147
C31   C     C_R   0.154742 0.858735 0.706069 -0.148555
C32   C     C_R   0.105211 0.740616 0.685178 -0.155408
H17   H     H_    0.236754 0.601869 0.967899 0.105493
H18   H     H_    0.323060 0.810560 0.003199 0.127582
H19   H     H_    0.269436 0.975995 0.838036 0.131298
H20   H     H_    0.132099 0.930943 0.633622 0.134690
H21   H     H_    0.043517 0.723406 0.596680 0.134815
I1    I     I_    0.578988 0.128624 0.173855 -0.465050

loop_
_geom_bond_atom_site_label_1
_geom_bond_atom_site_label_2
_ccdc_geom_bond_type
C2    C22   A    
C12   O4    A    
C23   C24   A    
Cu1   O7    S    
C1    O2    A    
C6    C7    A    
C19   H10   S    
C29   H18   S    
C20   O5    A    
C4    C22   S    
C9    C10   A    
C25   H11   S    
C9    C20   S    
C5    C13   S    
C14   C17   A    
C8    H15   S    
C27   C28   A    
C12   O3    A    
C29   C30   A    
C31   C32   A    
C2    C26   A    
C27   C32   A    
C24   C25   A    
C7    I1    S    
C21   O7    A    
Cu2   O6    S    
C12   C23   S    
C18   H8    S    
C31   H20   S    
C21   O8    A    
C4    H14   S    
Cu1   O3    S    
C24   H1    S    
Cu1   N2    S    
C5    C10   A    
C21   C26   S    
Cu1   O5    S    
C32   H21   S    
C17   C18   S    
C14   N1    A    
C2    C3    S    
C4    C27   S    
C3    H13   S    
C5    C6    A    
Cu2   N1    S    
C30   C31   A    
C7    C8    A    
C3    H12   S    
C15   N1    A    
Cu1   O1    S    
C1    C6    S    
C11   H16   S    
C11   C13   S    
C17   N2    A    
C18   H7    S    
C20   O6    A    
C18   C19   S    
C10   C11   S    
C16   N2    A    
C30   H19   S    
C28   C29   A    
Cu2   O8    S    
C22   C23   A    
Cu2   O2    S    
C19   H9    S    
C16   H6    S    
C25   C26   A    
C28   H17   S    
C13   H4    S    
Cu2   O4    S    
C14   C19   S    
C13   H3    S    
C1    O1    A    
C3    C4    S    
C15   C16   A    
C11   H2    S    
C15   H5    S    
C8    C9    A    
Cu1   Cu2   S    
