data_mof_unit_35953.cif
_audit_creation_date              2012-10-26T18:40:22-0400
_audit_creation_method            fapswitch 2.2
_symmetry_space_group_name_H-M    P1
_symmetry_Int_Tables_number       1
_space_group_crystal_system       triclinic
_cell_length_a                    8.724143
_cell_length_b                    15.12998
_cell_length_c                    13.836778
_cell_angle_alpha                 90.449673
_cell_angle_beta                  98.024217
_cell_angle_gamma                 90.025011
_cell_volume                      1808.4609909

loop_
_atom_site_label
_atom_site_type_symbol
_atom_type_description
_atom_site_fract_x
_atom_site_fract_y
_atom_site_fract_z
_atom_type_partial_charge
C1    C     C_R   0.502981 0.329999 0.499856 0.558141
C2    C     C_R   0.623603 0.539712 0.903885 0.238348
C3    C     C_R   0.499555 0.500985 0.054426 0.049344
C4    C     C_R   0.501068 0.501032 0.945567 0.048377
C5    C     C_R   0.203571 0.499800 0.475033 0.544526
C6    C     C_R   0.796417 0.500013 0.524964 0.544168
C7    C     C_2   0.037732 0.499498 0.461231 -0.164263
C8    C     C_2   0.962236 0.499845 0.538757 -0.164094
C9    C     C_R   0.441606 0.095206 0.565688 -0.147287
C10   C     C_R   0.479090 0.906013 0.416512 -0.162804
C11   C     C_R   0.436713 0.186650 0.565122 -0.205539
C12   C     C_R   0.501524 0.670427 0.500818 0.568331
C13   C     C_R   0.473379 0.814309 0.416103 -0.209745
C14   C     C_R   0.514295 0.233851 0.500301 -0.029656
C15   C     C_R   0.507076 0.767454 0.503508 -0.027694
C16   C     C_R   0.603710 0.188879 0.437880 0.289677
C17   C     C_R   0.546336 0.814080 0.592680 0.269119
C18   C     C_R   0.611410 0.096255 0.439758 0.294378
C19   C     C_R   0.562021 0.906330 0.591817 0.271121
C20   C     C_R   0.527318 0.049310 0.503183 0.006877
C21   C     C_R   0.523563 0.952412 0.503796 -0.002222
C22   C     C_3   0.822785 0.263891 0.417006 -0.089463
C23   C     C_R   0.622135 0.463291 0.117454 -0.144769
C24   C     C_3   0.453072 0.772560 0.730746 -0.093117
C25   C     C_3   0.831630 0.018013 0.425077 -0.115603
C26   C     C_3   0.770618 0.955902 0.694169 -0.108624
C27   C     C_3   0.263443 0.667142 0.040483 -0.124531
C28   C     C_3   0.750783 0.667226 0.953318 -0.118951
C29   C     C_R   0.378232 0.463232 0.882019 -0.154052
C30   C     C_R   0.619722 0.462949 0.218952 0.036689
C31   C     C_R   0.380261 0.462908 0.780519 0.011148
C32   C     C_R   0.379682 0.537412 0.199244 0.059642
C33   C     C_R   0.620456 0.537632 0.801208 0.066153
C34   C     C_R   0.376746 0.539164 0.096746 0.245762
Cu1   Cu    Cu3+1 0.500000 0.499990 0.596430 0.946928
Cu2   Cu    Cu3+1 0.500000 0.500010 0.403570 0.956591
H1    H     H_    0.977562 0.499101 0.386910 0.123185
H2    H     H_    0.476989 0.730351 0.796274 0.119231
H3    H     H_    0.346942 0.746076 0.685692 0.114494
H4    H     H_    0.431975 0.840796 0.756123 0.146594
H5    H     H_    0.810618 0.951663 0.454206 0.120541
H6    H     H_    0.887029 0.061754 0.485144 0.076367
H7    H     H_    0.915793 0.009594 0.372595 0.146341
H8    H     H_    0.815117 0.996075 0.637189 0.093358
H9    H     H_    0.823742 0.888903 0.697561 0.139162
H10   H     H_    0.807265 0.988980 0.765471 0.140119
H11   H     H_    0.718516 0.433067 0.088182 0.147504
H12   H     H_    0.022390 0.500146 0.613079 0.125521
H13   H     H_    0.281926 0.432884 0.910898 0.145771
H14   H     H_    0.714238 0.432512 0.265801 0.141878
H15   H     H_    0.285556 0.432346 0.733226 0.130288
H16   H     H_    0.284778 0.566320 0.231003 0.134629
H17   H     H_    0.715437 0.566122 0.769574 0.148031
H18   H     H_    0.372435 0.689329 0.014793 0.104915
H19   H     H_    0.255880 0.694076 0.114724 0.101783
H20   H     H_    0.165508 0.694996 0.990197 0.141898
H21   H     H_    0.639469 0.697139 0.967580 0.099760
H22   H     H_    0.777187 0.686419 0.880016 0.128517
H23   H     H_    0.375601 0.059914 0.613894 0.154158
H24   H     H_    0.843596 0.695071 0.008073 0.147078
H25   H     H_    0.448490 0.940964 0.348533 0.166056
H26   H     H_    0.368293 0.220587 0.613502 0.136305
H27   H     H_    0.440420 0.780059 0.347288 0.142889
H28   H     H_    0.814584 0.302250 0.485045 0.095934
H29   H     H_    0.873281 0.308387 0.366429 0.133704
H30   H     H_    0.903537 0.207588 0.432930 0.115832
N1    N     N_R   0.500000 0.500020 0.258690 -0.254076
N2    N     N_R   0.500000 0.499980 0.741310 -0.254378
O1    O     O_R   0.500010 0.371450 0.581430 -0.510050
O2    O     O_3   0.582433 0.769513 0.679875 -0.555060
O3    O     O_3   0.693418 0.053206 0.374605 -0.541264
O4    O     O_3   0.607669 0.951581 0.678340 -0.570936
O5    O     O_3   0.250606 0.574274 0.038054 -0.568238
O6    O     O_3   0.749772 0.574611 0.963776 -0.570650
O7    O     O_R   0.499990 0.628550 0.418570 -0.513470
O8    O     O_R   0.500010 0.371460 0.418560 -0.450553
O9    O     O_R   0.499990 0.628540 0.581440 -0.455514
O10   O     O_R   0.274840 0.499990 0.562640 -0.512624
O11   O     O_R   0.725160 0.500010 0.437360 -0.509379
O12   O     O_R   0.274840 0.500000 0.399770 -0.510084
O13   O     O_R   0.725160 0.500000 0.600230 -0.506445
O14   O     O_3   0.676895 0.234533 0.370953 -0.522028

loop_
_geom_bond_atom_site_label_1
_geom_bond_atom_site_label_2
_ccdc_geom_bond_type
C26   O4    S    
C3    C23   A    
Cu1   Cu2   S    
C11   H26   S    
C28   O6    S    
C25   H7    S    
Cu1   O13   S    
C27   H18   S    
C24   O2    S    
C7    C8    D    
C29   H13   S    
C28   H21   S    
C22   O14   S    
C19   C21   A    
C11   C14   A    
C27   H19   S    
C24   H3    S    
C32   H16   S    
Cu2   O8    S    
C26   H9    S    
C24   H4    S    
C22   H30   S    
C24   H2    S    
C10   C13   A    
C25   O3    S    
C4    C29   A    
C2    O6    S    
C30   H14   S    
C17   O2    S    
C6    O13   A    
C19   O4    S    
C28   H24   S    
C10   C21   A    
C33   H17   S    
C31   N2    A    
Cu2   N1    S    
C23   H11   S    
C26   H8    S    
C23   C30   A    
Cu2   O12   S    
C25   H5    S    
C5    C7    S    
C27   H20   S    
C6    C8    S    
C3    C34   A    
Cu1   O9    S    
C1    O1    A    
C9    H23   S    
C32   C34   A    
C2    C4    A    
C8    H12   S    
C22   H29   S    
Cu2   O7    S    
C9    C20   A    
C13   H27   S    
C12   C15   S    
C12   O9    A    
C16   O14   S    
C7    H1    S    
C5    O12   A    
C9    C11   A    
C32   N1    A    
C2    C33   A    
C13   C15   A    
C14   C16   A    
C10   H25   S    
C3    C4    S    
C18   O3    S    
C15   C17   A    
C1    O8    A    
C30   N1    A    
C31   H15   S    
Cu2   O11   S    
C25   H6    S    
C28   H22   S    
Cu1   O10   S    
C29   C31   A    
C6    O11   A    
Cu1   N2    S    
C17   C19   A    
C18   C20   A    
C26   H10   S    
C34   O5    S    
C22   H28   S    
C20   C21   S    
Cu1   O1    S    
C16   C18   A    
C12   O7    A    
C1    C14   S    
C5    O10   A    
C27   O5    S    
C33   N2    A    
