data_mof_unit_15324.cif
_audit_creation_date              2012-10-26T20:21:34-0400
_audit_creation_method            fapswitch 2.2
_symmetry_space_group_name_H-M    P1
_symmetry_Int_Tables_number       1
_space_group_crystal_system       triclinic
_cell_length_a                    11.023258
_cell_length_b                    9.697715
_cell_length_c                    11.668644
_cell_angle_alpha                 89.975486
_cell_angle_beta                  91.9869
_cell_angle_gamma                 90.596042
_cell_volume                      1246.56547085

loop_
_atom_site_label
_atom_site_type_symbol
_atom_type_description
_atom_site_fract_x
_atom_site_fract_y
_atom_site_fract_z
_atom_type_partial_charge
C1    C     C_R   0.263705 0.498101 0.510458 0.530716
C2    C     C_R   0.944422 0.619456 0.512783 -0.005979
C3    C     C_R   0.936980 0.364760 0.522313 0.007782
C4    C     C_R   0.068422 0.614663 0.543844 0.002158
C5    C     C_R   0.874701 0.494490 0.508339 -0.013311
C6    C     C_R   0.130952 0.491510 0.528978 -0.017522
C7    C     C_R   0.466980 0.072695 0.403165 0.174952
C8    C     C_R   0.532711 0.926434 0.596589 0.175058
C9    C     C_R   0.524620 0.073108 0.598632 0.179547
C10   C     C_R   0.460661 0.925047 0.405394 0.177645
C11   C     C_3   0.131850 0.228695 0.554332 -0.235074
C12   C     C_R   0.738481 0.499417 0.500366 0.525052
C13   C     C_3   0.160909 0.159548 0.440290 -0.401383
C14   C     C_3   0.894595 0.756517 0.470402 -0.239154
C15   C     C_3   0.840466 0.840737 0.566111 -0.404851
C16   C     C_3   0.870149 0.225314 0.530857 -0.230253
C17   C     C_3   0.829196 0.201877 0.653206 -0.410724
C18   C     C_3   0.125029 0.724792 0.622585 -0.239017
C19   C     C_3   0.171278 0.851316 0.559600 -0.406752
C20   C     C_R   0.499752 0.500020 0.284469 0.551844
C21   C     C_R   0.500261 0.499981 0.715529 0.536409
C22   C     C_1   0.499761 0.500047 0.162618 -0.023379
C23   C     C_1   0.500141 0.499939 0.837352 -0.026634
C24   C     C_1   0.499840 0.500010 0.059955 -0.052276
C25   C     C_1   0.499999 0.499955 0.940006 -0.052926
C26   C     C_R   0.065574 0.364418 0.532470 -0.001392
Cu1   Cu    Cu3+1 0.500000 0.640660 0.500000 0.975826
Cu2   Cu    Cu3+1 0.500000 0.359340 0.500000 0.968086
H1    H     H_    0.081806 0.101912 0.402954 0.106262
H2    H     H_    0.827182 0.740093 0.398745 0.158917
H3    H     H_    0.908406 0.204101 0.714564 0.124853
H4    H     H_    0.764992 0.282122 0.679635 0.193883
H5    H     H_    0.785211 0.099481 0.659119 0.114838
H6    H     H_    0.798074 0.208891 0.464029 0.173893
H7    H     H_    0.924449 0.136014 0.507494 0.115770
H8    H     H_    0.251385 0.896267 0.606985 0.140418
H9    H     H_    0.196317 0.826952 0.470708 0.181251
H10   H     H_    0.100028 0.929926 0.555809 0.120379
H11   H     H_    0.058875 0.756247 0.687021 0.127953
H12   H     H_    0.188557 0.236185 0.375306 0.185510
H13   H     H_    0.201523 0.680716 0.674869 0.147220
H14   H     H_    0.343614 0.114083 0.273651 0.192209
H15   H     H_    0.490849 0.113462 0.235303 0.207836
H16   H     H_    0.510361 0.873554 0.762750 0.211741
H17   H     H_    0.657139 0.895235 0.726719 0.185196
H18   H     H_    0.611880 0.116182 0.752993 0.196477
H19   H     H_    0.458426 0.107376 0.755485 0.201885
H20   H     H_    0.316505 0.883401 0.297518 0.189498
H21   H     H_    0.454335 0.876116 0.236052 0.209415
H22   H     H_    0.235755 0.086388 0.455060 0.138738
H23   H     H_    0.213550 0.242521 0.611249 0.169915
H24   H     H_    0.081967 0.157329 0.609982 0.108891
H25   H     H_    0.771549 0.911265 0.528070 0.143708
H26   H     H_    0.798228 0.772746 0.630177 0.189913
H27   H     H_    0.910503 0.903949 0.612026 0.113681
H28   H     H_    0.966257 0.818369 0.429333 0.125853
N1    N     N_R   0.500000 0.852070 0.500000 -0.194223
N2    N     N_R   0.500000 0.147930 0.500000 -0.194566
N3    N     N_3   0.432071 0.142210 0.299296 -0.570968
N4    N     N_3   0.572552 0.856434 0.698784 -0.574943
N5    N     N_3   0.531805 0.140343 0.707705 -0.576185
N6    N     N_3   0.406604 0.852621 0.309510 -0.566641
O1    O     O_R   0.319640 0.618740 0.499990 -0.486318
O2    O     O_R   0.680360 0.381260 0.500010 -0.509128
O3    O     O_R   0.680360 0.618740 0.500010 -0.495574
O4    O     O_R   0.319640 0.381260 0.499990 -0.502860
O5    O     O_R   0.500010 0.618790 0.337200 -0.461797
O6    O     O_R   0.499990 0.381210 0.662800 -0.464388
O7    O     O_R   0.499990 0.618790 0.662800 -0.466213
O8    O     O_R   0.500010 0.381210 0.337200 -0.456747

loop_
_geom_bond_atom_site_label_1
_geom_bond_atom_site_label_2
_ccdc_geom_bond_type
H14   N3    S    
H19   N5    S    
C7    C10   A    
C14   H28   S    
C18   H11   S    
H17   N4    S    
Cu1   O3    S    
C19   H10   S    
Cu2   N2    S    
C8    N1    A    
Cu2   O4    S    
C12   O3    A    
C20   O5    A    
C2    C4    A    
Cu1   O7    S    
H15   N3    S    
C4    C18   S    
C21   C23   S    
C1    O4    A    
C16   H7    S    
C6    C26   A    
C7    N2    A    
C8    N4    S    
C11   C13   S    
C20   O8    A    
C10   N6    S    
C17   H5    S    
H16   N4    S    
C2    C14   S    
C15   H25   S    
C13   H1    S    
Cu2   O6    S    
C17   H3    S    
C20   C22   S    
C18   C19   S    
C9    N5    S    
C19   H8    S    
C23   C25   T    
C21   O6    A    
C12   O2    A    
C22   C24   T    
C2    C5    A    
Cu1   O5    S    
C11   H24   S    
H18   N5    S    
C1    C6    S    
C15   H26   S    
C1    O1    A    
C10   N1    A    
C11   H23   S    
C24   C25   S    
Cu2   O2    S    
C5    C12   S    
C4    C6    A    
C9    N2    A    
Cu1   N1    S    
C18   H13   S    
C7    N3    S    
Cu1   Cu2   S    
C17   H4    S    
C14   C15   S    
Cu1   O1    S    
C13   H12   S    
H21   N6    S    
C19   H9    S    
C11   C26   S    
C16   H6    S    
C14   H2    S    
H20   N6    S    
C3    C26   A    
Cu2   O8    S    
C3    C16   S    
C13   H22   S    
C16   C17   S    
C21   O7    A    
C8    C9    A    
C3    C5    A    
C15   H27   S    
