data_mof_unit_36144.cif
_audit_creation_date              2012-12-10T18:26:27-0500
_audit_creation_method            fapswitch 2.2
_symmetry_space_group_name_H-M    P1
_symmetry_Int_Tables_number       1
_space_group_crystal_system       triclinic
_cell_length_a                    14.887901
_cell_length_b                    14.178726
_cell_length_c                    23.435054
_cell_angle_alpha                 89.999309
_cell_angle_beta                  88.583965
_cell_angle_gamma                 90.004974
_cell_volume                      4945.4292243

loop_
_atom_site_label
_atom_site_type_symbol
_atom_type_description
_atom_site_fract_x
_atom_site_fract_y
_atom_site_fract_z
_atom_type_partial_charge
Br1   Br    Br    0.396171 0.312800 0.206583 -0.562186
Br2   Br    Br    0.604079 0.312921 0.793399 -0.561657
C1    C     C_R   0.327287 0.500078 0.502274 0.934446
C2    C     C_R   0.548209 0.425157 0.699571 -0.384769
C3    C     C_R   0.449632 0.421061 0.241283 0.335918
C4    C     C_R   0.550447 0.421080 0.758705 0.335946
C5    C     C_R   0.489574 0.493713 0.208812 0.193448
C6    C     C_R   0.510403 0.493648 0.791183 0.193503
C7    C     C_R   0.816662 0.508067 0.444962 0.380053
C8    C     C_R   0.183340 0.507944 0.555046 0.379972
C9    C     C_R   0.768061 0.500392 0.496834 -0.145343
C10   C     C_R   0.231939 0.500360 0.503168 -0.145449
C11   C     C_R   0.809892 0.497825 0.549117 -0.348950
C12   C     C_R   0.672713 0.500087 0.497727 0.934373
C13   C     C_R   0.190108 0.497889 0.450884 -0.348833
C14   C     C_R   0.902449 0.502467 0.550780 0.140606
C15   C     C_R   0.097552 0.502544 0.449223 0.140704
C16   C     C_R   0.499222 0.500044 0.389557 0.905453
C17   C     C_R   0.500774 0.500042 0.610443 0.905508
C18   C     C_R   0.953196 0.504411 0.499180 0.022317
C19   C     C_R   0.046806 0.504400 0.500824 0.022218
C20   C     C_R   0.910422 0.508079 0.446025 0.006992
C21   C     C_R   0.089581 0.507967 0.553982 0.007050
C22   C     C_R   0.944786 0.507147 0.603191 -0.215394
C23   C     C_R   0.531654 0.569119 0.235823 -0.274796
C24   C     C_R   0.055215 0.507323 0.396816 -0.215310
C25   C     C_R   0.037713 0.512343 0.604718 -0.179263
C26   C     C_R   0.962289 0.512535 0.395291 -0.179358
C27   C     C_R   0.577459 0.799982 0.486310 0.431586
C28   C     C_R   0.435968 0.200507 0.531195 0.467942
C29   C     C_R   0.422542 0.799970 0.513688 0.431535
C30   C     C_R   0.564043 0.200523 0.468811 0.467931
C31   C     C_R   0.424048 0.900222 0.519230 -0.091939
C32   C     C_R   0.571897 0.101047 0.475018 -0.077419
C33   C     C_R   0.575957 0.900234 0.480771 -0.091998
C34   C     C_R   0.468224 0.568996 0.764185 -0.274939
C35   C     C_R   0.428111 0.101032 0.524986 -0.077388
C36   C     C_R   0.500002 0.950312 0.499999 0.017541
C37   C     C_R   0.500002 0.050788 0.499999 0.007869
C38   C     C_R   0.350128 0.951602 0.541790 -0.180971
C39   C     C_R   0.647405 0.050421 0.454707 -0.183828
C40   C     C_R   0.649884 0.951628 0.458220 -0.180909
C41   C     C_R   0.352611 0.050393 0.545308 -0.183825
C42   C     C_R   0.586750 0.495005 0.880808 0.585795
C43   C     C_R   0.413239 0.494803 0.119177 0.585580
C44   C     C_R   0.426664 0.483292 0.880041 0.560572
C45   C     C_R   0.534214 0.573525 0.295250 0.435136
C46   C     C_R   0.573357 0.483649 0.119952 0.560490
C47   C     C_R   0.421856 0.483366 0.939494 -0.060467
C48   C     C_R   0.578169 0.483728 0.060499 -0.060377
C49   C     C_R   0.502051 0.484265 0.969984 -0.076421
C50   C     C_R   0.497974 0.484281 0.030007 -0.076343
C51   C     C_R   0.586132 0.487303 0.940556 -0.136400
C52   C     C_R   0.413884 0.487002 0.059435 -0.136589
C53   C     C_R   0.338652 0.482862 0.968730 -0.248134
C54   C     C_R   0.661375 0.483576 0.031264 -0.248175
C55   C     C_R   0.333776 0.483018 0.028189 0.500984
C56   C     C_R   0.465690 0.573442 0.704758 0.435155
C57   C     C_R   0.666253 0.483730 0.971804 0.500871
C58   C     C_3   0.713055 0.765978 0.524930 0.096287
C59   C     C_3   0.811688 0.756171 0.506067 -0.324412
C60   C     C_3   0.873585 0.757952 0.557007 -0.949903
C61   C     C_3   0.428727 0.243695 0.624800 0.123790
C62   C     C_3   0.399965 0.159044 0.661518 -0.471743
C63   C     C_3   0.438485 0.164344 0.721146 -0.855637
C64   C     C_3   0.286918 0.765969 0.475096 0.096169
C65   C     C_3   0.188302 0.756048 0.493976 -0.324246
C66   C     C_3   0.126361 0.757916 0.443060 -0.950149
C67   C     C_R   0.495205 0.499927 0.327545 -0.191363
C68   C     C_3   0.571383 0.243744 0.375211 0.123852
C69   C     C_3   0.600203 0.159121 0.338494 -0.471833
C70   C     C_3   0.561734 0.164411 0.278853 -0.855698
C71   C     C_3   0.223761 0.389999 0.068807 0.167718
C72   C     C_3   0.166569 0.347782 0.021675 -0.424830
C73   C     C_3   0.127068 0.252685 0.039592 -0.908864
C74   C     C_3   0.776860 0.391290 0.931361 0.167589
C75   C     C_3   0.834764 0.349995 0.978425 -0.424164
C76   C     C_3   0.874991 0.255171 0.960642 -0.909176
C77   C     C_3   0.550120 0.730924 0.315775 0.116680
C78   C     C_R   0.504785 0.499914 0.672453 -0.191318
C79   C     C_3   0.624978 0.803352 0.322273 -0.296300
C80   C     C_3   0.589475 0.903733 0.317865 -0.996962
C81   C     C_3   0.449708 0.730837 0.684274 0.116636
C82   C     C_3   0.374863 0.803231 0.677683 -0.296321
C83   C     C_3   0.410327 0.903629 0.682133 -0.997001
C84   C     C_3   0.750666 0.443793 0.366466 0.087277
C85   C     C_3   0.761574 0.458785 0.301896 -0.324738
C86   C     C_3   0.722964 0.377059 0.268153 -0.891208
C87   C     C_3   0.249335 0.443584 0.633517 0.087372
C88   C     C_3   0.238396 0.458497 0.698093 -0.324920
C89   C     C_R   0.451863 0.425122 0.300417 -0.384691
C90   C     C_3   0.277029 0.376761 0.731811 -0.891046
H1    H     H_    0.276559 0.483083 0.945585 0.199325
H2    H     H_    0.434417 0.622568 0.789719 0.171720
H3    H     H_    0.420594 0.369046 0.325191 0.198531
H4    H     H_    0.579545 0.369137 0.674788 0.198502
H5    H     H_    0.769878 0.495036 0.588463 0.155443
H6    H     H_    0.230122 0.495171 0.411536 0.155406
H7    H     H_    0.905968 0.508185 0.642931 0.158051
H8    H     H_    0.094034 0.508427 0.357076 0.158022
H9    H     H_    0.696254 0.711675 0.557709 0.161544
H10   H     H_    0.705021 0.836356 0.545785 0.111977
H11   H     H_    0.821677 0.689200 0.482562 0.253048
H12   H     H_    0.723461 0.484124 0.054412 0.199235
H13   H     H_    0.830365 0.814791 0.476648 0.207466
H14   H     H_    0.868522 0.827020 0.579209 0.265010
H15   H     H_    0.944185 0.747163 0.542071 0.269956
H16   H     H_    0.855321 0.700828 0.587558 0.272056
H17   H     H_    0.410397 0.308108 0.648763 0.176509
H18   H     H_    0.503564 0.244715 0.619712 0.135945
H19   H     H_    0.325468 0.155495 0.664941 0.235052
H20   H     H_    0.426169 0.093677 0.641534 0.242825
H21   H     H_    0.513044 0.163933 0.718279 0.290208
H22   H     H_    0.415837 0.102205 0.746477 0.267991
H23   H     H_    0.068341 0.518431 0.645755 0.176973
H24   H     H_    0.415358 0.229030 0.743625 0.282618
H25   H     H_    0.303739 0.711721 0.442289 0.161448
H26   H     H_    0.294897 0.836381 0.454275 0.112098
H27   H     H_    0.178372 0.689010 0.517419 0.253043
H28   H     H_    0.169616 0.814570 0.523462 0.207468
H29   H     H_    0.131115 0.827156 0.421053 0.265050
H30   H     H_    0.055833 0.746688 0.457985 0.270022
H31   H     H_    0.144817 0.701120 0.412341 0.271981
H32   H     H_    0.589727 0.308173 0.351264 0.176478
H33   H     H_    0.496542 0.244729 0.380267 0.135927
H34   H     H_    0.931661 0.518695 0.354258 0.176998
H35   H     H_    0.674704 0.155611 0.335097 0.235067
H36   H     H_    0.573996 0.093741 0.358465 0.242840
H37   H     H_    0.487176 0.163945 0.281695 0.290273
H38   H     H_    0.584433 0.102296 0.253524 0.267996
H39   H     H_    0.584851 0.229119 0.256388 0.282640
H40   H     H_    0.182280 0.393300 0.108827 0.201730
H41   H     H_    0.281588 0.342531 0.077922 0.146423
H42   H     H_    0.110867 0.396921 0.011839 0.247269
H43   H     H_    0.208598 0.337535 0.982369 0.224749
H44   H     H_    0.181605 0.202442 0.049833 0.274251
H45   H     H_    0.290809 0.915578 0.558072 0.168939
H46   H     H_    0.087934 0.223054 0.004079 0.268340
H47   H     H_    0.081557 0.261178 0.077522 0.266447
H48   H     H_    0.817997 0.394629 0.891203 0.201843
H49   H     H_    0.719333 0.343220 0.922575 0.145746
H50   H     H_    0.890103 0.399765 0.987971 0.247334
H51   H     H_    0.793106 0.339620 0.017875 0.224612
H52   H     H_    0.820828 0.204282 0.950724 0.274091
H53   H     H_    0.914692 0.226240 0.996102 0.268543
H54   H     H_    0.920120 0.263829 0.922543 0.266545
H55   H     H_    0.498282 0.741608 0.350191 0.150136
H56   H     H_    0.704787 0.087162 0.436115 0.174674
H57   H     H_    0.518453 0.743120 0.273779 0.115458
H58   H     H_    0.656784 0.793839 0.364242 0.263404
H59   H     H_    0.677192 0.791924 0.288240 0.225495
H60   H     H_    0.558863 0.915362 0.275697 0.274854
H61   H     H_    0.646188 0.953768 0.322374 0.272131
H62   H     H_    0.538450 0.917530 0.352244 0.271878
H63   H     H_    0.501642 0.741547 0.649921 0.150114
H64   H     H_    0.481237 0.743050 0.726308 0.115567
H65   H     H_    0.343191 0.793705 0.635678 0.263493
H66   H     H_    0.322551 0.791779 0.711651 0.225515
H67   H     H_    0.709203 0.915614 0.441940 0.168939
H68   H     H_    0.440755 0.915283 0.724351 0.274848
H69   H     H_    0.353641 0.953651 0.677517 0.272120
H70   H     H_    0.461491 0.917431 0.647840 0.271869
H71   H     H_    0.679580 0.427689 0.377317 0.178294
H72   H     H_    0.792617 0.381849 0.378527 0.130447
H73   H     H_    0.727667 0.525086 0.289276 0.279116
H74   H     H_    0.833904 0.465464 0.290167 0.203991
H75   H     H_    0.745205 0.308332 0.285623 0.251448
H76   H     H_    0.746556 0.381736 0.222966 0.304777
H77   H     H_    0.648609 0.381066 0.269365 0.268562
H78   H     H_    0.295236 0.087124 0.563910 0.174663
H79   H     H_    0.320427 0.427514 0.622671 0.178402
H80   H     H_    0.207396 0.381644 0.621421 0.130452
H81   H     H_    0.272268 0.524806 0.710744 0.279086
H82   H     H_    0.166060 0.465113 0.709813 0.203968
H83   H     H_    0.254864 0.308037 0.714294 0.251432
H84   H     H_    0.253377 0.381347 0.776989 0.304753
H85   H     H_    0.351380 0.380850 0.730640 0.268605
H86   H     H_    0.565386 0.622762 0.210300 0.171809
N1    N     N_R   0.508090 0.489525 0.852085 -0.332763
N2    N     N_R   0.491910 0.489607 0.147907 -0.332725
N3    N     N_R   0.500000 0.750030 0.500000 -0.184735
N4    N     N_R   0.500000 0.249970 0.500000 -0.195013
O1    O     O_R   0.367850 0.580280 0.500010 -0.569294
O2    O     O_2   0.335328 0.508882 0.148571 -0.504637
O3    O     O_2   0.350503 0.477546 0.850193 -0.588851
O4    O     O_2   0.649535 0.478169 0.149801 -0.588854
O5    O     O_3   0.657700 0.752972 0.476995 -0.599936
O6    O     O_3   0.383567 0.246397 0.571985 -0.634174
O7    O     O_3   0.342303 0.752947 0.523014 -0.600017
O8    O     O_3   0.616484 0.246438 0.428047 -0.634104
O9    O     O_3   0.249787 0.483513 0.054857 -0.604063
O10   O     O_3   0.750231 0.484686 0.945129 -0.603982
O11   O     O_3   0.587706 0.639970 0.321185 -0.612681
O12   O     O_R   0.632150 0.419720 0.499990 -0.603432
O13   O     O_3   0.412172 0.639861 0.678828 -0.612667
O14   O     O_3   0.773412 0.528178 0.394720 -0.630431
O15   O     O_3   0.226592 0.527999 0.605296 -0.630440
O16   O     O_R   0.632150 0.580280 0.499990 -0.569312
O17   O     O_R   0.367850 0.419720 0.500010 -0.603496
O18   O     O_R   0.499970 0.580290 0.416160 -0.585408
O19   O     O_R   0.500030 0.419710 0.583840 -0.645716
O20   O     O_R   0.500030 0.580290 0.583840 -0.585442
O21   O     O_R   0.499970 0.419710 0.416160 -0.645722
O22   O     O_2   0.664620 0.509262 0.851399 -0.504645
Zn1   Zn    Zn3+2 0.500000 0.607200 0.500000 1.025439
Zn2   Zn    Zn3+2 0.500000 0.392800 0.500000 0.980283

loop_
_geom_bond_atom_site_label_1
_geom_bond_atom_site_label_2
_ccdc_geom_bond_type
C90   H83   S    
C85   C86   S    
C35   C41   A    
O18   Zn1   S    
C22   H7    S    
C83   H69   S    
C39   C40   A    
C40   H67   S    
C22   C25   A    
C53   H1    S    
C79   C80   S    
C51   C57   A    
C7    O14   S    
C70   H37   S    
C75   C76   S    
C90   H84   S    
C12   O16   A    
C44   C47   A    
C27   N3    A    
Br1   C3    S    
C15   C24   A    
C30   N4    A    
C59   H11   S    
C2    C78   A    
C34   C56   A    
C36   C37   A    
C9    C12   S    
C7    C20   A    
C62   H20   S    
C85   H74   S    
C81   H63   S    
C79   H58   S    
C64   O7    S    
C56   O13   S    
C17   O19   A    
C42   N1    A    
C6    C34   A    
C33   C40   A    
C75   H50   S    
C45   C67   A    
C1    C10   S    
C43   N2    A    
C84   O14   S    
C2    H4    S    
C80   H61   S    
C88   C90   S    
C42   C51   A    
C38   C41   A    
C50   C52   A    
C47   C49   A    
C64   H25   S    
C48   C50   A    
O19   Zn2   S    
C29   C31   A    
C68   C69   S    
C83   H68   S    
C21   C25   A    
C59   H13   S    
C65   H28   S    
C23   C45   A    
C59   C60   S    
C76   H53   S    
C56   C78   A    
C77   H57   S    
C74   H49   S    
C16   C67   S    
C46   C48   A    
C64   C65   S    
C12   O12   A    
C71   H40   S    
C14   C22   A    
C20   C26   A    
C29   N3    A    
O16   Zn1   S    
C81   O13   S    
C83   H70   S    
C28   N4    A    
C69   H35   S    
C57   O10   S    
Br2   C4    S    
C32   C39   A    
C23   H86   S    
C58   H10   S    
C66   H31   S    
C41   H78   S    
C26   H34   S    
C74   H48   S    
C71   C72   S    
O12   Zn2   S    
O21   Zn2   S    
C31   C38   A    
C28   O6    S    
C72   C73   S    
C32   C37   A    
C33   C36   A    
C82   C83   S    
C87   H79   S    
C2    C4    A    
C90   H85   S    
C66   H30   S    
C3    C5    A    
C82   H66   S    
C73   H44   S    
C62   H19   S    
C4    C6    A    
C81   H64   S    
C86   H76   S    
C79   H59   S    
O20   Zn1   S    
C17   O20   A    
C15   C19   A    
C27   O5    S    
C28   C35   A    
C58   C59   S    
C49   C51   A    
C30   C32   A    
C61   H17   S    
N3    Zn1   S    
C65   C66   S    
C75   H51   S    
C46   O4    S    
C74   O10   S    
C76   H52   S    
C1    O17   A    
C81   C82   S    
C88   H81   S    
C10   C13   A    
C14   C18   A    
C86   H75   S    
C72   H43   S    
C30   O8    S    
C71   O9    S    
C74   C75   S    
C70   H38   S    
C7    C9    A    
C54   H12   S    
C16   O21   A    
C8    C10   A    
C38   H45   S    
C60   H14   S    
C68   H33   S    
C71   H41   S    
C43   C52   A    
C58   O5    S    
C53   C55   A    
C68   H32   S    
C16   O18   A    
O1    Zn1   S    
C63   H24   S    
C69   H36   S    
C84   H72   S    
C13   H6    S    
C58   H9    S    
C8    O15   S    
C46   N2    A    
C68   O8    S    
C70   H39   S    
C77   C79   S    
C13   C15   A    
C27   C33   A    
C86   H77   S    
C84   C85   S    
C63   H21   S    
C44   N1    A    
C45   O11   S    
C87   H80   S    
C18   C20   A    
C73   H46   S    
C5    C23   A    
C66   H29   S    
C77   H55   S    
C82   H65   S    
C55   O9    S    
C60   H15   S    
C8    C21   A    
C87   O15   S    
C29   O7    S    
C24   C26   A    
C31   C36   A    
C77   O11   S    
C54   C57   A    
C62   C63   S    
C61   H18   S    
C19   C21   A    
C49   C50   A    
C35   C37   A    
C47   C53   A    
C9    C11   A    
C6    N1    S    
C85   H73   S    
C39   H56   S    
C65   H27   S    
C72   H42   S    
C5    N2    S    
O17   Zn2   S    
C44   O3    S    
C11   H5    S    
C17   C78   S    
C48   C54   A    
C63   H22   S    
C88   H82   S    
C76   H54   S    
C89   H3    S    
C61   C62   S    
C80   H62   S    
C34   H2    S    
C69   C70   S    
C60   H16   S    
C18   C19   A    
C3    C89   A    
C61   O6    S    
C64   H26   S    
C11   C14   A    
C42   O22   S    
C73   H47   S    
C84   H71   S    
N4    Zn2   S    
C87   C88   S    
C67   C89   A    
C1    O1    A    
C80   H60   S    
C43   O2    S    
C24   H8    S    
C52   C55   A    
C25   H23   S    
