data_mof_unit_22821.cif
_audit_creation_date              2012-12-10T18:09:51-0500
_audit_creation_method            fapswitch 2.2
_symmetry_space_group_name_H-M    P1
_symmetry_Int_Tables_number       1
_space_group_crystal_system       triclinic
_cell_length_a                    10.620309
_cell_length_b                    12.737328
_cell_length_c                    13.054975
_cell_angle_alpha                 81.786978
_cell_angle_beta                  92.602449
_cell_angle_gamma                 102.20901
_cell_volume                      1708.14744416

loop_
_atom_site_label
_atom_site_type_symbol
_atom_type_description
_atom_site_fract_x
_atom_site_fract_y
_atom_site_fract_z
_atom_type_partial_charge
C1    C     C_R   0.486870 0.438943 0.691111 0.955857
C2    C     C_R   0.489814 0.448108 0.973814 0.015783
C3    C     C_R   0.541980 0.458295 0.874735 -0.160359
C4    C     C_R   0.741526 0.500363 0.501467 0.880301
C5    C     C_R   0.543969 0.526056 0.038979 0.002222
C6    C     C_R   0.660248 0.601806 0.011463 -0.075306
C7    C     C_R   0.721194 0.598651 0.919754 0.506608
C8    C     C_R   0.662889 0.527515 0.851908 0.546729
C9    C     C_R   0.485722 0.530382 0.131316 -0.165017
C10   C     C_R   0.661704 0.672262 0.174402 -0.223009
C11   C     C_R   0.470940 0.399139 0.800692 -0.040260
C12   C     C_3   0.121182 0.499076 0.502561 0.138017
C13   C     C_R   0.289583 0.088513 0.365903 0.369236
C14   C     C_R   0.661801 0.800767 0.625702 0.494998
C15   C     C_R   0.686615 0.901865 0.660603 -0.421763
C16   C     C_R   0.516693 0.560672 0.309143 0.846028
C17   C     C_R   0.617707 0.979760 0.619887 0.606953
C18   C     C_R   0.526362 0.959880 0.538633 -0.171967
C19   C     C_R   0.497985 0.853774 0.509072 0.024474
C20   C     C_R   0.462064 0.040469 0.485626 -0.012523
C21   C     C_R   0.355938 0.010423 0.417792 0.010811
C22   C     C_R   0.320285 0.904137 0.400252 -0.364783
C23   C     C_3   0.062449 0.486431 0.393198 -0.509857
C24   C     C_R   0.398351 0.830852 0.433459 0.492156
C25   C     C_R   0.501120 0.151171 0.493849 -0.012826
C26   C     C_R   0.328877 0.194264 0.384133 -0.029812
C27   C     C_R   0.258319 0.499262 0.500774 0.877947
C28   C     C_3   0.907472 0.405635 0.582215 -0.389160
C29   C     C_3   0.052191 0.403642 0.581740 0.252751
C30   C     C_3   0.918290 0.487804 0.393206 -0.422355
C31   C     C_3   0.957452 0.608722 0.533923 -0.361935
C32   C     C_3   0.878448 0.500861 0.502748 0.087610
C33   C     C_3   0.100133 0.608316 0.532831 -0.350791
C34   C     C_R   0.716072 0.676613 0.078419 -0.091712
C35   C     C_R   0.548974 0.595866 0.201676 -0.041282
C36   C     C_R   0.367391 0.313426 0.830782 -0.147033
C37   C     C_R   0.328254 0.291810 0.932900 -0.125170
C38   C     C_R   0.386048 0.360014 0.003580 -0.103519
F1    F     F_    0.837838 0.663813 0.896148 -0.655276
F2    F     F_    0.728897 0.521123 0.767096 -0.642825
F3    F     F_    0.636242 0.070253 0.666729 -0.680555
H1    H     H_    0.850858 0.326797 0.562597 0.163592
H2    H     H_    0.248678 0.225263 0.956247 0.149557
H3    H     H_    0.877947 0.414272 0.660834 0.240363
H4    H     H_    0.278119 0.255712 0.348458 0.153723
H5    H     H_    0.236888 0.878480 0.352263 0.154184
H6    H     H_    0.585459 0.184430 0.536504 0.214089
H7    H     H_    0.757747 0.919620 0.721264 0.195824
H8    H     H_    0.063217 0.325514 0.557422 0.107363
H9    H     H_    0.861981 0.410996 0.368887 0.199898
H10   H     H_    0.075305 0.408925 0.369270 0.189249
H11   H     H_    0.937623 0.679010 0.479055 0.180523
H12   H     H_    0.147221 0.677649 0.476187 0.179938
H13   H     H_    0.930794 0.619220 0.612812 0.255338
H14   H     H_    0.143379 0.621369 0.610505 0.228220
H15   H     H_    0.212029 0.018774 0.250021 0.331377
H16   H     H_    0.801295 0.754954 0.709361 0.359429
H17   H     H_    0.314243 0.740502 0.329707 0.299674
H18   H     H_    0.077883 0.340356 0.723471 0.340131
H19   H     H_    0.897828 0.555810 0.335686 0.176127
H20   H     H_    0.112172 0.553671 0.335507 0.184145
H21   H     H_    0.712343 0.722620 0.229740 0.153444
H22   H     H_    0.805152 0.734367 0.059212 0.191085
H23   H     H_    0.394641 0.478249 0.154282 0.126903
H24   H     H_    0.313141 0.266344 0.774432 0.157996
H25   H     H_    0.349612 0.340139 0.081229 0.128453
N1    N     N_R   0.433240 0.222190 0.444680 -0.161864
N2    N     N_R   0.566070 0.776970 0.554790 -0.120979
O1    O     O_R   0.468120 0.366740 0.627160 -0.614856
O2    O     O_3   0.730721 0.723174 0.663595 -0.675219
O3    O     O_3   0.381917 0.741089 0.384772 -0.725922
O4    O     O_3   0.106924 0.412026 0.681172 -0.772136
O5    O     O_R   0.510770 0.544830 0.662520 -0.545594
O6    O     O_R   0.663880 0.410950 0.482330 -0.635942
O7    O     O_R   0.706530 0.589040 0.517700 -0.556446
O8    O     O_R   0.489230 0.455170 0.337480 -0.624518
O9    O     O_R   0.531880 0.633260 0.372840 -0.545564
O10   O     O_R   0.293470 0.410960 0.482300 -0.647969
O11   O     O_R   0.336120 0.589050 0.517670 -0.573651
O12   O     O_3   0.188252 0.065395 0.297319 -0.776600
Zn1   Zn    Zn3+2 0.471520 0.381090 0.476390 0.953451
Zn2   Zn    Zn3+2 0.528480 0.618910 0.523610 1.053798

loop_
_geom_bond_atom_site_label_1
_geom_bond_atom_site_label_2
_ccdc_geom_bond_type
C33   H14   S    
C12   C29   S    
C9    H23   S    
C25   N1    A    
C31   H11   S    
C27   O10   A    
C7    C8    A    
C29   H8    S    
C12   C23   S    
C26   N1    A    
C28   C29   S    
C18   C19   A    
C27   O11   A    
C16   C35   S    
C5    C6    A    
H17   O3    S    
C20   C25   A    
C16   O9    A    
C4    O7    A    
C26   H4    S    
C38   H25   S    
C30   H19   S    
C31   C33   S    
C10   C35   A    
H16   O2    S    
C25   H6    S    
C4    O6    A    
H18   O4    S    
C29   O4    S    
C30   H9    S    
C13   O12   S    
C21   C22   A    
C14   O2    S    
C10   H21   S    
C15   H7    S    
C33   H12   S    
C12   C27   S    
C23   C30   S    
C28   C32   S    
C3    C11   A    
C3    C8    A    
C36   H24   S    
C28   H3    S    
C1    O1    A    
C6    C34   A    
C11   C36   A    
C37   H2    S    
C5    C9    A    
C37   C38   A    
C2    C38   A    
C23   H10   S    
C31   C32   S    
C17   C18   A    
C13   C21   A    
C19   N2    A    
C10   C34   A    
C4    C32   S    
C22   H5    S    
N1    Zn1   S    
C22   C24   A    
C13   C26   A    
C2    C5    A    
O6    Zn1   S    
O5    Zn2   S    
C15   C17   A    
C36   C37   A    
C14   N2    A    
C16   O8    A    
O8    Zn1   S    
O11   Zn2   S    
O7    Zn2   S    
C6    C7    A    
H15   O12   S    
C1    O5    A    
C2    C3    A    
N2    Zn2   S    
C30   C32   S    
O10   Zn1   S    
O9    Zn2   S    
C28   H1    S    
C34   H22   S    
C19   C24   A    
C18   C20   A    
C31   H13   S    
C17   F3    S    
O1    Zn1   S    
C23   H20   S    
C20   C21   A    
C9    C35   A    
C7    F1    S    
C14   C15   A    
C1    C11   S    
C8    F2    S    
C12   C33   S    
C24   O3    S    
