data_mof_unit_14368.cif
_audit_creation_date              2012-10-26T18:42:20-0400
_audit_creation_method            fapswitch 2.2
_symmetry_space_group_name_H-M    P1
_symmetry_Int_Tables_number       1
_space_group_crystal_system       triclinic
_cell_length_a                    15.882414
_cell_length_b                    19.403357
_cell_length_c                    18.153438
_cell_angle_alpha                 89.921051
_cell_angle_beta                  90.239355
_cell_angle_gamma                 90.075297
_cell_volume                      5594.32508217

loop_
_atom_site_label
_atom_site_type_symbol
_atom_type_description
_atom_site_fract_x
_atom_site_fract_y
_atom_site_fract_z
_atom_type_partial_charge
C1    C     C_R   0.499137 0.367607 0.500065 0.581104
C2    C     C_R   0.543371 0.254941 0.447244 0.229720
C3    C     C_R   0.497747 0.708082 0.500105 0.002699
C4    C     C_R   0.496692 0.291981 0.500119 0.002944
C5    C     C_R   0.556084 0.965445 0.549043 0.157350
C6    C     C_R   0.433129 0.034519 0.463487 0.154686
C7    C     C_R   0.554997 0.037847 0.546609 0.131874
C8    C     C_R   0.435717 0.962129 0.464247 0.131011
C9    C     C_R   0.493672 0.072086 0.503785 0.040872
C10   C     C_R   0.497180 0.927870 0.506941 0.042455
C11   C     C_R   0.455371 0.451198 0.720817 0.043501
C12   C     C_R   0.499661 0.632419 0.499912 0.594909
C13   C     C_R   0.546464 0.452400 0.279355 0.049996
C14   C     C_R   0.455456 0.448957 0.798529 0.145819
C15   C     C_R   0.546470 0.450209 0.201648 0.145312
C16   C     C_R   0.339785 0.499945 0.499853 0.524973
C17   C     C_R   0.660252 0.499831 0.500156 0.546901
C18   C     C_R   0.500436 0.499992 0.838438 0.084682
C19   C     C_R   0.499450 0.499932 0.161625 0.084678
C20   C     C_R   0.544996 0.550019 0.798184 -0.168990
C21   C     C_R   0.452856 0.548593 0.201735 -0.174638
C22   C     C_R   0.544610 0.548773 0.720998 0.032914
C23   C     C_R   0.449426 0.815152 0.553963 -0.179980
C24   C     C_R   0.453273 0.547297 0.278905 0.021543
C25   C     C_R   0.576902 0.504124 0.961642 0.086762
C26   C     C_R   0.422833 0.501678 0.038443 0.087117
C27   C     C_R   0.576085 0.507792 0.039572 0.268982
C28   C     C_R   0.423484 0.505383 0.960502 0.268832
C29   C     C_R   0.499393 0.502819 0.078692 -0.003138
C30   C     C_R   0.500345 0.502863 0.921380 -0.003279
C31   C     C_3   0.973278 0.466372 0.561150 0.251206
C32   C     C_3   0.026980 0.532045 0.439242 0.251543
C33   C     C_3   0.027562 0.433928 0.500311 0.089891
C34   C     C_R   0.450414 0.184322 0.554519 -0.178090
C35   C     C_3   0.972740 0.564501 0.500080 0.089655
C36   C     C_1   0.250400 0.499773 0.499584 -0.025575
C37   C     C_1   0.749710 0.499439 0.500502 -0.009200
C38   C     C_3   0.028300 0.532133 0.560588 0.258801
C39   C     C_3   0.971968 0.466284 0.439796 0.258629
C40   C     C_3   0.083682 0.499358 0.499703 -0.006846
C41   C     C_3   0.916540 0.499085 0.500680 -0.008177
C42   C     C_1   0.175074 0.499595 0.499535 0.009420
C43   C     C_1   0.825081 0.499166 0.500705 0.013616
C44   C     C_R   0.447840 0.743324 0.552062 0.066847
C45   C     C_R   0.500649 0.852263 0.505834 0.016455
C46   C     C_R   0.449266 0.256175 0.553613 0.074419
C47   C     C_3   0.999894 0.309730 0.494476 -0.296146
C48   C     C_3   0.001023 0.688600 0.505882 -0.298008
C49   C     C_3   0.460332 0.342122 0.867438 -0.316570
C50   C     C_3   0.545899 0.343204 0.133244 -0.312031
C51   C     C_3   0.681919 0.433534 0.902572 -0.293664
C52   C     C_3   0.320959 0.427900 0.097836 -0.294412
C53   C     C_3   0.667089 0.581281 0.095643 -0.135097
C54   C     C_3   0.329193 0.575925 0.904345 -0.135289
C55   C     C_3   0.002929 0.404594 0.667495 -0.132812
C56   C     C_R   0.493809 0.147688 0.500604 0.012649
C57   C     C_3   0.997523 0.593818 0.332852 -0.132062
C58   C     C_3   0.998906 0.412322 0.328894 -0.115034
C59   C     C_3   0.001508 0.586105 0.671507 -0.117488
C60   C     C_3   0.314694 0.685616 0.568414 -0.278608
C61   C     C_3   0.318475 0.314250 0.578705 -0.297259
C62   C     C_3   0.685665 0.848682 0.424950 -0.100929
C63   C     C_3   0.546012 0.150205 0.324897 -0.095288
C64   C     C_3   0.552735 0.716796 0.327584 -0.096674
C65   C     C_3   0.674544 0.296759 0.426619 -0.107197
C66   C     C_3   0.596396 0.909813 0.663442 -0.317115
C67   C     C_R   0.551300 0.817994 0.454418 0.280920
C68   C     C_3   0.296502 0.089563 0.454612 -0.316037
C69   C     C_3   0.594432 0.098126 0.659166 -0.321661
C70   C     C_3   0.301539 0.901567 0.456093 -0.321264
C71   C     C_R   0.538567 0.182508 0.445352 0.287432
C72   C     C_R   0.546381 0.745561 0.448802 0.225618
Cu1   Cu    Cu3+1 0.499980 0.500000 0.573360 0.959278
Cu2   Cu    Cu3+1 0.500020 0.500000 0.426640 0.967635
H1    H     H_    0.420152 0.413158 0.689987 0.142084
H2    H     H_    0.032395 0.259150 0.497016 0.115443
H3    H     H_    0.965696 0.312766 0.441241 0.188247
H4    H     H_    0.953717 0.312539 0.540061 0.168950
H5    H     H_    0.894651 0.642136 0.459769 0.245313
H6    H     H_    0.968793 0.739293 0.503295 0.115715
H7    H     H_    0.047193 0.685603 0.460304 0.167628
H8    H     H_    0.035210 0.685498 0.559118 0.186750
H9    H     H_    0.359871 0.376626 0.804717 0.238118
H10   H     H_    0.418827 0.303314 0.893922 0.132439
H11   H     H_    0.502803 0.363147 0.910539 0.151903
H12   H     H_    0.583025 0.415255 0.310345 0.155457
H13   H     H_    0.498078 0.316196 0.824152 0.122155
H14   H     H_    0.645036 0.380851 0.195532 0.248823
H15   H     H_    0.588931 0.305647 0.106835 0.134794
H16   H     H_    0.502431 0.362867 0.090154 0.149153
H17   H     H_    0.509429 0.316199 0.176756 0.126584
H18   H     H_    0.703151 0.529524 0.948500 0.274133
H19   H     H_    0.743044 0.436773 0.873292 0.138321
H20   H     H_    0.635353 0.409775 0.864598 0.149894
H21   H     H_    0.689874 0.400443 0.952148 0.161246
H22   H     H_    0.295559 0.523115 0.051518 0.274504
H23   H     H_    0.579465 0.590368 0.826400 0.112000
H24   H     H_    0.259674 0.429244 0.127012 0.135112
H25   H     H_    0.368454 0.405696 0.136003 0.149589
H26   H     H_    0.314567 0.394501 0.048414 0.160079
H27   H     H_    0.619653 0.601057 0.135199 0.109982
H28   H     H_    0.668718 0.614612 0.045685 0.091739
H29   H     H_    0.729646 0.584869 0.122761 0.140555
H30   H     H_    0.375729 0.597294 0.864796 0.116204
H31   H     H_    0.326014 0.609102 0.954255 0.091396
H32   H     H_    0.266537 0.577505 0.877187 0.142011
H33   H     H_    0.062105 0.435410 0.668350 0.139514
H34   H     H_    0.416715 0.587890 0.173424 0.111174
H35   H     H_    0.016770 0.351343 0.649303 0.117148
H36   H     H_    0.980114 0.401352 0.725059 0.128567
H37   H     H_    0.983712 0.647081 0.351022 0.118720
H38   H     H_    0.938329 0.563027 0.331939 0.143235
H39   H     H_    0.020419 0.597039 0.275311 0.127769
H40   H     H_    0.054020 0.387772 0.356223 0.149434
H41   H     H_    0.019941 0.457059 0.295683 0.151747
H42   H     H_    0.971915 0.373952 0.290179 0.121709
H43   H     H_    0.980301 0.541355 0.704615 0.152038
H44   H     H_    0.946501 0.610841 0.644209 0.150731
H45   H     H_    0.579738 0.587313 0.690888 0.134692
H46   H     H_    0.028627 0.624335 0.710312 0.116781
H47   H     H_    0.385406 0.731134 0.651021 0.239174
H48   H     H_    0.276226 0.731506 0.553838 0.117031
H49   H     H_    0.279179 0.653579 0.608414 0.163515
H50   H     H_    0.325511 0.654355 0.518151 0.153522
H51   H     H_    0.394830 0.267059 0.656299 0.235525
H52   H     H_    0.278556 0.268812 0.565364 0.125423
H53   H     H_    0.325851 0.346569 0.528614 0.160658
H54   H     H_    0.286353 0.345526 0.621344 0.126371
H55   H     H_    0.710249 0.798227 0.406010 0.158859
H56   H     H_    0.416411 0.584598 0.308961 0.124972
H57   H     H_    0.697350 0.854877 0.485088 0.127602
H58   H     H_    0.722060 0.889446 0.396311 0.129369
H59   H     H_    0.557582 0.201499 0.299676 0.158853
H60   H     H_    0.477182 0.139628 0.327083 0.122305
H61   H     H_    0.574365 0.111044 0.288147 0.129079
H62   H     H_    0.559338 0.769730 0.304938 0.149731
H63   H     H_    0.484940 0.702263 0.330467 0.096357
H64   H     H_    0.583377 0.680933 0.288446 0.130138
H65   H     H_    0.704386 0.245706 0.436634 0.140536
H66   H     H_    0.673803 0.327527 0.478332 0.107032
H67   H     H_    0.409460 0.842388 0.592425 0.107657
H68   H     H_    0.714134 0.324956 0.386359 0.146140
H69   H     H_    0.678176 0.953528 0.588086 0.269142
H70   H     H_    0.646917 0.877294 0.687628 0.134817
H71   H     H_    0.537276 0.879450 0.663028 0.146631
H72   H     H_    0.587957 0.955845 0.698783 0.139456
H73   H     H_    0.362487 0.046619 0.367988 0.268405
H74   H     H_    0.258280 0.122159 0.416945 0.135554
H75   H     H_    0.309851 0.119666 0.505132 0.147133
H76   H     H_    0.259177 0.043279 0.469438 0.140272
H77   H     H_    0.647749 0.113376 0.555432 0.261625
H78   H     H_    0.415930 0.156694 0.596700 0.107171
H79   H     H_    0.585927 0.154948 0.660145 0.135396
H80   H     H_    0.645660 0.084315 0.698186 0.145836
H81   H     H_    0.535055 0.073490 0.678171 0.134981
H82   H     H_    0.404792 0.886879 0.387000 0.258749
H83   H     H_    0.302105 0.844662 0.462985 0.132746
H84   H     H_    0.246494 0.915814 0.421496 0.145292
H85   H     H_    0.294139 0.925596 0.511298 0.136059
H86   H     H_    0.106070 0.356522 0.540593 0.235852
N1    N     N_R   0.499990 0.500020 0.683620 -0.238596
N2    N     N_2   0.399656 0.292022 0.606262 -0.505813
N3    N     N_2   0.619880 0.930102 0.589619 -0.508039
N4    N     N_2   0.373620 0.069862 0.418157 -0.509007
N5    N     N_2   0.617484 0.075914 0.585812 -0.517921
N6    N     N_2   0.377894 0.924100 0.419845 -0.518213
N7    N     N_R   0.500010 0.499980 0.316380 -0.240477
N8    N     N_2   0.061354 0.364608 0.500196 -0.528775
N9    N     N_2   0.939273 0.633923 0.500207 -0.524834
N10   N     N_2   0.409354 0.396158 0.835257 -0.472917
N11   N     N_2   0.594660 0.398813 0.165027 -0.470635
N12   N     N_2   0.655324 0.501923 0.923756 -0.512899
N13   N     N_2   0.344562 0.497050 0.076354 -0.510780
N14   N     N_2   0.393838 0.706893 0.601042 -0.493547
O1    O     O_R   0.499960 0.400180 0.561980 -0.485965
O2    O     O_3   0.347719 0.506896 0.922652 -0.538004
O3    O     O_3   0.938513 0.433633 0.623564 -0.570021
O4    O     O_3   0.061850 0.564750 0.376851 -0.571293
O5    O     O_3   0.935629 0.431848 0.378971 -0.580765
O6    O     O_3   0.064726 0.566532 0.621398 -0.582407
O7    O     O_3   0.599873 0.856314 0.406154 -0.569548
O8    O     O_3   0.584715 0.145028 0.394792 -0.559207
O9    O     O_3   0.593294 0.710805 0.396621 -0.560426
O10   O     O_3   0.592967 0.289418 0.396674 -0.574410
O11   O     O_R   0.500040 0.599820 0.438020 -0.483532
O12   O     O_R   0.500000 0.400190 0.438070 -0.476674
O13   O     O_R   0.500000 0.599810 0.561930 -0.480643
O14   O     O_R   0.379060 0.499990 0.561940 -0.495565
O15   O     O_R   0.620940 0.500010 0.438060 -0.489410
O16   O     O_R   0.379100 0.500000 0.438040 -0.503217
O17   O     O_R   0.620900 0.500000 0.561960 -0.501351
O18   O     O_3   0.651719 0.511721 0.077431 -0.536749

loop_
_geom_bond_atom_site_label_1
_geom_bond_atom_site_label_2
_ccdc_geom_bond_type
C64   H62   S    
C34   C56   A    
C59   H46   S    
C23   C45   A    
C27   C29   A    
C60   N14   S    
Cu1   Cu2   S    
C14   C18   A    
C36   C42   T    
H51   N2    S    
C71   O8    S    
C14   N10   S    
C6    C9    A    
C39   C41   S    
C64   H64   S    
C1    O12   A    
C17   O17   A    
H86   N8    S    
C15   C19   A    
C69   H81   S    
C31   O3    S    
C63   H59   S    
C49   H10   S    
C54   H30   S    
C59   O6    S    
C19   C21   A    
C44   N14   S    
C47   H2    S    
C70   H85   S    
H73   N4    S    
C70   N6    S    
C49   N10   S    
C11   C14   A    
C13   N7    A    
C57   H38   S    
C66   H70   S    
C65   H66   S    
H9    N10   S    
C11   N1    A    
C48   H7    S    
C67   C72   A    
C32   C39   S    
C54   O2    S    
C60   H50   S    
C49   H13   S    
C66   H71   S    
Cu1   N1    S    
C3    C12   S    
C67   O7    S    
Cu2   O16   S    
C64   O9    S    
C50   H16   S    
C20   H23   S    
C53   H27   S    
C13   H12   S    
C45   C67   A    
C31   C33   S    
C61   H52   S    
C68   H75   S    
C41   C43   S    
C68   H74   S    
Cu2   O11   S    
C40   C42   S    
C7    N5    S    
C59   H43   S    
H14   N11   S    
C55   H35   S    
C58   H42   S    
Cu1   O1    S    
C55   O3    S    
C62   H55   S    
C32   O4    S    
C50   N11   S    
H69   N3    S    
Cu2   N7    S    
Cu1   O13   S    
C57   H37   S    
C64   H63   S    
C68   N4    S    
C22   H45   S    
C3    C44   A    
C33   C40   S    
C38   O6    S    
H22   N13   S    
C54   H32   S    
C61   N2    S    
C32   C35   S    
C49   H11   S    
C24   N7    A    
C16   O14   A    
C5    C7    A    
C22   N1    A    
C34   H78   S    
C28   O2    S    
C4    C46   A    
C26   N13   S    
C17   O15   A    
H77   N5    S    
C12   O13   A    
C52   H26   S    
C69   H79   S    
C23   C44   A    
C55   H33   S    
C70   H84   S    
C63   H61   S    
C37   C43   T    
C60   H49   S    
C2    C4    A    
C63   H60   S    
C62   H58   S    
Cu2   O15   S    
C33   C39   S    
C50   H15   S    
C39   O5    S    
H47   N14   S    
H82   N6    S    
C53   H28   S    
C56   C71   A    
C35   C38   S    
C10   C45   S    
C15   N11   S    
C61   H53   S    
C9    C56   S    
C57   H39   S    
C60   H48   S    
C58   O5    S    
C8    N6    S    
C51   H19   S    
C34   C46   A    
C25   N12   S    
C20   C22   A    
C59   H44   S    
C13   C15   A    
C55   H36   S    
C18   C30   S    
C35   N9    S    
C33   N8    S    
C27   O18   S    
C17   C37   S    
C2    C71   A    
C19   C29   S    
C5    N3    S    
Cu1   O14   S    
C25   C30   A    
C7    C9    A    
C1    O1    A    
C65   H68   S    
C31   C41   S    
C54   H31   S    
C51   N12   S    
C62   H57   S    
C23   H67   S    
C72   O9    S    
C6    N4    S    
C6    C8    A    
C25   C27   A    
C52   H25   S    
C26   C28   A    
C69   H80   S    
C31   C38   S    
C70   H83   S    
H5    N9    S    
C28   C30   A    
C3    C72   A    
C5    C10   A    
C11   H1    S    
C16   C36   S    
C62   O7    S    
C38   C40   S    
C47   N8    S    
C48   H6    S    
C58   H41   S    
C57   O4    S    
H18   N12   S    
C12   O11   A    
C16   O16   A    
C52   H24   S    
C1    C4    S    
C63   O8    S    
C48   H8    S    
C66   N3    S    
C2    O10   S    
C61   H54   S    
C18   C20   A    
C32   C40   S    
C35   C41   S    
C53   O18   S    
C69   N5    S    
C66   H72   S    
C21   H34   S    
C68   H76   S    
C51   H20   S    
C48   N9    S    
C65   H65   S    
C24   H56   S    
C50   H17   S    
C26   C29   A    
C8    C10   A    
C46   N2    S    
C21   C24   A    
C58   H40   S    
C47   H3    S    
C53   H29   S    
C47   H4    S    
Cu2   O12   S    
C52   N13   S    
C51   H21   S    
Cu1   O17   S    
C65   O10   S    
