data_mof_unit_49164.cif
_audit_creation_date              2012-12-10T18:06:46-0500
_audit_creation_method            fapswitch 2.2
_symmetry_space_group_name_H-M    P1
_symmetry_Int_Tables_number       1
_space_group_crystal_system       triclinic
_cell_length_a                    12.576519
_cell_length_b                    13.156006
_cell_length_c                    15.554021
_cell_angle_alpha                 84.225322
_cell_angle_beta                  98.951823
_cell_angle_gamma                 97.286758
_cell_volume                      2513.0347279

loop_
_atom_site_label
_atom_site_type_symbol
_atom_type_description
_atom_site_fract_x
_atom_site_fract_y
_atom_site_fract_z
_atom_type_partial_charge
C1    C     C_R   0.443772 0.307764 0.512341 0.848972
C2    C     C_R   0.438905 0.466455 0.106215 0.096896
C3    C     C_R   0.328081 0.433713 0.078252 0.188614
C4    C     C_R   0.518570 0.456180 0.052880 -0.023015
C5    C     C_R   0.481927 0.438923 0.964008 0.037529
C6    C     C_R   0.370578 0.408838 0.936991 -0.209853
C7    C     C_R   0.295557 0.403175 0.994314 -0.242363
C8    C     C_R   0.632459 0.459873 0.083873 0.196911
C9    C     C_R   0.705415 0.457567 0.025322 -0.259066
C10   C     C_R   0.670027 0.455028 0.936571 0.118331
C11   C     C_R   0.558097 0.449569 0.904948 0.090833
C12   C     C_R   0.434882 0.511287 0.336445 0.850841
C13   C     C_R   0.745535 0.457583 0.878762 -0.184178
C14   C     C_R   0.711011 0.462415 0.789259 -0.215682
C15   C     C_R   0.525843 0.460899 0.814725 -0.247699
C16   C     C_R   0.729122 0.945124 0.519593 -0.231131
C17   C     C_R   0.591829 0.803179 0.484901 -0.154565
C18   C     C_R   0.296378 0.159174 0.509419 0.232641
C19   C     C_R   0.266826 0.052790 0.512614 -0.178337
C20   C     C_R   0.345157 0.985946 0.520754 -0.257812
C21   C     C_R   0.456354 0.023355 0.529266 0.093780
C22   C     C_R   0.487271 0.127082 0.544689 0.045828
C23   C     C_R   0.556203 0.692381 0.487687 0.867439
C24   C     C_R   0.538018 0.962218 0.520323 0.090734
C25   C     C_R   0.648688 0.001068 0.537884 0.113543
C26   C     C_R   0.677075 0.096541 0.571487 -0.234595
C27   C     C_R   0.596962 0.158159 0.576728 -0.141548
C28   C     C_R   0.512070 0.865133 0.490440 -0.288199
C29   C     C_R   0.701310 0.846607 0.488790 0.204802
C30   C     C_R   0.408436 0.196938 0.524737 -0.195898
C31   C     C_R   0.143250 0.651524 0.617838 -0.315393
C32   C     C_R   0.762157 0.373047 0.401556 0.350882
C33   C     C_R   0.855959 0.369140 0.364937 -0.332002
C34   C     C_R   0.564153 0.485209 0.663668 0.853787
C35   C     C_R   0.948070 0.435605 0.389837 0.173503
C36   C     C_R   0.951479 0.491863 0.463731 -0.031068
C37   C     C_R   0.852612 0.504165 0.490835 0.072804
C38   C     C_R   0.048192 0.534814 0.511581 -0.020101
C39   C     C_R   0.045343 0.603337 0.576260 0.081711
C40   C     C_R   0.945767 0.620631 0.599363 0.170550
C41   C     C_R   0.850640 0.570650 0.555620 -0.190882
C42   C     C_R   0.148415 0.505274 0.502310 -0.003677
C43   C     C_R   0.240034 0.625183 0.599997 0.006876
C44   C     C_R   0.391845 0.500688 0.244851 -0.056089
C45   C     C_R   0.601518 0.469517 0.757078 -0.057045
C46   C     C_R   0.251267 0.431718 0.135084 -0.211079
C47   C     C_R   0.284190 0.460996 0.219579 -0.209946
C48   C     C_R   0.465088 0.511756 0.185280 -0.282566
H1    H     H_    0.211341 0.377339 0.972083 0.141924
H2    H     H_    0.831231 0.457667 0.902663 0.132383
H3    H     H_    0.761248 0.125276 0.590556 0.145371
H4    H     H_    0.812425 0.979690 0.528636 0.147993
H5    H     H_    0.428954 0.834519 0.472343 0.170263
H6    H     H_    0.182739 0.020603 0.503197 0.156614
H7    H     H_    0.622326 0.230963 0.604514 0.171591
H8    H     H_    0.316233 0.662145 0.630826 0.140954
H9    H     H_    0.442268 0.467881 0.788339 0.158648
H10   H     H_    0.775894 0.581890 0.574622 0.232828
H11   H     H_    0.770452 0.464568 0.745468 0.160481
H12   H     H_    0.791053 0.457751 0.049870 0.160303
H13   H     H_    0.167069 0.403524 0.115449 0.131459
H14   H     H_    0.543343 0.553814 0.203002 0.184152
H15   H     H_    0.340239 0.384170 0.872698 0.148182
N1    N     N_R   0.239390 0.551900 0.544730 -0.112241
N2    N     N_R   0.759950 0.448600 0.455730 -0.153235
O1    O     O_R   0.374950 0.371210 0.521360 -0.592652
O2    O     O_R   0.542050 0.338030 0.492790 -0.603278
O3    O     O_R   0.368720 0.526070 0.390200 -0.615865
O4    O     O_R   0.535820 0.492890 0.361630 -0.638184
O5    O     O_R   0.457950 0.661970 0.507210 -0.610958
O6    O     O_R   0.625050 0.628790 0.478640 -0.630738
O7    O     O_R   0.464180 0.507110 0.638370 -0.612423
O8    O     O_R   0.631280 0.473930 0.609800 -0.644723
Zn1   Zn    Zn3+2 0.388420 0.522150 0.519080 0.939294
Zn2   Zn    Zn3+2 0.611580 0.477850 0.480920 0.912954
N3    N     N_2   0.779814 0.791445 0.461361 -0.291622
H16   H     H_    0.750993 0.751763 0.407036 0.243522
C49   C     C_3   0.890505 0.838347 0.461749 -0.806189
H17   H     H_    0.939096 0.783642 0.439790 0.244343
H18   H     H_    0.927688 0.856146 0.528862 0.260424
H19   H     H_    0.893087 0.909205 0.416417 0.231120
N4    N     N_2   0.215629 0.228438 0.485659 -0.280514
H20   H     H_    0.219295 0.269687 0.425966 0.220802
C50   C     C_3   0.106783 0.197153 0.505259 -0.819139
H21   H     H_    0.062335 0.265753 0.499543 0.242610
H22   H     H_    0.109029 0.161014 0.573135 0.250960
H23   H     H_    0.062430 0.143012 0.458097 0.225933
H24   H     H_    0.315947 0.905270 0.520488 0.147739
N5    N     N_2   0.944426 0.680792 0.671281 -0.308192
H25   H     H_    0.995833 0.660495 0.727017 0.222854
C51   C     C_3   0.844354 0.711815 0.689422 -0.804720
H26   H     H_    0.862795 0.767610 0.740182 0.241563
H27   H     H_    0.792033 0.644750 0.714009 0.234568
H28   H     H_    0.800767 0.749875 0.630440 0.273518
H29   H     H_    0.146137 0.709038 0.663457 0.155069
H30   H     H_    0.157147 0.444449 0.463468 0.163288
N6    N     N_2   0.668147 0.302374 0.380051 -0.266429
H31   H     H_    0.600707 0.333693 0.348112 0.254738
C52   C     C_3   0.680281 0.202359 0.353982 -0.825224
H32   H     H_    0.604742 0.150105 0.359998 0.256627
H33   H     H_    0.748156 0.168360 0.396973 0.252063
H34   H     H_    0.694497 0.208848 0.284841 0.231032
N7    N     N_2   0.031498 0.451325 0.335769 -0.328451
H35   H     H_    0.032382 0.394556 0.294763 0.215639
C53   C     C_3   0.054567 0.555138 0.296494 -0.808758
H36   H     H_    0.040422 0.555444 0.224160 0.228888
H37   H     H_    0.140680 0.583559 0.317382 0.258616
H38   H     H_    0.003003 0.609360 0.315592 0.250059
H39   H     H_    0.855511 0.320104 0.313023 0.167889
H40   H     H_    0.227039 0.449187 0.265759 0.167894
N8    N     N_2   0.675775 0.450415 0.173908 -0.313532
H41   H     H_    0.629486 0.407924 0.216559 0.232324
C54   C     C_3   0.752611 0.534391 0.206545 -0.809304
H42   H     H_    0.835511 0.511602 0.214179 0.265825
H43   H     H_    0.735483 0.552384 0.270934 0.246113
H44   H     H_    0.748435 0.605223 0.161205 0.240942

loop_
_geom_bond_atom_site_label_1
_geom_bond_atom_site_label_2
_ccdc_geom_bond_type
C12   O4    A    
C34   O7    A    
C17   C29   A    
C35   C36   A    
C50   H23   S    
C4    C8    A    
N6    H31   S    
N8    C54   S    
C29   N3    S    
C14   H11   S    
C53   H37   S    
C26   C27   A    
C17   C23   S    
C31   C43   A    
C42   H30   S    
C36   C37   A    
C50   H22   S    
C41   H10   S    
C5    C11   A    
C3    C7    A    
C38   C39   A    
C33   C35   A    
C49   H18   S    
O3    Zn1   S    
O1    Zn1   S    
C32   N6    S    
C18   C19   A    
C18   N4    S    
C11   C15   A    
C50   H21   S    
N8    H41   S    
C8    C9    A    
C37   N2    A    
O5    Zn1   S    
C18   C30   A    
C40   N5    S    
N5    C51   S    
C24   C28   A    
C9    C10   A    
C44   C47   A    
C54   H44   S    
C21   C22   A    
O8    Zn2   S    
C23   O5    A    
N6    C52   S    
C43   N1    A    
C14   C45   A    
C53   H38   S    
C46   H13   S    
C23   O6    A    
C24   C25   A    
C7    H1    S    
O7    Zn1   S    
C8    N8    S    
C39   C40   A    
C49   H17   S    
C2    C48   A    
C16   C29   A    
C6    H15   S    
C2    C4    A    
C51   H27   S    
C12   O3    A    
C48   H14   S    
C52   H32   S    
C1    O1    A    
N7    C53   S    
C34   C45   S    
N3    H16   S    
C19   H6    S    
C31   H29   S    
C40   C41   A    
C52   H33   S    
N4    C50   S    
C22   C27   A    
O2    Zn2   S    
C15   C45   A    
C42   N1    A    
C51   H26   S    
C54   H42   S    
C16   C25   A    
C46   C47   A    
C22   C30   A    
C17   C28   A    
C16   H4    S    
N3    C49   S    
C4    C5    A    
C10   C13   A    
C28   H5    S    
C38   C42   A    
C6    C7    A    
C47   H40   S    
C53   H36   S    
C3    C46   A    
C35   N7    S    
N2    Zn2   S    
C9    H12   S    
C32   C33   A    
C19   C20   A    
C36   C38   A    
C2    C3    A    
C25   C26   A    
C12   C44   S    
C26   H3    S    
C51   H28   S    
O6    Zn2   S    
C49   H19   S    
C5    C6    A    
C15   H9    S    
C20   H24   S    
C1    C30   S    
C1    O2    A    
C31   C39   A    
O4    Zn2   S    
C27   H7    S    
C37   C41   A    
C10   C11   A    
C34   O8    A    
C13   H2    S    
C43   H8    S    
C52   H34   S    
C33   H39   S    
C20   C21   A    
N4    H20   S    
C21   C24   A    
N7    H35   S    
N1    Zn1   S    
N5    H25   S    
C13   C14   A    
C44   C48   A    
C32   N2    A    
C54   H43   S    
