data_mof_unit_50302.cif
_audit_creation_date              2013-03-05T15:41:44-0500
_audit_creation_method            fapswitch 2.2
_symmetry_space_group_name_H-M    P1
_symmetry_Int_Tables_number       1
_space_group_crystal_system       triclinic
_cell_length_a                    6.958611
_cell_length_b                    13.829644
_cell_length_c                    20.38564
_cell_angle_alpha                 101.990138
_cell_angle_beta                  89.823463
_cell_angle_gamma                 90.766681
_cell_volume                      1918.84230161

loop_
_atom_site_label
_atom_site_type_symbol
_atom_site_description
_atom_site_fract_x
_atom_site_fract_y
_atom_site_fract_z
_atom_type_partial_charge
O1    O     O_R   0.506860 0.599390 0.449240 -0.548560
O2    O     O_R   0.180220 0.594600 0.586780 -0.564847
O3    O     O_R   0.004500 0.400610 0.550760 -0.542720
C1    C     C_R   0.348404 0.613440 0.614346 0.868591
O4    O     O_R   0.177490 0.611290 0.451970 -0.539544
O5    O     O_R   0.001750 0.417420 0.414990 -0.569595
C2    C     C_R   0.347462 0.637459 0.435266 0.987649
O6    O     O_R   0.509610 0.582580 0.585010 -0.525842
O7    O     O_3   0.337420 0.436370 0.488020 -0.278873
V1    V     V_3+5 0.064680 0.511800 0.502220 1.296437
O8    O     O_R   0.671710 0.405400 0.413220 -0.528067
C3    C     C_R   0.840242 0.387615 0.385434 0.830977
O9    O     O_R   0.674440 0.388710 0.548030 -0.575199
C4    C     C_R   0.842876 0.363810 0.565865 0.839803
V2    V     V_3+5 0.564010 0.488200 0.497780 1.300918
O10   O     O_3   0.841140 0.563630 0.511980 -0.257103
C5    C     C_R   0.971800 0.119128 0.607881 0.494752
C6    C     C_R   0.856295 0.283482 0.602713 -0.259250
C7    C     C_R   0.872960 0.310684 0.925064 0.275411
C8    C     C_R   0.903211 0.386162 0.888444 0.343046
C9    C     C_R   0.935399 0.360981 0.818925 0.402914
C10   C     C_R   0.902037 0.262549 0.783193 -0.070330
C11   C     C_R   0.882031 0.186251 0.819791 -0.216126
C12   C     C_R   0.893499 0.237350 0.711526 -0.005873
C13   C     C_R   0.938979 0.139977 0.678145 -0.193515
C14   C     C_R   0.937878 0.064865 0.715729 0.368545
C15   C     C_R   0.884814 0.087162 0.783597 0.273608
C16   C     C_R   0.827138 0.304248 0.672932 0.390690
C17   C     C_R   0.933166 0.191645 0.570270 0.308611
C18   C     C_R   0.866219 0.211198 0.891238 -0.124577
C19   C     C_2   0.995731 0.280374 0.286068 0.280488
C20   C     C_2   0.847278 0.339553 0.312803 0.193225
C21   C     C_2   0.003158 0.232917 0.213148 0.472503
C22   C     C_2   0.864575 0.167631 0.185480 0.313607
C23   C     C_2   0.215014 0.754719 0.795890 0.349744
C24   C     C_2   0.355883 0.821273 0.819193 -0.182583
H1    H     H_    0.466207 0.837414 0.785690 0.164835
C25   C     C_2   0.204227 0.705577 0.722818 0.324524
C26   C     C_2   0.360848 0.670998 0.684777 0.095923
C27   C     C_R   0.468796 0.881337 0.388702 0.351306
C28   C     C_R   0.363283 0.715497 0.396635 -0.290107
C29   C     C_R   0.369021 0.687454 0.074454 0.203668
C30   C     C_R   0.389670 0.613351 0.111715 0.234428
C31   C     C_R   0.407325 0.639394 0.182098 0.390439
C32   C     C_R   0.371022 0.737376 0.216531 0.023502
C33   C     C_R   0.355130 0.813048 0.179404 -0.175985
C34   C     C_R   0.366515 0.763210 0.287970 -0.062049
C35   C     C_R   0.413738 0.861294 0.320169 -0.148623
C36   C     C_R   0.388082 0.937221 0.284485 0.426123
C37   C     C_R   0.340096 0.912102 0.215601 0.259963
C38   C     C_R   0.311415 0.695344 0.328308 0.353002
C39   C     C_R   0.451038 0.806586 0.425925 0.188668
C40   C     C_R   0.357409 0.787618 0.107704 -0.201429
O11   O     O_R   0.203230 0.917310 0.915020 -0.545588
O12   O     O_R   0.535500 0.888690 0.048040 -0.560778
O13   O     O_R   0.711080 0.082610 0.085000 -0.568910
C41   C     C_R   0.366384 0.864364 0.066804 0.960061
O14   O     O_R   0.532630 0.905370 0.913230 -0.497319
O15   O     O_R   0.708190 0.099410 0.949230 -0.532612
C42   C     C_R   0.363220 0.882884 0.887483 0.949555
O16   O     O_R   0.206120 0.900510 0.050790 -0.523580
O17   O     O_3   0.375360 0.063570 0.011990 -0.260935
V3    V     V_3+5 0.648170 0.988200 0.997780 1.352051
O18   O     O_R   0.038240 0.111390 0.951940 -0.573849
C43   C     C_R   0.870666 0.135236 0.932867 0.972635
O19   O     O_R   0.041120 0.094710 0.086750 -0.485165
C44   C     C_R   0.872911 0.113978 0.113968 0.872840
V4    V     V_3+5 0.148810 0.011930 0.002180 1.354923
O20   O     O_3   0.871750 0.936430 0.988010 -0.254184
O21   O     O_3   0.970161 0.169563 0.501978 -0.646099
H2    H     H_    0.903454 0.216228 0.479333 0.325001
N1    N     N_R   0.701394 0.365452 0.269420 0.088037
O22   O     O_R   0.526782 0.382865 0.291023 -0.305470
O23   O     O_R   0.747751 0.383656 0.211242 -0.330480
O24   O     O_3   0.154301 0.254594 0.174236 -0.647164
H3    H     H_    0.238288 0.304580 0.202810 0.377041
O25   O     O_3   0.719441 0.145395 0.226635 -0.703677
H4    H     H_    0.660140 0.081530 0.204650 0.334206
N2    N     N_R   0.063584 0.735818 0.840172 0.154779
O26   O     O_R   0.884982 0.732572 0.821421 -0.152876
O27   O     O_R   0.103688 0.720363 0.899333 -0.268634
O28   O     O_3   0.023504 0.692025 0.695596 -0.575903
H5    H     H_    0.022960 0.726279 0.657401 0.367489
N3    N     N_R   0.547186 0.680653 0.714114 0.064467
O29   O     O_R   0.605465 0.615542 0.747093 -0.231300
O30   O     O_R   0.668643 0.742702 0.696603 -0.231630
N4    N     N_R   0.519819 0.824077 0.493843 0.125437
O31   O     O_R   0.695277 0.855325 0.507617 -0.244406
O32   O     O_R   0.407548 0.809335 0.542089 -0.315925
O33   O     O_3   0.381164 0.033963 0.319972 -0.609633
H6    H     H_    0.385123 0.079964 0.288855 0.381071
N5    N     N_R   0.551141 0.975392 0.420027 0.161872
O34   O     O_R   0.483462 0.024036 0.476759 -0.261780
O35   O     O_R   0.701940 0.009547 0.393972 -0.271448
N6    N     N_R   0.959489 0.963269 0.683787 0.160449
O36   O     O_R   0.119903 0.918790 0.689862 -0.321374
O37   O     O_R   0.816731 0.914360 0.650926 -0.204541
N7    N     N_R   0.184599 0.613139 0.301701 0.120629
O38   O     O_R   0.213705 0.525672 0.313637 -0.326367
O39   O     O_R   0.040294 0.625538 0.263951 -0.322366
N8    N     N_R   0.363419 0.660488 0.002486 0.122207
O40   O     O_R   0.248423 0.589988 0.972976 -0.210695
O41   O     O_R   0.491271 0.695938 0.966829 -0.303561
O42   O     O_3   0.479949 0.573248 0.217763 -0.626656
H7    H     H_    0.540130 0.517508 0.186684 0.391929
N9    N     N_R   0.398438 0.511239 0.078182 0.114140
O43   O     O_R   0.519940 0.482933 0.029617 -0.292636
O44   O     O_R   0.291954 0.445339 0.098731 -0.278875
N10   N     N_R   0.235044 0.981476 0.187659 0.054838
O45   O     O_R   0.049064 0.972330 0.183789 -0.385140
O46   O     O_R   0.321292 0.055952 0.169881 -0.364000
O47   O     O_3   0.045720 0.028287 0.577434 -0.595756
H8    H     H_    0.056685 0.022403 0.528382 0.391801
O48   O     O_3   0.725609 0.386075 0.705045 -0.642492
H9    H     H_    0.660690 0.417625 0.672065 0.337326
O49   O     O_3   0.864479 0.330777 0.994364 -0.666488
H10   H     H_    0.942301 0.390898 0.012163 0.363805
N11   N     N_R   0.024637 0.433025 0.786397 0.146563
O50   O     O_R   0.170170 0.408680 0.746379 -0.354839
O51   O     O_R   0.966532 0.523927 0.798595 -0.163851
O52   O     O_3   0.911160 0.484872 0.919359 -0.581390
H11   H     H_    0.828870 0.495527 0.959782 0.364610
N12   N     N_R   0.798109 0.010449 0.810909 0.075350
O53   O     O_R   0.611949 0.008176 0.815335 -0.376681
O54   O     O_R   0.896630 0.934084 0.817818 -0.306433
O55   O     O_3   0.139787 0.256238 0.325719 -0.668569
H12   H     H_    0.217861 0.317140 0.340629 0.359835

loop_
_geom_bond_atom_site_label_1
_geom_bond_atom_site_label_2
_geom_bond_distance
_ccdc_geom_bond_type
O19   V4    2.009813 S    
N4    O31   1.301488 A    
C29   N8    1.437247 S    
O55   H12   0.989616 S    
C5    C17   1.412049 A    
C4    C6    1.468664 S    
N6    O36   1.300253 A    
C36   O33   1.383838 S    
C1    O6    1.304139 A    
O48   H9    0.987683 S    
C31   O42   1.382680 S    
N12   O53   1.298690 A    
C20   N1    1.444946 S    
O11   C42   1.296356 A    
O25   H4    0.989023 S    
C14   C15   1.402935 A    
N8    O40   1.300468 A    
O18   V4    2.037501 S    
C24   H1    1.077582 S    
N3    O30   1.297730 A    
C26   N3    1.422590 S    
N10   O46   1.299854 A    
C22   O25   1.382772 S    
O5    C3    1.297921 A    
C25   C26   1.368413 D    
N12   O54   1.298831 A    
O11   V4    2.013923 S    
N9    O43   1.300349 A    
O14   C42   1.299262 A    
V2    O10   2.171409 S    
O14   V3    2.023109 S    
O49   H10   0.989967 S    
C36   C37   1.414633 A    
N11   O50   1.301683 A    
O42   H7    0.987473 S    
O8    V2    2.009801 S    
C21   O24   1.382215 S    
C19   C20   1.366684 D    
V4    O20   2.171386 S    
O12   V3    2.027407 S    
C19   C21   1.496076 S    
O21   H2    0.989028 S    
O1    V2    2.037860 S    
C11   C15   1.415341 A    
O7    V1    2.167517 S    
C28   C39   1.409075 A    
C38   N7    1.444058 S    
O19   C44   1.300715 A    
N8    O41   1.301011 A    
O9    C4    1.299997 A    
C25   O28   1.370905 S    
O47   H8    0.989054 S    
C32   C34   1.425956 A    
C11   C18   1.429609 A    
V3    O20   1.715066 S    
C23   C25   1.505032 S    
C6    C16   1.414807 A    
C12   C13   1.416326 A    
C9    N11   1.439942 S    
N1    O23   1.301347 A    
N2    O27   1.299562 A    
C15   N12   1.423294 S    
C34   C38   1.418872 A    
C13   C14   1.413002 A    
C32   C33   1.418794 A    
C37   N10   1.423986 S    
C27   N5    1.437108 S    
C30   N9    1.437440 S    
O2    C1    1.299382 A    
O24   H3    0.991321 S    
O17   V3    2.167567 S    
C34   C35   1.413602 A    
C1    C26   1.492205 S    
N5    O35   1.301501 A    
C21   C22   1.353425 D    
O52   H11   0.988723 S    
O13   V3    2.020579 S    
C6    C17   1.415498 A    
N3    O29   1.300093 A    
C8    O52   1.380056 S    
O3    C4    1.290894 A    
C16   O48   1.385301 S    
C35   C36   1.409550 A    
N7    O38   1.301006 A    
O6    V2    2.013407 S    
N7    O39   1.301588 A    
O9    V2    2.037581 S    
C30   C31   1.410206 A    
C10   C12   1.431043 A    
C29   C30   1.405667 A    
O2    V1    2.023100 S    
C5    O47   1.385449 S    
C31   C32   1.416185 A    
O4    C2    1.297362 A    
C17   O21   1.385976 S    
C14   N6    1.430263 S    
C27   C35   1.419516 A    
C40   C41   1.480266 S    
O1    C2    1.291709 A    
C39   N4    1.437498 S    
C12   C16   1.415737 A    
N1    O22   1.299526 A    
C24   C42   1.474139 S    
C22   C44   1.493436 S    
O5    V1    2.020570 S    
O8    C3    1.304769 A    
N6    O37   1.300371 A    
C41   O16   1.298129 A    
O13   C44   1.299860 A    
C33   C37   1.419635 A    
O15   V3    2.032763 S    
O17   V4    1.716905 S    
C5    C13   1.419562 A    
O18   C43   1.298481 A    
C7    C8    1.417062 A    
O12   C41   1.297877 A    
O7    V2    1.718126 S    
O4    V1    2.027428 S    
C29   C40   1.413290 A    
O3    V1    2.032612 S    
C27   C39   1.407734 A    
N10   O45   1.299682 A    
O15   C43   1.298607 A    
O16   V4    2.041737 S    
O33   H6    0.987399 S    
N9    O44   1.301458 A    
C7    O49   1.383241 S    
C33   C40   1.430655 A    
C23   N2    1.441670 S    
N5    O34   1.301446 A    
C2    C28   1.465087 S    
N11   O51   1.299554 A    
C18   C43   1.481946 S    
N2    O26   1.298862 A    
C8    C9    1.405331 A    
O28   H5    0.991960 S    
N4    O32   1.301364 A    
C10   C11   1.418417 A    
V1    O10   1.715143 S    
C23   C24   1.353073 D    
C19   O55   1.376848 S    
C9    C10   1.420622 A    
C7    C18   1.405326 A    
C28   C38   1.409680 A    
C3    C20   1.492639 S    
