data_mof_unit_67017.cif
_audit_creation_date              2012-12-11T17:41:06-0500
_audit_creation_method            fapswitch 2.2
_symmetry_space_group_name_H-M    P1
_symmetry_Int_Tables_number       1
_space_group_crystal_system       triclinic
_cell_length_a                    8.172617
_cell_length_b                    12.666242
_cell_length_c                    14.199432
_cell_angle_alpha                 92.799441
_cell_angle_beta                  90.627499
_cell_angle_gamma                 98.408439
_cell_volume                      1452.0945475

loop_
_atom_site_label
_atom_site_type_symbol
_atom_type_description
_atom_site_fract_x
_atom_site_fract_y
_atom_site_fract_z
_atom_type_partial_charge
Ba1   Ba    Ba6+2 0.855630 0.555280 0.454520 1.642940
Ba2   Ba    Ba6+2 0.334200 0.444810 0.545490 1.634561
C1    C     C_3   0.595388 0.941932 0.167047 0.186703
C2    C     C_3   0.648189 0.857560 0.229090 0.614735
C3    C     C_3   0.475621 0.309119 0.257829 0.308231
C4    C     C_3   0.458106 0.286764 0.151668 -0.391657
C5    C     C_3   0.046596 0.196103 0.806364 0.353248
C6    C     C_3   0.060919 0.159550 0.906236 -0.352270
C7    C     C_3   0.542086 0.141576 0.766289 0.340503
C8    C     C_3   0.590612 0.053424 0.825049 -0.408647
C9    C     C_R   0.985641 0.442449 0.061039 -0.034823
C10   C     C_R   0.183363 0.498151 0.195654 0.035270
C11   C     C_R   0.338400 0.550470 0.225783 -0.285936
C12   C     C_3   0.143584 0.803944 0.194554 0.328265
C13   C     C_R   0.451051 0.598038 0.162185 0.021204
C14   C     C_R   0.406085 0.601078 0.067367 -0.157434
C15   C     C_R   0.248983 0.552049 0.034555 -0.001090
C16   C     C_R   0.137625 0.496585 0.097862 -0.022752
C17   C     C_R   0.052802 0.501933 0.901835 -0.024014
C18   C     C_R   0.941508 0.446384 0.965144 -0.003057
C19   C     C_R   0.007507 0.499854 0.803917 0.043056
C20   C     C_R   0.853900 0.445337 0.773476 -0.293219
C21   C     C_R   0.740404 0.398895 0.837245 0.013425
C22   C     C_R   0.784665 0.396977 0.932274 -0.148781
C23   C     C_3   0.129600 0.841519 0.095017 -0.347436
C24   C     C_R   0.204568 0.556354 0.938743 -0.034648
C25   C     C_R   0.762631 0.176788 0.538568 -0.274423
C26   C     C_R   0.429707 0.813132 0.460625 -0.251235
C27   C     C_R   0.406066 0.994915 0.427601 -0.109729
C28   C     C_R   0.341314 0.887373 0.422461 0.002617
C29   C     C_R   0.576453 0.846225 0.512154 0.065010
C30   C     C_R   0.641019 0.956915 0.522190 -0.057862
C31   C     C_R   0.555202 0.031566 0.477495 -0.062371
C32   C     C_R   0.618674 0.141405 0.485844 0.043791
C33   C     C_R   0.852445 0.104623 0.578326 -0.010250
C34   C     C_3   0.226214 0.762767 0.656296 0.281057
C35   C     C_R   0.789494 0.995634 0.573487 -0.092423
C36   C     C_3   0.244227 0.882457 0.677974 -0.355944
C37   C     C_3   0.967763 0.238112 0.345451 0.276297
C38   C     C_3   0.927504 0.118860 0.321920 -0.360268
C39   C     C_3   0.714243 0.672984 0.738075 0.303799
C40   C     C_3   0.730388 0.696574 0.844193 -0.387624
H1    H     H_    0.739177 0.896521 0.283361 0.042404
H2    H     H_    0.332627 0.904900 0.737694 0.113620
H3    H     H_    0.290895 0.926210 0.615872 0.078177
H4    H     H_    0.122473 0.905513 0.697138 0.144118
H5    H     H_    0.858011 0.268144 0.374835 0.005428
H6    H     H_    0.069618 0.251860 0.398465 0.084304
H7    H     H_    0.811325 0.102500 0.279473 0.143197
H8    H     H_    0.911129 0.074596 0.387174 0.079003
H9    H     H_    0.029573 0.090375 0.281520 0.167392
H10   H     H_    0.831737 0.650807 0.711551 0.010881
H11   H     H_    0.612569 0.605650 0.723827 0.067000
H12   H     H_    0.537547 0.000621 0.211577 0.012828
H13   H     H_    0.837767 0.759541 0.860751 0.131456
H14   H     H_    0.748727 0.623652 0.880542 0.063035
H15   H     H_    0.616142 0.724529 0.871036 0.120630
H16   H     H_    0.537045 0.820792 0.266452 -0.342210
H17   H     H_    0.502885 0.902377 0.113694 0.027496
H18   H     H_    0.356774 0.329573 0.284813 0.012800
H19   H     H_    0.575239 0.377906 0.271837 0.058779
H20   H     H_    0.354438 0.221148 0.135204 0.128531
H21   H     H_    0.432666 0.359391 0.116910 0.064041
H22   H     H_    0.574351 0.263082 0.123385 0.116630
H23   H     H_    0.208383 0.919948 0.088564 0.107791
H24   H     H_    0.127163 0.274149 0.801602 0.093491
H25   H     H_    0.916181 0.206475 0.792869 -0.070434
H26   H     H_    0.191548 0.152572 0.923578 0.151949
H27   H     H_    0.017878 0.218380 0.957217 0.070508
H28   H     H_    0.983839 0.080570 0.912974 0.123954
H29   H     H_    0.654951 0.178964 0.730839 -0.053749
H30   H     H_    0.451262 0.105850 0.710709 0.081680
H31   H     H_    0.684475 0.088090 0.879358 0.114450
H32   H     H_    0.643345 0.993890 0.779055 0.095250
H33   H     H_    0.060240 0.726947 0.199195 0.092481
H34   H     H_    0.480839 0.012961 0.861227 0.129741
H35   H     H_    0.374805 0.550133 0.299257 0.072167
H36   H     H_    0.494241 0.640561 0.019322 0.070209
H37   H     H_    0.696089 0.358174 0.980456 0.069354
H38   H     H_    0.818335 0.444360 0.699777 0.069371
H39   H     H_    0.899451 0.396895 0.106196 0.099868
H40   H     H_    0.290749 0.601975 0.893641 0.097262
H41   H     H_    0.334846 0.048767 0.394675 0.103267
H42   H     H_    0.859976 0.942926 0.608343 0.103549
H43   H     H_    0.810785 0.261164 0.543691 0.063737
H44   H     H_    0.273142 0.791126 0.207350 -0.034895
H45   H     H_    0.378584 0.729259 0.455172 0.066125
H46   H     H_    0.170600 0.782400 0.043524 0.058104
H47   H     H_    0.999438 0.850125 0.078158 0.185628
H48   H     H_    0.347284 0.740746 0.636552 0.004550
H49   H     H_    0.136439 0.742359 0.596733 0.076017
O1    O     O_2   0.887370 0.460630 0.272300 -0.464865
O2    O     O_3   0.680322 0.765018 0.695849 -0.642322
O3    O     O_3   0.097627 0.881358 0.259322 -0.593693
O4    O     O_2   0.302330 0.539400 0.727760 -0.469006
O5    O     O_3   0.060300 0.548700 0.611500 -0.496624
O6    O     O_3   0.519500 0.346920 0.670840 -0.470402
O7    O     O_3   0.172512 0.711045 0.737494 -0.638231
O8    O     O_3   0.614310 0.373510 0.452640 -0.479916
O9    O     O_3   0.100780 0.295230 0.623970 -0.486015
O10   O     O_2   0.194080 0.110809 0.568306 -0.483220
O11   O     O_3   0.096688 0.119444 0.742341 -0.599819
O12   O     O_3   0.129410 0.451380 0.388510 -0.495597
O13   O     O_3   0.575400 0.626570 0.547370 -0.491835
O14   O     O_2   0.344320 0.238700 0.455090 -0.468110
O15   O     O_3   0.515068 0.217663 0.299436 -0.649937
O16   O     O_2   0.401588 0.408396 0.835643 -0.494479
O17   O     O_3   0.467998 0.213018 0.825262 -0.592003
O18   O     O_3   0.670210 0.653170 0.329170 -0.467667
O19   O     O_2   0.789190 0.589631 0.165019 -0.498774
O20   O     O_3   0.013344 0.289123 0.262748 -0.633737
O21   O     O_3   0.723349 0.784454 0.172543 -0.595726
O22   O     O_2   0.845380 0.761330 0.544970 -0.472488
O23   O     O_3   0.088930 0.704860 0.376040 -0.490612
O24   O     O_2   0.002004 0.889445 0.434332 -0.486133
P1    P     P_3+3 0.054400 0.427280 0.286870 0.971890
P2    P     P_3+3 0.668300 0.742890 0.573060 0.970744
P3    P     P_3+3 0.132754 0.842838 0.373716 0.955102
P4    P     P_3+3 0.135310 0.572810 0.713130 0.970056
P5    P     P_3+3 0.060198 0.156049 0.627492 0.950723
P6    P     P_3+3 0.658367 0.654309 0.206335 0.973807
P7    P     P_3+3 0.527104 0.241476 0.421966 0.932853
P8    P     P_3+3 0.532169 0.344024 0.793410 0.959166
O25   O     O_3   0.732793 0.994132 0.121216 -0.722338
H50   H     H_    0.691008 0.048966 0.083646 0.301422

loop_
_geom_bond_atom_site_label_1
_geom_bond_atom_site_label_2
_ccdc_geom_bond_type
C9    C16   A    
C8    H32   S    
C39   C40   S    
O5    P4    S    
C17   C18   A    
C7    H30   S    
O16   P8    D    
Ba1   O8    S    
O7    P4    S    
C9    H39   S    
C7    O17   S    
C6    H27   S    
Ba1   O22   S    
C15   C24   A    
Ba2   O4    S    
C17   C19   A    
C27   H41   S    
O19   P6    D    
C3    C4    S    
C1    H12   S    
C13   C14   A    
C27   C31   A    
Ba1   Ba2   S    
C4    H22   S    
C25   H43   S    
C17   C24   A    
C29   P2    S    
C36   H3    S    
Ba1   O18   S    
C8    H34   S    
C39   O2    S    
C18   C22   A    
Ba2   O6    S    
C14   C15   A    
C5    O11   S    
C21   C22   A    
C35   H42   S    
O20   P1    S    
O9    P5    S    
Ba1   P1    S    
C7    C8    S    
Ba1   O12   S    
C39   H10   S    
C40   H14   S    
C37   O20   S    
C2    O21   S    
Ba2   O9    S    
C24   H40   S    
C19   C20   A    
C33   P5    S    
O2    P2    S    
C40   H15   S    
C31   C32   A    
C3    O15   S    
C25   C32   A    
C11   H35   S    
C9    C18   A    
C5    C6    S    
C23   H23   S    
C12   H44   S    
C37   C38   S    
C21   P8    S    
C28   P3    S    
C25   C33   A    
Ba2   O5    S    
C23   H46   S    
C4    H21   S    
C36   H2    S    
C27   C28   A    
C40   H13   S    
C22   H37   S    
C29   C30   A    
Ba2   O13   S    
O24   P3    D    
O15   P7    S    
C26   H45   S    
C15   C16   A    
C3    H19   S    
Ba1   P2    S    
C30   C35   A    
O1    P1    D    
Ba1   O13   S    
C39   H11   S    
O23   P3    S    
O8    P7    S    
O22   P2    D    
O6    P8    S    
C34   H49   S    
Ba2   O8    S    
C6    H26   S    
Ba1   O1    S    
C11   C13   A    
Ba1   O23   S    
O17   P8    S    
C2    H16   S    
C1    C2    S    
O11   P5    S    
C1    O25   S    
C37   H5    S    
O13   P2    S    
C34   H48   S    
C13   P6    S    
C3    H18   S    
C33   C35   A    
O10   P5    D    
C23   H47   S    
C26   C29   A    
C7    H29   S    
Ba2   P4    S    
C2    H1    S    
C38   H9    S    
Ba2   O14   S    
C6    H28   S    
O4    P4    D    
C12   H33   S    
C4    H20   S    
C34   C36   S    
O12   P1    S    
C20   H38   S    
O21   P6    S    
C19   P4    S    
C30   C31   A    
C5    H24   S    
O3    P3    S    
O18   P6    S    
Ba2   O12   S    
Ba1   O5    S    
C38   H8    S    
C26   C28   A    
C8    H31   S    
O14   P7    D    
C14   H36   S    
C12   C23   S    
C36   H4    S    
C5    H25   S    
C10   C11   A    
C32   P7    S    
C10   C16   A    
C20   C21   A    
O25   H50   S    
C34   O7    S    
C12   O3    S    
C38   H7    S    
C37   H6    S    
C10   P1    S    
C1    H17   S    
