data_mof_unit_65603.cif
_audit_creation_date              2012-12-10T20:16:44-0500
_audit_creation_method            fapswitch 2.2
_symmetry_space_group_name_H-M    P1
_symmetry_Int_Tables_number       1
_space_group_crystal_system       triclinic
_cell_length_a                    19.198371
_cell_length_b                    18.715469
_cell_length_c                    19.19287
_cell_angle_alpha                 89.967488
_cell_angle_beta                  91.853118
_cell_angle_gamma                 89.992779
_cell_volume                      6892.51549457

loop_
_atom_site_label
_atom_site_type_symbol
_atom_type_description
_atom_site_fract_x
_atom_site_fract_y
_atom_site_fract_z
_atom_type_partial_charge
C1    C     C_R   0.365709 0.500100 0.503149 0.911403
C2    C     C_R   0.634281 0.500093 0.496850 0.911695
C3    C     C_R   0.852857 0.530999 0.496806 0.062067
C4    C     C_R   0.147103 0.531094 0.502606 0.062110
C5    C     C_R   0.709990 0.502608 0.488152 -0.174463
C6    C     C_R   0.289968 0.502643 0.511718 -0.174330
C7    C     C_R   0.964695 0.544925 0.562368 -0.158925
C8    C     C_R   0.035249 0.544681 0.436938 -0.159003
C9    C     C_R   0.036944 0.545273 0.563651 -0.158895
C10   C     C_R   0.962994 0.544979 0.435653 -0.158834
C11   C     C_R   0.072247 0.542925 0.500929 0.115653
C12   C     C_R   0.927699 0.542871 0.498390 0.115677
C13   C     C_R   0.558858 0.727224 0.520422 0.092940
C14   C     C_R   0.490447 0.271906 0.438889 0.097599
C15   C     C_R   0.441162 0.727334 0.479647 0.092900
C16   C     C_R   0.509561 0.271889 0.561147 0.097432
C17   C     C_R   0.561182 0.802043 0.513520 -0.219089
C18   C     C_R   0.498308 0.197021 0.438132 -0.234812
C19   C     C_R   0.438925 0.802145 0.486593 -0.219250
C20   C     C_R   0.501866 0.196988 0.561956 -0.235000
C21   C     C_R   0.500075 0.841360 0.500054 0.111524
C22   C     C_R   0.500113 0.157760 0.500055 0.116596
C23   C     C_R   0.461392 0.961844 0.448271 -0.083051
C24   C     C_R   0.544353 0.037351 0.547261 -0.084026
C25   C     C_R   0.538824 0.961762 0.551841 -0.083021
C26   C     C_R   0.455851 0.037423 0.452875 -0.084202
C27   C     C_R   0.500107 0.076471 0.500066 -0.034655
C28   C     C_R   0.500105 0.922682 0.500053 -0.033673
C29   C     C_R   0.499701 0.500132 0.365766 0.930277
C30   C     C_R   0.500082 0.500081 0.634221 0.928931
C31   C     C_R   0.472521 0.560118 0.253856 -0.172721
C32   C     C_R   0.467871 0.443519 0.744607 -0.130061
C33   C     C_R   0.523547 0.559993 0.746842 -0.174618
C34   C     C_R   0.527810 0.443459 0.254180 -0.134315
C35   C     C_R   0.471734 0.560809 0.181676 -0.143551
C36   C     C_R   0.466102 0.444013 0.816714 -0.127097
C37   C     C_R   0.520864 0.561056 0.818871 -0.143295
C38   C     C_R   0.526112 0.443578 0.181944 -0.126518
C39   C     C_R   0.497796 0.502171 0.145489 0.068210
C40   C     C_R   0.492855 0.502690 0.854066 0.068228
C41   C     C_R   0.499727 0.500989 0.290275 -0.052286
C42   C     C_R   0.497833 0.500792 0.709593 -0.050583
C43   C     C_R   0.492561 0.502598 0.929613 0.292879
C44   C     C_R   0.495725 0.502307 0.069892 0.292847
C45   C     C_R   0.755279 0.456062 0.526217 -0.061960
C46   C     C_R   0.261416 0.559638 0.550728 -0.033832
C47   C     C_R   0.244738 0.455972 0.473780 -0.062161
C48   C     C_R   0.738450 0.559447 0.448822 -0.033539
C49   C     C_R   0.826115 0.472031 0.531499 -0.196189
C50   C     C_R   0.190339 0.573884 0.544419 -0.203072
C51   C     C_R   0.173912 0.471984 0.468250 -0.196220
C52   C     C_R   0.809541 0.573666 0.454888 -0.202614
H1    H     H_    0.451252 0.605403 0.281035 0.207731
H2    H     H_    0.444528 0.399285 0.716208 0.198538
H3    H     H_    0.546165 0.605091 0.720420 0.206205
H4    H     H_    0.552228 0.399265 0.281778 0.199384
H5    H     H_    0.449724 0.606540 0.154239 0.167737
H6    H     H_    0.443016 0.399128 0.843136 0.169706
H7    H     H_    0.541867 0.606781 0.847020 0.167980
H8    H     H_    0.547903 0.398547 0.154694 0.170313
H9    H     H_    0.861217 0.436723 0.560571 0.164768
H10   H     H_    0.168050 0.617499 0.573486 0.177818
H11   H     H_    0.138856 0.436581 0.439289 0.164924
H12   H     H_    0.831763 0.617174 0.425582 0.177639
H13   H     H_    0.937644 0.543483 0.611027 0.154550
H14   H     H_    0.062304 0.543050 0.388288 0.154507
H15   H     H_    0.065194 0.543348 0.613405 0.150837
H16   H     H_    0.934740 0.542833 0.385914 0.150882
H17   H     H_    0.610120 0.829586 0.523079 0.184911
H18   H     H_    0.497901 0.169153 0.388711 0.182285
H19   H     H_    0.390014 0.829777 0.477078 0.185251
H20   H     H_    0.502291 0.169105 0.611400 0.181899
N1    N     N_R   0.494818 0.439860 0.034232 -0.153855
N2    N     N_R   0.493455 0.565040 0.965278 -0.157294
N3    N     N_R   0.493083 0.440006 0.965103 -0.153692
N4    N     N_R   0.494725 0.564896 0.034395 -0.157227
N5    N     N_R   0.500000 0.689440 0.500000 -0.167883
N6    N     N_R   0.500000 0.310560 0.500000 -0.147928
O1    O     O_R   0.398180 0.560840 0.499980 -0.613488
O2    O     O_R   0.601820 0.439160 0.500020 -0.560153
O3    O     O_R   0.601820 0.560840 0.500020 -0.613918
O4    O     O_R   0.398180 0.439160 0.499980 -0.560366
O5    O     O_R   0.499990 0.560830 0.398130 -0.578506
O6    O     O_R   0.500010 0.439170 0.601870 -0.626295
O7    O     O_R   0.500010 0.560830 0.601870 -0.577744
O8    O     O_R   0.499990 0.439170 0.398130 -0.625555
Zn1   Zn    Zn3+2 0.500000 0.581210 0.500000 1.041420
Zn2   Zn    Zn3+2 0.500000 0.418790 0.500000 1.051985
C53   C     C_2   0.732067 0.388933 0.558599 0.984114
O9    O     O_2   0.747047 0.376772 0.619873 -0.603607
O10   O     O_R   0.698019 0.337111 0.517574 -0.742946
H21   H     H_    0.688350 0.291680 0.544378 0.376376
C54   C     C_2   0.303262 0.602447 0.602001 0.951121
O11   O     O_2   0.289591 0.665521 0.611206 -0.574166
O12   O     O_R   0.356105 0.569825 0.642263 -0.821339
H22   H     H_    0.379579 0.604144 0.676470 0.352179
C55   C     C_2   0.267969 0.388659 0.441817 0.984597
O13   O     O_2   0.252863 0.376102 0.380661 -0.603710
O14   O     O_R   0.302167 0.337111 0.483127 -0.743337
H23   H     H_    0.311915 0.291562 0.456588 0.376196
C56   C     C_2   0.696461 0.602110 0.397494 0.951585
O15   O     O_2   0.709981 0.665201 0.388136 -0.574124
O16   O     O_R   0.643636 0.569329 0.357375 -0.821398
H24   H     H_    0.620024 0.603547 0.323116 0.351911
C57   C     C_2   0.619513 0.693086 0.555444 0.947542
O17   O     O_2   0.611177 0.652657 0.604439 -0.623872
O18   O     O_R   0.686799 0.711174 0.535988 -0.776730
H25   H     H_    0.724175 0.684960 0.564442 0.348259
C58   C     C_2   0.464549 0.303730 0.372926 0.938533
O19   O     O_2   0.491534 0.287493 0.318297 -0.643196
O20   O     O_R   0.404797 0.346232 0.371795 -0.761188
H26   H     H_    0.390836 0.363030 0.323080 0.355144
C59   C     C_2   0.380412 0.693340 0.444701 0.947106
O21   O     O_2   0.388644 0.652738 0.395873 -0.625425
O22   O     O_R   0.313167 0.711804 0.463981 -0.776430
H27   H     H_    0.275724 0.685685 0.435570 0.348326
C60   C     C_2   0.535137 0.303761 0.627159 0.938899
O23   O     O_2   0.507669 0.287843 0.681638 -0.642871
O24   O     O_R   0.595059 0.346003 0.628545 -0.761281
H28   H     H_    0.608739 0.362890 0.677281 0.355133
C61   C     C_2   0.427738 0.924148 0.387940 0.946576
O25   O     O_2   0.462887 0.886578 0.350581 -0.582479
O26   O     O_R   0.355939 0.930486 0.374756 -0.767297
H29   H     H_    0.339310 0.901776 0.332646 0.362640
C62   C     C_2   0.597869 0.075156 0.591109 0.949480
O27   O     O_2   0.641039 0.112951 0.563521 -0.587591
O28   O     O_R   0.597981 0.068700 0.663704 -0.766205
H30   H     H_    0.636545 0.097520 0.687593 0.365929
C63   C     C_2   0.572491 0.923973 0.612155 0.946548
O29   O     O_2   0.537355 0.886346 0.649505 -0.582547
O30   O     O_R   0.644288 0.930300 0.625339 -0.767318
H31   H     H_    0.660927 0.901528 0.667440 0.362674
C64   C     C_2   0.402293 0.075290 0.409073 0.949504
O31   O     O_2   0.359139 0.113049 0.436704 -0.587764
O32   O     O_R   0.402128 0.068940 0.336475 -0.766047
H32   H     H_    0.363540 0.097795 0.312623 0.366025

loop_
_geom_bond_atom_site_label_1
_geom_bond_atom_site_label_2
_ccdc_geom_bond_type
C33   H3    S    
C14   C58   S    
O5    Zn1   S    
C34   H4    S    
C54   O11   D    
C14   C18   A    
C19   H19   S    
O12   H22   S    
C24   C27   A    
C25   C63   S    
O1    Zn1   S    
C55   O13   D    
C3    C49   A    
O26   H29   S    
C23   C61   S    
C15   N5    A    
C25   C28   A    
C15   C19   A    
C57   O18   S    
C26   C27   A    
C56   O15   D    
N2    N4    A    
C33   C42   A    
C32   C36   A    
C19   C21   A    
C29   O5    A    
C37   C40   A    
C36   H6    S    
C60   O24   S    
C6    C46   A    
C38   C39   A    
O8    Zn2   S    
O22   H27   S    
C23   C26   A    
C44   N4    A    
C54   O12   S    
C36   C40   A    
C3    C12   S    
C40   C43   S    
O20   H26   S    
O18   H25   S    
C15   C59   S    
C8    H14   S    
C53   O10   S    
C45   C53   S    
C43   N2    A    
C56   O16   S    
C34   C38   A    
N1    N3    A    
C34   C41   A    
C32   H2    S    
C55   O14   S    
O7    Zn1   S    
C43   N3    A    
C7    C12   A    
C5    C48   A    
C13   N5    A    
C49   H9    S    
C6    C47   A    
C4    C51   A    
C1    C6    S    
O32   H32   S    
C51   H11   S    
C24   C25   A    
C13   C57   S    
C52   H12   S    
O10   H21   S    
C47   C51   A    
C1    O4    A    
C5    C45   A    
C33   C37   A    
C4    C50   A    
C4    C11   S    
C35   C39   A    
C9    H15   S    
C7    H13   S    
O14   H23   S    
C45   C49   A    
C16   C20   A    
C29   O8    A    
O3    Zn1   S    
C23   C28   A    
C31   H1    S    
C30   O7    A    
C9    C11   A    
C61   O25   D    
C37   H7    S    
C10   C12   A    
C38   H8    S    
C21   C28   S    
C20   C22   A    
C22   C27   S    
C64   O31   D    
C50   H10   S    
C31   C35   A    
C2    C5    S    
O28   H30   S    
C53   O9    D    
C1    O1    A    
C62   O28   S    
C59   O21   D    
N6    Zn2   S    
C7    C9    A    
C17   H17   S    
C31   C41   A    
C29   C41   S    
C18   C22   A    
C30   C42   S    
O6    Zn2   S    
C3    C52   A    
C39   C44   S    
C10   H16   S    
C57   O17   D    
C46   C50   A    
C18   H18   S    
C47   C55   S    
C13   C17   A    
C35   H5    S    
C58   O20   S    
C63   O29   D    
O2    Zn2   S    
C26   C64   S    
C60   O23   D    
C62   O27   D    
C46   C54   S    
C8    C11   A    
O4    Zn2   S    
C48   C56   S    
C16   N6    A    
C14   N6    A    
C30   O6    A    
C44   N1    A    
C17   C21   A    
C61   O26   S    
C2    O2    A    
C48   C52   A    
N5    Zn1   S    
C8    C10   A    
O24   H28   S    
C58   O19   D    
O16   H24   S    
C64   O32   S    
C32   C42   A    
C20   H20   S    
C2    O3    A    
C63   O30   S    
C24   C62   S    
C16   C60   S    
O30   H31   S    
C59   O22   S    
