data_mof_unit_32127.cif
_audit_creation_date              2013-03-05T16:30:58-0500
_audit_creation_method            fapswitch 2.2
_symmetry_space_group_name_H-M    P1
_symmetry_Int_Tables_number       1
_space_group_crystal_system       triclinic
_cell_length_a                    13.007001
_cell_length_b                    10.804658
_cell_length_c                    9.56177
_cell_angle_alpha                 90.390824
_cell_angle_beta                  96.246031
_cell_angle_gamma                 90.854649
_cell_volume                      1335.60118148

loop_
_atom_site_label
_atom_site_type_symbol
_atom_site_description
_atom_site_fract_x
_atom_site_fract_y
_atom_site_fract_z
_atom_type_partial_charge
O1    O     O_R   0.500000 0.319640 0.618810 -0.589929
O2    O     O_R   0.500010 0.319680 0.381230 -0.514540
C1    C     C_R   0.505711 0.262638 0.500423 0.857950
O3    O     O_R   0.348990 0.499960 0.599490 -0.585786
O4    O     O_R   0.349000 0.500000 0.361910 -0.573072
C2    C     C_R   0.300571 0.499668 0.473665 0.836935
Cu1   Cu    Cu3+1 0.499990 0.499980 0.640670 0.966897
Cu2   Cu    Cu3+1 0.500010 0.500020 0.359330 1.016267
O5    O     O_R   0.499990 0.680320 0.618770 -0.576414
O6    O     O_R   0.500000 0.680360 0.381190 -0.587944
O7    O     O_R   0.651000 0.500000 0.638090 -0.593922
O8    O     O_R   0.651010 0.500040 0.400510 -0.572656
C3    C     C_R   0.502091 0.737557 0.500633 0.848154
C4    C     C_R   0.699538 0.498721 0.526385 0.811287
C5    C     C_R   0.812554 0.496532 0.541748 -0.048616
C6    C     C_R   0.187766 0.497940 0.458573 -0.045578
C7    C     C_R   0.023841 0.486105 0.312349 -0.185229
C8    C     C_R   0.131343 0.490071 0.325007 -0.157171
C9    C     C_R   0.135882 0.502917 0.579461 -0.222637
C10   C     C_R   0.028493 0.499802 0.567610 0.167741
C11   C     C_R   0.972055 0.490995 0.433090 0.161603
C12   C     C_R   0.864652 0.487996 0.421351 -0.216005
C13   C     C_R   0.869149 0.503649 0.675232 -0.182500
C14   C     C_R   0.976658 0.505220 0.688178 -0.180696
H1    H     H_    0.822056 0.478968 0.318175 0.157048
H2    H     H_    0.830737 0.508288 0.769607 0.151539
H3    H     H_    0.981313 0.479712 0.208514 0.142944
H4    H     H_    0.019124 0.511325 0.792072 0.144076
H5    H     H_    0.170104 0.486533 0.230464 0.175652
H6    H     H_    0.178803 0.509416 0.683108 0.164495
C15   C     C_R   0.502659 0.064612 0.623850 0.045371
C16   C     C_R   0.521024 0.129877 0.503190 -0.191085
C17   C     C_R   0.554839 0.063170 0.388481 0.344957
C18   C     C_R   0.548369 0.933400 0.388622 -0.259762
H7    H     H_    0.570005 0.881972 0.298972 0.185158
C19   C     C_R   0.513312 0.870667 0.503142 -0.131112
C20   C     C_R   0.498517 0.937949 0.623723 0.059809
C21   C     C_3   0.415149 0.934130 0.720170 0.007574
C22   C     C_3   0.420167 0.075143 0.720468 -0.430437
H8    H     H_    0.442801 0.893942 0.824077 0.160286
H9    H     H_    0.349275 0.119710 0.669615 0.212473
H10   H     H_    0.450731 0.115135 0.824505 0.216383
C23   C     C_R   0.545812 0.595061 0.081033 0.224281
N1    N     N_R   0.500660 0.500930 0.148010 -0.201903
C24   C     C_R   0.441464 0.416354 0.062809 0.256020
C25   C     C_R   0.443090 0.416059 0.914928 -0.083786
H11   H     H_    0.398163 0.347668 0.850479 0.155331
N2    N     N_R   0.500660 0.500890 0.852110 -0.202079
C26   C     C_R   0.545449 0.595260 0.933947 0.250121
C27   C     C_3   0.655559 0.637086 0.944170 -0.482919
C28   C     C_3   0.656078 0.636641 0.103033 -0.478886
H12   H     H_    0.706467 0.565916 0.905988 0.210456
H13   H     H_    0.664292 0.731224 0.900353 0.204642
H14   H     H_    0.707381 0.565311 0.153859 0.214709
H15   H     H_    0.665461 0.730519 0.151327 0.203249
I1    I     I_    0.338524 0.283135 0.135193 -0.321446
N3    N     N_R   0.595670 0.124081 0.272831 0.142654
O9    O     O_R   0.666667 0.210027 0.297147 -0.357230
O10   O     O_R   0.576264 0.079183 0.145882 -0.369620
I2    I     I_    0.269132 0.860799 0.625347 -0.353100

loop_
_geom_bond_atom_site_label_1
_geom_bond_atom_site_label_2
_geom_bond_distance
_ccdc_geom_bond_type
O4    Cu2   1.967020 S    
C27   H12   1.107717 S    
C13   C14   1.390187 A    
O6    C3    1.292334 A    
C20   C21   1.498268 S    
C7    C11   1.399572 A    
C14   H4    1.083944 S    
C6    C8    1.403417 A    
C18   C19   1.405689 A    
C9    C10   1.388948 A    
C4    C5    1.461902 S    
Cu2   O8    1.960681 S    
C23   N1    1.364680 A    
C28   H14   1.106947 S    
C16   C17   1.421115 A    
C10   C11   1.411792 A    
C5    C13   1.403346 A    
O2    C1    1.294922 A    
C23   C26   1.405906 A    
Cu1   Cu2   2.690140 S    
C22   H9    1.112399 S    
C8    H5    1.082653 S    
O1    Cu1   1.958277 S    
C24   C25   1.416442 A    
Cu1   N2    2.020768 S    
C21   H8    1.112571 S    
C23   C28   1.488944 S    
N3    O9    1.301507 A    
C1    C16   1.451166 S    
O3    Cu1   1.960681 S    
C21   I2    2.151169 S    
O3    C2    1.295807 A    
N2    C26   1.365131 A    
C15   C22   1.495190 S    
C7    C8    1.390321 A    
C22   H10   1.112341 S    
C28   H15   1.111141 S    
C6    C9    1.401572 A    
C15   C20   1.368788 A    
O4    C2    1.298118 A    
C18   H7    1.083250 S    
O7    C4    1.298607 A    
C25   N2    1.358866 A    
N3    O10   1.301587 A    
C27   H13   1.111629 S    
C2    C6    1.458460 S    
C7    H3    1.083942 S    
Cu2   N1    2.021620 S    
C17   C18   1.403402 A    
N1    C24   1.387066 A    
C3    C19   1.443200 S    
Cu2   O6    1.958275 S    
C26   C27   1.488150 S    
C13   H2    1.079214 S    
Cu1   O5    1.961151 S    
O5    C3    1.294198 A    
C25   H11   1.081580 S    
C19   C20   1.391350 A    
Cu1   O7    1.967022 S    
C17   N3    1.437119 S    
C27   C28   1.518334 S    
C11   C12   1.389144 A    
C9    H6    1.084549 S    
C10   C14   1.398730 A    
C5    C12   1.401122 A    
O2    Cu2   1.961151 S    
C15   C16   1.396943 A    
C24   I1    2.121637 S    
O8    C4    1.297088 A    
O1    C1    1.294752 A    
C12   H1    1.080691 S    
C21   C22   1.523987 S    
