data_mof_unit_68182.cif
_audit_creation_date              2013-03-05T16:02:50-0500
_audit_creation_method            fapswitch 2.2
_symmetry_space_group_name_H-M    P1
_symmetry_Int_Tables_number       1
_space_group_crystal_system       triclinic
_cell_length_a                    6.976366
_cell_length_b                    14.294941
_cell_length_c                    16.275928
_cell_angle_alpha                 89.99991
_cell_angle_beta                  90.036499
_cell_angle_gamma                 89.999606
_cell_volume                      1623.14491647

loop_
_atom_site_label
_atom_site_type_symbol
_atom_site_description
_atom_site_fract_x
_atom_site_fract_y
_atom_site_fract_z
_atom_type_partial_charge
O1    O     O_R   0.611670 0.415650 0.164070 -0.598726
O2    O     O_R   0.388330 0.915650 0.835930 -0.598696
O3    O     O_R   0.940950 0.405490 0.337780 -0.600354
O4    O     O_R   0.059050 0.905490 0.662220 -0.600350
O5    O     O_R   0.111350 0.584350 0.338470 -0.558771
O6    O     O_R   0.888650 0.084350 0.661530 -0.558781
C1    C     C_R   0.771456 0.382052 0.365780 1.068218
C2    C     C_R   0.228545 0.882051 0.634221 1.068204
O7    O     O_R   0.941380 0.404630 0.164680 -0.589794
O8    O     O_R   0.058620 0.904630 0.835320 -0.589827
O9    O     O_R   0.111780 0.583470 0.164130 -0.568947
O10   O     O_R   0.888220 0.083470 0.835870 -0.568961
C3    C     C_R   0.771817 0.379189 0.138923 0.871228
C4    C     C_R   0.228183 0.879188 0.861075 0.871216
O11   O     O_R   0.611240 0.416530 0.338400 -0.528876
O12   O     O_R   0.388760 0.916530 0.661600 -0.528879
O13   O     O_3   0.778020 0.558680 0.251290 -0.222421
O14   O     O_3   0.221980 0.058680 0.748710 -0.222425
V1    V     V_3+5 0.052840 0.489110 0.251260 1.326863
V2    V     V_3+5 0.947160 0.989110 0.748740 1.326835
O15   O     O_R   0.441500 0.594510 0.164760 -0.585916
O16   O     O_R   0.558500 0.094510 0.835240 -0.585903
C5    C     C_R   0.272019 0.617348 0.136689 1.018973
C6    C     C_R   0.727980 0.117351 0.863308 1.019001
O17   O     O_R   0.441080 0.595370 0.337860 -0.549682
O18   O     O_R   0.558920 0.095370 0.662140 -0.549676
C7    C     C_R   0.273367 0.617844 0.367177 1.222533
C8    C     C_R   0.726632 0.117842 0.632822 1.222538
V3    V     V_3+5 0.552850 0.510890 0.251270 1.358406
V4    V     V_3+5 0.447150 0.010890 0.748730 1.358423
O19   O     O_3   0.277800 0.441320 0.251250 -0.264453
O20   O     O_3   0.722200 0.941320 0.748750 -0.264460
C9    C     C_3   0.116571 0.657424 0.505301 -0.359051
C10   C     C_3   0.883448 0.157428 0.494703 -0.359029
H1    H     H_    0.979164 0.642812 0.475132 0.266034
H2    H     H_    0.020847 0.142804 0.524875 0.266019
H3    H     H_    0.154882 0.591062 0.536065 0.274216
H4    H     H_    0.845131 0.091073 0.463929 0.274244
C11   C     C_3   0.086962 0.733918 0.571831 -0.306210
C12   C     C_3   0.913082 0.233934 0.428185 -0.306129
H5    H     H_    0.089103 0.702034 0.634055 0.242324
H6    H     H_    0.911015 0.202063 0.365957 0.242368
H7    H     H_    0.942807 0.765756 0.563851 0.275406
H8    H     H_    0.057215 0.265785 0.436193 0.275409
H9    H     H_    0.076719 0.899797 0.481086 0.243433
H10   H     H_    0.923210 0.399817 0.518927 0.243423
C13   C     C_3   0.208987 0.787043 0.408951 1.422706
C14   C     C_3   0.790989 0.287042 0.591051 1.422697
C15   C     C_3   0.470542 0.695662 0.486624 0.200618
C16   C     C_3   0.529468 0.195653 0.513368 0.200600
C17   C     C_3   0.269385 0.687506 0.439903 -0.639557
C18   C     C_3   0.730617 0.187504 0.560096 -0.639571
C19   C     C_3   0.243349 0.810546 0.564483 -0.455328
C20   C     C_3   0.756656 0.310546 0.435518 -0.455378
C21   C     C_3   0.212687 0.858994 0.480371 -0.597101
C22   C     C_3   0.787266 0.358996 0.519633 -0.597104
C23   C     C_3   0.443239 0.759853 0.565167 1.217470
C24   C     C_3   0.556788 0.259832 0.434819 1.217502
H11   H     H_    0.328472 0.909551 0.469344 0.287482
H12   H     H_    0.671450 0.409536 0.530655 0.287498
C25   C     C_R   0.205465 0.942333 0.028349 -0.289456
C26   C     C_R   0.794520 0.442335 0.971648 -0.289510
C27   C     C_R   0.183443 0.976782 0.108318 0.224533
C28   C     C_R   0.816597 0.476783 0.891682 0.224632
C29   C     C_R   0.164927 0.913078 0.172904 -0.177148
C30   C     C_R   0.835146 0.413077 0.827098 -0.177280
C31   C     C_R   0.179795 0.817086 0.158970 0.796727
C32   C     C_R   0.820247 0.317086 0.841031 0.796784
C33   C     C_R   0.220343 0.781449 0.079815 -0.093193
C34   C     C_R   0.779656 0.281452 0.920183 -0.093199
C35   C     C_R   0.221429 0.845177 0.012522 0.071903
C36   C     C_R   0.778553 0.345180 0.987475 0.071794
C37   C     C_R   0.258359 0.684703 0.066412 -0.186371
C38   C     C_R   0.741639 0.184706 0.933585 -0.186390
C39   C     C_R   0.278385 0.651337 0.984707 0.118664
C40   C     C_R   0.721627 0.151338 0.015290 0.118660
C41   C     C_R   0.267211 0.714262 0.917101 0.114053
C42   C     C_R   0.732816 0.214262 0.082897 0.114029
C43   C     C_R   0.239394 0.811632 0.930942 -0.125740
C44   C     C_R   0.760604 0.311634 0.069056 -0.125739
C45   C     C_R   0.302872 0.554750 0.969226 -0.314695
C46   C     C_R   0.697158 0.054750 0.030770 -0.314707
C47   C     C_R   0.314468 0.518652 0.889260 0.193006
C48   C     C_R   0.685615 0.018652 0.110737 0.193042
C49   C     C_R   0.308563 0.581758 0.822591 0.325435
C50   C     C_R   0.691526 0.081754 0.177406 0.325449
C51   C     C_R   0.284018 0.677841 0.836761 -0.213199
C52   C     C_R   0.716054 0.177838 0.163238 -0.213197
H13   H     H_    0.213180 0.992460 0.978715 0.175966
H14   H     H_    0.786784 0.492462 0.021282 0.175967
H15   H     H_    0.137941 0.937540 0.234755 0.260894
H16   H     H_    0.862163 0.437538 0.765250 0.260870
H17   H     H_    0.308559 0.505763 0.019746 0.167640
H18   H     H_    0.691491 0.005759 0.980252 0.167641
H19   H     H_    0.277452 0.723696 0.783909 0.144940
H20   H     H_    0.722624 0.223691 0.216090 0.144965
F1    F     F_    0.592696 0.823437 0.571018 -0.661163
F2    F     F_    0.407301 0.323397 0.428943 -0.661191
F3    F     F_    0.328130 0.817444 0.346547 -0.628048
F4    F     F_    0.671840 0.317434 0.653458 -0.627993
N1    N     N_R   0.326117 0.549636 0.739821 0.291575
O21   O     O_R   0.491403 0.521688 0.712228 -0.209443
O22   O     O_R   0.173746 0.539287 0.694731 -0.323798
N2    N     N_R   0.673937 0.049623 0.260172 0.291663
O23   O     O_R   0.508739 0.021459 0.287690 -0.209641
O24   O     O_R   0.826264 0.039422 0.305314 -0.323789
N3    N     N_R   0.178236 0.076063 0.123617 0.237572
O25   O     O_R   0.195262 0.135474 0.063450 -0.393286
O26   O     O_R   0.164746 0.108063 0.198249 -0.339475
N4    N     N_R   0.821824 0.576063 0.876383 0.237575
O27   O     O_R   0.804758 0.635475 0.936547 -0.393322
O28   O     O_R   0.835376 0.608063 0.801753 -0.339493
F5    F     F_    0.144697 0.759450 0.222949 -0.641172
F6    F     F_    0.855357 0.259449 0.777053 -0.641194
N5    N     N_R   0.325548 0.418297 0.877653 0.223116
O29   O     O_R   0.330666 0.362558 0.940873 -0.402092
O30   O     O_R   0.316242 0.380813 0.804937 -0.275227
N6    N     N_R   0.674595 0.918299 0.122352 0.223173
O31   O     O_R   0.668680 0.862575 0.059136 -0.402183
O32   O     O_R   0.685053 0.880803 0.195033 -0.275275
F7    F     F_    0.026047 0.784481 0.376813 -0.585497
F8    F     F_    0.973934 0.284488 0.623186 -0.585530
N7    N     N_R   0.617977 0.735993 0.430990 0.256002
O33   O     O_R   0.726249 0.681273 0.387392 -0.292818
O34   O     O_R   0.641572 0.825894 0.422593 -0.212177
N8    N     N_R   0.382023 0.235994 0.568992 0.255990
O35   O     O_R   0.273765 0.181282 0.612605 -0.292813
O36   O     O_R   0.358415 0.325896 0.577371 -0.212275
N9    N     N_R   0.539848 0.602973 0.514555 0.265806
O37   O     O_R   0.448877 0.526067 0.497167 -0.377057
O38   O     O_R   0.696695 0.597203 0.557560 -0.331299
N10   N     N_R   0.460164 0.102962 0.485443 0.265791
O39   O     O_R   0.551144 0.026057 0.502830 -0.377000
O40   O     O_R   0.303328 0.097190 0.442430 -0.331311
F9    F     F_    0.452058 0.706754 0.636436 -0.666001
F10   F     F_    0.548036 0.206717 0.363558 -0.666002

loop_
_geom_bond_atom_site_label_1
_geom_bond_atom_site_label_2
_geom_bond_distance
_ccdc_geom_bond_type
C30   C32   1.394688 A    
C27   C29   1.396837 A    
N8    O35   1.298707 A    
C46   H18   1.080749 S    
C21   H11   1.098715 S    
N3    O26   1.301447 A    
C24   F2    1.386450 S    
O4    C2    1.311042 A    
V1    O19   1.711641 S    
C15   C17   1.599957 S    
N2    O24   1.299768 A    
C13   F3    1.382901 S    
N7    O33   1.298707 A    
C11   H5    1.110687 S    
O18   C8    1.304055 A    
O9    V1    2.000087 S    
C9    C11   1.552790 S    
C38   C40   1.419741 A    
C10   C12   1.552799 S    
C48   C50   1.411656 A    
O3    C1    1.311041 A    
C14   F8    1.379476 S    
C50   C52   1.403221 A    
C13   F7    1.379467 S    
O12   V4    1.998934 S    
N5    O29   1.301872 A    
C15   N7    1.487094 S    
C36   C44   1.417354 A    
C15   C23   1.585178 S    
C29   H15   1.082296 S    
C33   C35   1.424627 A    
O7    C3    1.306408 A    
N6    O31   1.301848 A    
C26   C28   1.400161 A    
O13   V1    2.159823 S    
N4    O27   1.301728 A    
O7    V1    2.011816 S    
O6    C8    1.313178 A    
C25   H13   1.081220 S    
N10   O39   1.300486 A    
C29   C31   1.394687 A    
C51   H19   1.082447 S    
C34   C38   1.424995 A    
C16   C18   1.599956 S    
N3    O25   1.301728 A    
C33   C37   1.424995 A    
C16   N8    1.487098 S    
O8    V2    2.011807 S    
O14   V2    2.159834 S    
C25   C35   1.416917 A    
C12   H6    1.110671 S    
C3    C44   1.493899 S    
C50   N2    1.428608 S    
C2    O12   1.300065 A    
O5    C7    1.313184 A    
C37   C39   1.419744 A    
C5    C37   1.498113 S    
V2    O20   1.711649 S    
C35   C43   1.417351 A    
N2    O23   1.300597 A    
C45   C47   1.402468 A    
C7    C17   1.547118 S    
O11   V3    1.998927 S    
N4    O28   1.301447 A    
C19   C21   1.548933 S    
O17   V3    2.013455 S    
C14   F4    1.382910 S    
C20   C22   1.548940 S    
C49   C51   1.403225 A    
C16   C24   1.585170 S    
N1    O21   1.300607 A    
C47   N5    1.449026 S    
O8    C4    1.306402 A    
C40   C46   1.413885 A    
C19   C23   1.571577 S    
C39   C45   1.413882 A    
C13   C17   1.567034 S    
C1    O11   1.300070 A    
N5    O30   1.300766 A    
C11   H7    1.111406 S    
C15   N9    1.481791 S    
C9    H3    1.105401 S    
C22   H12   1.098700 S    
C52   H20   1.082438 S    
C31   C33   1.414126 A    
C28   C30   1.396842 A    
C45   H17   1.080743 S    
C28   N4    1.441345 S    
C14   C18   1.567034 S    
C23   F1    1.386453 S    
O10   V2    2.000085 S    
O1    V3    2.009222 S    
C41   C43   1.423323 A    
C26   C36   1.416909 A    
C4    C43   1.493887 S    
O3    V1    2.005635 S    
C39   C41   1.423325 A    
H9    C21   1.113606 S    
C16   N10   1.481794 S    
O14   V4    1.712984 S    
N10   O40   1.301191 A    
C47   C49   1.411687 A    
O18   V4    2.013458 S    
C12   C20   1.550698 S    
O15   C5    1.308665 A    
O16   C6    1.308663 A    
O17   C7    1.304055 A    
C27   N3    1.441345 S    
C49   N1    1.428609 S    
C13   C21   1.552348 S    
N9    O37   1.300485 A    
C20   C24   1.571589 S    
C42   C52   1.412394 A    
C14   C22   1.552354 S    
N8    O36   1.302822 A    
O16   V4    2.003364 S    
C10   H4    1.105396 S    
C10   C18   1.567126 S    
C25   C27   1.400161 A    
C40   C42   1.423333 A    
C2    C19   1.530998 S    
C30   H16   1.082289 S    
O5    V1    2.008533 S    
C9    C17   1.567124 S    
O6    V2    2.008527 S    
O10   C6    1.297813 A    
C46   C48   1.402458 A    
N1    O22   1.299780 A    
O2    V4    2.009226 S    
C24   F10   1.387581 S    
C31   F5    1.350349 S    
V3    O19   2.161258 S    
O13   V3    1.712992 S    
V4    O20   2.161247 S    
C8    C18   1.547104 S    
C6    C38   1.498108 S    
C11   C19   1.550699 S    
O15   V3    2.003353 S    
C26   H14   1.081223 S    
O9    C5    1.297815 A    
C9    H1    1.096842 S    
C10   H2    1.096844 S    
C42   C44   1.423320 A    
O2    C4    1.299227 A    
N6    O32   1.300721 A    
N7    O34   1.302823 A    
O4    V2    2.005631 S    
C12   H8    1.111400 S    
O1    C3    1.299225 A    
C41   C51   1.412387 A    
C48   N6    1.448987 S    
H10   C22   1.113606 S    
C32   C34   1.414133 A    
C23   F9    1.387571 S    
C34   C36   1.424627 A    
C1    C20   1.531004 S    
C32   F6    1.350354 S    
N9    O38   1.301189 A    
