data_mof_unit_49693.cif
_audit_creation_date              2012-12-10T18:38:36-0500
_audit_creation_method            fapswitch 2.2
_symmetry_space_group_name_H-M    P1
_symmetry_Int_Tables_number       1
_space_group_crystal_system       triclinic
_cell_length_a                    15.837184
_cell_length_b                    15.086762
_cell_length_c                    14.04461
_cell_angle_alpha                 89.967701
_cell_angle_beta                  90.564963
_cell_angle_gamma                 92.340624
_cell_volume                      3352.74156881

loop_
_atom_site_label
_atom_site_type_symbol
_atom_type_description
_atom_site_fract_x
_atom_site_fract_y
_atom_site_fract_z
_atom_type_partial_charge
C1    C     C_R   0.500092 0.330273 0.499699 0.795715
C2    C     C_R   0.497381 0.669950 0.499612 0.800759
C3    C     C_R   0.441527 0.186671 0.557388 -0.237347
C4    C     C_R   0.457974 0.807573 0.415406 -0.232899
C5    C     C_R   0.496997 0.233780 0.497763 -0.021116
C6    C     C_R   0.490475 0.766609 0.496989 -0.033136
C7    C     C_R   0.545780 0.188587 0.432750 -0.208850
C8    C     C_R   0.516817 0.818726 0.574640 -0.190682
C9    C     C_R   0.539693 0.096502 0.428636 -0.178066
C10   C     C_R   0.514640 0.910318 0.570079 -0.163392
C11   C     C_R   0.483403 0.048791 0.487865 0.057281
C12   C     C_R   0.484716 0.951668 0.487969 0.052936
C13   C     C_R   0.552052 0.559126 0.107736 -0.311267
C14   C     C_R   0.431729 0.466529 0.893840 -0.311686
C15   C     C_R   0.552615 0.558159 0.208236 0.170092
C16   C     C_R   0.431852 0.465586 0.793222 0.170669
C17   C     C_R   0.448959 0.440212 0.207465 0.168969
C18   C     C_R   0.568782 0.533590 0.793876 0.167053
C19   C     C_R   0.450441 0.438104 0.106994 -0.315771
C20   C     C_R   0.570963 0.530279 0.894527 -0.312371
C21   C     C_R   0.501410 0.498414 0.054870 0.121053
C22   C     C_R   0.501673 0.497950 0.946742 0.117174
C23   C     C_R   0.340130 0.499649 0.499341 0.827687
C24   C     C_R   0.660022 0.500285 0.500388 0.831946
C25   C     C_3   0.974671 0.468599 0.583795 -0.483752
C26   C     C_3   0.026735 0.534673 0.410570 -0.468268
C27   C     C_3   0.024677 0.418701 0.507859 0.460574
C28   C     C_3   0.976523 0.584479 0.486472 0.464086
C29   C     C_1   0.250598 0.499813 0.496860 -0.156736
C30   C     C_1   0.749893 0.500814 0.501140 -0.159990
C31   C     C_3   0.033548 0.551617 0.567047 0.456193
C32   C     C_3   0.967954 0.451594 0.427057 0.462355
C33   C     C_3   0.083593 0.500965 0.492756 -0.066751
C34   C     C_3   0.917467 0.501969 0.501373 -0.066019
C35   C     C_1   0.175132 0.500129 0.493896 0.060799
C36   C     C_1   0.825599 0.501522 0.501608 0.055780
C37   C     C_R   0.434187 0.094311 0.554035 0.021240
C38   C     C_R   0.456004 0.899949 0.409412 0.007729
Cu1   Cu    Cu3+1 0.500000 0.499990 0.596430 0.955241
Cu2   Cu    Cu3+1 0.500000 0.500010 0.403570 0.950916
H1    H     H_    0.411812 0.387821 0.070300 0.135137
H2    H     H_    0.627382 0.555173 0.931453 0.136536
H3    H     H_    0.952113 0.442440 0.653305 0.156429
H4    H     H_    0.049681 0.560860 0.341226 0.161965
H5    H     H_    0.401798 0.222027 0.604341 0.145109
H6    H     H_    0.433708 0.767698 0.356368 0.148023
H7    H     H_    0.589225 0.224522 0.386149 0.140602
H8    H     H_    0.540058 0.789251 0.638506 0.142399
H9    H     H_    0.580753 0.062355 0.381128 0.131162
H10   H     H_    0.536619 0.949342 0.630872 0.137205
H11   H     H_    0.591918 0.608174 0.071609 0.136319
H12   H     H_    0.375402 0.442442 0.930322 0.137299
N1    N     N_R   0.500000 0.500020 0.258690 -0.203061
N2    N     N_R   0.500000 0.499980 0.741310 -0.202591
O1    O     O_R   0.500010 0.371450 0.581430 -0.586367
O2    O     O_R   0.499990 0.628550 0.418570 -0.583597
O3    O     O_R   0.500010 0.371460 0.418560 -0.579527
O4    O     O_R   0.499990 0.628540 0.581440 -0.583043
O5    O     O_R   0.379080 0.499990 0.581420 -0.570898
O6    O     O_R   0.620920 0.500010 0.418580 -0.578097
O7    O     O_R   0.379080 0.500000 0.418550 -0.586376
O8    O     O_R   0.620920 0.500000 0.581450 -0.574954
O9    O     O_3   0.056968 0.333187 0.515194 -0.588221
C39   C     C_3   0.992007 0.272558 0.543310 -0.352174
H13   H     H_    0.936316 0.273851 0.494493 0.198682
H14   H     H_    0.972906 0.285257 0.617846 0.157999
H15   H     H_    0.016377 0.204723 0.540807 0.181022
O10   O     O_3   0.944070 0.669960 0.479546 -0.588159
C40   C     C_3   0.008820 0.730822 0.451429 -0.343492
H16   H     H_    0.028044 0.718162 0.376928 0.161471
H17   H     H_    0.064464 0.729825 0.500329 0.197031
H18   H     H_    0.984191 0.798549 0.453855 0.176566
C41   C     C_R   0.391393 0.374254 0.253464 0.159882
C42   C     C_R   0.307769 0.395130 0.273212 -0.138125
C43   C     C_R   0.251736 0.330978 0.311782 -0.150056
C44   C     C_R   0.277743 0.244662 0.327129 -0.118200
C45   C     C_R   0.359326 0.222049 0.302342 -0.134641
C46   C     C_R   0.415564 0.286172 0.264085 -0.138520
H19   H     H_    0.286384 0.461345 0.259929 0.125189
H20   H     H_    0.188118 0.348176 0.329426 0.142706
H21   H     H_    0.234395 0.195058 0.357066 0.134595
H22   H     H_    0.379065 0.154915 0.312907 0.168437
H23   H     H_    0.478336 0.267649 0.244125 0.124243
C47   C     C_R   0.640178 0.583430 0.751146 0.173738
C48   C     C_R   0.718890 0.544899 0.742011 -0.151292
C49   C     C_R   0.788460 0.595909 0.709682 -0.149147
C50   C     C_R   0.780381 0.685816 0.688700 -0.093139
C51   C     C_R   0.703528 0.725510 0.703689 -0.166916
C52   C     C_R   0.634239 0.674651 0.736973 -0.140328
H24   H     H_    0.725874 0.475448 0.758620 0.118699
H25   H     H_    0.848241 0.565346 0.700411 0.129873
H26   H     H_    0.833822 0.725279 0.662712 0.138427
H27   H     H_    0.698134 0.795868 0.691270 0.127213
H28   H     H_    0.576494 0.706071 0.755318 0.114613
O11   O     O_3   0.926367 0.398852 0.356600 -0.576469
C53   C     C_3   0.986372 0.366233 0.293648 -0.324902
H29   H     H_    0.031418 0.323380 0.331120 0.189420
H30   H     H_    0.020852 0.421051 0.255614 0.155319
H31   H     H_    0.952633 0.324687 0.239118 0.181351
O12   O     O_3   0.077970 0.604806 0.635044 -0.586182
C54   C     C_3   0.021870 0.633386 0.704339 -0.350971
H32   H     H_    0.995777 0.576494 0.746586 0.154064
H33   H     H_    0.970751 0.671730 0.671745 0.188910
H34   H     H_    0.057326 0.678354 0.754319 0.184947
C55   C     C_R   0.376250 0.047751 0.621708 0.102459
C56   C     C_R   0.311828 0.988511 0.588756 -0.126090
C57   C     C_R   0.257567 0.944939 0.653040 -0.135174
C58   C     C_R   0.266817 0.960676 0.750696 -0.108502
C59   C     C_R   0.330235 0.020161 0.784160 -0.138950
C60   C     C_R   0.384710 0.063683 0.720042 -0.183282
H35   H     H_    0.303184 0.976785 0.513474 0.114166
H36   H     H_    0.208142 0.899223 0.627100 0.125676
H37   H     H_    0.224712 0.926980 0.800394 0.119263
H38   H     H_    0.337247 0.032498 0.859800 0.122069
H39   H     H_    0.433799 0.109340 0.747024 0.123614
C61   C     C_R   0.422759 0.940039 0.321383 0.106621
C62   C     C_R   0.335382 0.947310 0.307889 -0.166266
C63   C     C_R   0.304115 0.985157 0.224436 -0.148140
C64   C     C_R   0.359753 0.014781 0.153494 -0.114482
C65   C     C_R   0.446676 0.005696 0.165485 -0.140599
C66   C     C_R   0.478119 0.967737 0.248770 -0.158213
H40   H     H_    0.291447 0.923068 0.361266 0.113920
H41   H     H_    0.236734 0.991271 0.214643 0.123737
H42   H     H_    0.335486 0.044140 0.088976 0.118041
H43   H     H_    0.489670 0.027761 0.110092 0.123363
H44   H     H_    0.545460 0.959881 0.256550 0.107559
C67   C     C_R   0.614357 0.620216 0.254854 0.157177
C68   C     C_R   0.595506 0.709594 0.266550 -0.135554
C69   C     C_R   0.655882 0.769917 0.305229 -0.153364
C70   C     C_R   0.736744 0.742249 0.328204 -0.112101
C71   C     C_R   0.757831 0.654791 0.310488 -0.130063
C72   C     C_R   0.697355 0.594366 0.272231 -0.140557
H45   H     H_    0.534203 0.732305 0.245404 0.120953
H46   H     H_    0.640267 0.838248 0.316515 0.130099
H47   H     H_    0.783515 0.788939 0.357995 0.140009
H48   H     H_    0.821090 0.633886 0.325950 0.175052
H49   H     H_    0.714784 0.527094 0.257417 0.142039
C73   C     C_R   0.354952 0.424100 0.750410 0.169572
C74   C     C_R   0.280306 0.471501 0.746294 -0.142056
C75   C     C_R   0.203428 0.428173 0.721729 -0.131526
C76   C     C_R   0.200160 0.337210 0.702968 -0.088882
C77   C     C_R   0.273450 0.289166 0.710415 -0.175742
C78   C     C_R   0.350407 0.332278 0.735430 -0.162006
H50   H     H_    0.281687 0.541576 0.763275 0.135334
H51   H     H_    0.146173 0.464740 0.718638 0.177538
H52   H     H_    0.140533 0.303564 0.684943 0.163263
H53   H     H_    0.270150 0.218176 0.698988 0.148044
H54   H     H_    0.405937 0.293913 0.746784 0.120695

loop_
_geom_bond_atom_site_label_1
_geom_bond_atom_site_label_2
_ccdc_geom_bond_type
C25   C31   S    
C55   C60   A    
C26   C32   S    
C54   H32   S    
Cu2   O6    S    
C17   N1    A    
C62   C63   A    
C57   H36   S    
O11   C53   S    
C62   H40   S    
C68   C69   A    
C25   H3    S    
C26   H4    S    
C4    H6    S    
C45   C46   A    
C27   C33   S    
C23   O5    A    
C1    C5    S    
C15   N1    A    
C28   O10   S    
C49   H25   S    
Cu1   N2    S    
C56   C57   A    
C53   H31   S    
C58   C59   A    
C40   H17   S    
C41   C42   A    
C52   H28   S    
C11   C37   A    
C63   C64   A    
C17   C19   A    
C13   H11   S    
C76   C77   A    
C46   H23   S    
Cu1   O1    S    
C70   H47   S    
O10   C40   S    
Cu2   O2    S    
C53   H30   S    
C18   C47   S    
C57   C58   A    
C31   C33   S    
C43   H20   S    
C34   C36   S    
C24   O6    A    
C25   C34   S    
C28   C34   S    
C54   H33   S    
C64   H42   S    
C21   C22   S    
C17   C41   S    
C2    C6    S    
C24   C30   S    
C56   H35   S    
C78   H54   S    
C48   H24   S    
C14   H12   S    
C42   C43   A    
C39   H15   S    
C9    H9    S    
C47   C48   A    
C4    C6    A    
C71   H48   S    
C61   C66   A    
Cu1   Cu2   S    
C5    C7    A    
C49   C50   A    
C6    C8    A    
C72   H49   S    
C48   C49   A    
Cu1   O4    S    
C3    H5    S    
Cu2   O7    S    
C69   H46   S    
C39   H14   S    
C58   H37   S    
C75   H51   S    
C40   H18   S    
C43   C44   A    
C8    H8    S    
C37   C55   S    
C1    O3    A    
C38   C61   S    
C74   H50   S    
C26   C33   S    
C41   C46   A    
Cu1   O5    S    
C53   H29   S    
C13   C21   A    
C31   O12   S    
C75   C76   A    
C64   C65   A    
C9    C11   A    
C10   C12   A    
C59   H38   S    
C76   H52   S    
C4    C38   A    
C54   H34   S    
C42   H19   S    
C13   C15   A    
C14   C16   A    
C47   C52   A    
C67   C68   A    
C10   H10   S    
C23   C29   S    
C65   C66   A    
C69   C70   A    
C7    C9    A    
Cu1   O8    S    
C51   H27   S    
C24   O8    A    
Cu2   O3    S    
C19   C21   A    
C27   C32   S    
C65   H43   S    
C77   H53   S    
C28   C31   S    
C16   C73   S    
C20   C22   A    
C3    C5    A    
C44   H21   S    
C20   H2    S    
C74   C75   A    
C2    O4    A    
C25   C27   S    
C7    H7    S    
C55   C56   A    
C29   C35   T    
C26   C28   S    
C30   C36   T    
C73   C78   A    
C39   H13   S    
C14   C22   A    
C70   C71   A    
C1    O1    A    
C66   H44   S    
C2    O2    A    
C68   H45   S    
C44   C45   A    
C45   H22   S    
O12   C54   S    
C33   C35   S    
C61   C62   A    
C18   C20   A    
C63   H41   S    
C12   C38   A    
C40   H16   S    
C16   N2    A    
C73   C74   A    
C18   N2    A    
O9    C39   S    
C19   H1    S    
C23   O7    A    
C32   O11   S    
C51   C52   A    
C3    C37   A    
C50   C51   A    
C8    C10   A    
Cu2   N1    S    
C59   C60   A    
C77   C78   A    
C27   O9    S    
C15   C67   S    
C50   H26   S    
C60   H39   S    
C71   C72   A    
C11   C12   S    
C32   C34   S    
C67   C72   A    
