data_mof_unit_52503.cif
_audit_creation_date              2012-12-10T17:33:57-0500
_audit_creation_method            fapswitch 2.2
_symmetry_space_group_name_H-M    P1
_symmetry_Int_Tables_number       1
_space_group_crystal_system       triclinic
_cell_length_a                    10.635876
_cell_length_b                    12.036144
_cell_length_c                    12.817055
_cell_angle_alpha                 93.375124
_cell_angle_beta                  90.333788
_cell_angle_gamma                 85.513344
_cell_volume                      1632.90798346

loop_
_atom_site_label
_atom_site_type_symbol
_atom_type_description
_atom_site_fract_x
_atom_site_fract_y
_atom_site_fract_z
_atom_type_partial_charge
C1    C     C_R   0.496879 0.522989 0.700639 0.935446
C2    C     C_R   0.565547 0.482670 0.980145 0.168497
C3    C     C_R   0.450183 0.529933 0.024394 0.103402
C4    C     C_R   0.741867 0.498537 0.492527 0.844570
C5    C     C_R   0.426573 0.521120 0.129227 -0.246476
C6    C     C_R   0.626711 0.412498 0.147281 -0.218408
C7    C     C_R   0.652911 0.422813 0.042831 -0.174929
C8    C     C_R   0.372480 0.956750 0.409508 -0.304584
C9    C     C_R   0.386400 0.840111 0.417552 0.040872
C10   C     C_R   0.554934 0.856772 0.537187 -0.009206
C11   C     C_R   0.544262 0.973819 0.531311 0.052677
C12   C     C_3   0.121482 0.498558 0.487906 0.128727
C13   C     C_R   0.452193 0.025241 0.467012 0.092053
C14   C     C_R   0.443271 0.143533 0.462338 -0.088602
C15   C     C_R   0.613205 0.155810 0.581615 0.328880
C16   C     C_R   0.502281 0.477846 0.300041 0.844899
C17   C     C_R   0.624139 0.039989 0.588427 -0.330712
C18   C     C_R   0.258008 0.499314 0.493509 0.845244
C19   C     C_3   0.939008 0.378784 0.453173 -0.379467
C20   C     C_3   0.082546 0.378691 0.458336 -0.394616
C21   C     C_3   0.920780 0.583280 0.408215 0.045507
C22   C     C_3   0.925604 0.529854 0.597437 -0.482303
C23   C     C_3   0.066499 0.577159 0.404487 -0.413110
C24   C     C_3   0.878493 0.497322 0.486221 0.164308
C25   C     C_3   0.723379 0.481979 0.833670 -0.885049
C26   C     C_3   0.865390 0.568961 0.297175 -0.942136
C27   C     C_3   0.067518 0.539752 0.595884 -0.382191
C28   C     C_R   0.515348 0.464266 0.189822 -0.019712
C29   C     C_R   0.490923 0.541248 0.812811 -0.109143
C30   C     C_R   0.362782 0.591074 0.965113 -0.233256
C31   C     C_R   0.382619 0.597406 0.859336 0.104453
C32   C     C_R   0.589945 0.497150 0.874842 0.101305
H1    H     H_    0.908529 0.351454 0.373333 0.168537
H2    H     H_    0.909581 0.315950 0.506175 0.213922
H3    H     H_    0.300174 0.992749 0.359018 0.144752
H4    H     H_    0.695886 0.001666 0.638165 0.173614
H5    H     H_    0.324461 0.787724 0.373393 0.123147
H6    H     H_    0.625378 0.816960 0.587012 0.126308
H7    H     H_    0.118473 0.320010 0.517685 0.200855
H8    H     H_    0.123726 0.347529 0.381434 0.162610
H9    H     H_    0.103228 0.545936 0.326070 0.170306
H10   H     H_    0.877136 0.610355 0.628452 0.179499
H11   H     H_    0.905473 0.464434 0.651359 0.211153
H12   H     H_    0.085118 0.628958 0.611147 0.213855
H13   H     H_    0.113441 0.490943 0.658835 0.193881
H14   H     H_    0.728944 0.501775 0.750766 0.235918
H15   H     H_    0.782402 0.539747 0.879103 0.240325
H16   H     H_    0.764302 0.395887 0.842322 0.265744
H17   H     H_    0.898914 0.487579 0.257849 0.243256
H18   H     H_    0.760880 0.575729 0.299017 0.257085
H19   H     H_    0.895005 0.636152 0.249091 0.253157
H20   H     H_    0.887223 0.668794 0.439434 0.171840
H21   H     H_    0.097593 0.662905 0.419155 0.165752
H22   H     H_    0.341440 0.561940 0.165006 0.126422
H23   H     H_    0.696392 0.370206 0.196239 0.144289
H24   H     H_    0.278225 0.632747 0.000705 0.170879
H25   H     H_    0.741645 0.384413 0.012841 0.157520
H26   H     H_    0.372965 0.184034 0.412901 0.133750
I1    I     I_    0.249269 0.700649 0.778837 -0.409937
I2    I     I_    0.745779 0.238009 0.672241 -0.428755
N1    N     N_R   0.523380 0.207800 0.519350 -0.114820
N2    N     N_R   0.476620 0.792180 0.480650 -0.099433
O1    O     O_R   0.506240 0.421700 0.658830 -0.577772
O2    O     O_R   0.491240 0.609310 0.646410 -0.593390
O3    O     O_R   0.692710 0.406190 0.506230 -0.603442
O4    O     O_R   0.677700 0.593810 0.493810 -0.640266
O5    O     O_R   0.508760 0.390690 0.353590 -0.622314
O6    O     O_R   0.493760 0.578300 0.341170 -0.623953
O7    O     O_R   0.322300 0.406190 0.506190 -0.630482
O8    O     O_R   0.307290 0.593810 0.493770 -0.617333
Zn1   Zn    Zn3+2 0.510020 0.374730 0.508290 0.969121
Zn2   Zn    Zn3+2 0.489980 0.625270 0.491710 0.957455

loop_
_geom_bond_atom_site_label_1
_geom_bond_atom_site_label_2
_ccdc_geom_bond_type
C16   C28   S    
C3    C30   A    
C21   C26   S    
C18   O8    A    
C8    C13   A    
C16   O6    A    
C17   H4    S    
C5    C28   A    
C15   I2    S    
C25   H15   S    
C19   C20   S    
C23   H9    S    
O6    Zn2   S    
C6    H23   S    
C10   H6    S    
N1    Zn1   S    
C25   C32   S    
C26   H18   S    
C2    C3    A    
C15   N1    A    
N2    Zn2   S    
C29   C31   A    
C16   O5    A    
C22   H10   S    
C13   C14   A    
C4    O4    A    
O4    Zn2   S    
C11   C13   A    
C12   C23   S    
C27   H13   S    
C1    C29   S    
C10   N2    A    
C30   H24   S    
C12   C20   S    
C18   O7    A    
C4    C24   S    
C1    O1    A    
C23   H21   S    
C9    H5    S    
O1    Zn1   S    
C19   C24   S    
C29   C32   A    
O5    Zn1   S    
C22   C27   S    
O2    Zn2   S    
C21   C23   S    
C4    O3    A    
C20   H8    S    
C22   C24   S    
C26   H17   S    
O7    Zn1   S    
C10   C11   A    
C12   C27   S    
C12   C18   S    
C9    N2    A    
C1    O2    A    
C5    H22   S    
C8    H3    S    
C25   H14   S    
C2    C32   A    
C19   H1    S    
C21   C24   S    
C31   I1    S    
C15   C17   A    
C20   H7    S    
C30   C31   A    
C11   C17   A    
O8    Zn2   S    
C2    C7    A    
C26   H19   S    
C14   N1    A    
C25   H16   S    
C27   H12   S    
C7    H25   S    
C21   H20   S    
C6    C28   A    
C6    C7    A    
C22   H11   S    
C14   H26   S    
O3    Zn1   S    
C8    C9    A    
C3    C5    A    
C19   H2    S    
