data_mof_unit_56290.cif
_audit_creation_date              2012-12-10T17:50:13-0500
_audit_creation_method            fapswitch 2.2
_symmetry_space_group_name_H-M    P1
_symmetry_Int_Tables_number       1
_space_group_crystal_system       triclinic
_cell_length_a                    10.620463
_cell_length_b                    14.65847
_cell_length_c                    14.941485
_cell_angle_alpha                 64.850996
_cell_angle_beta                  103.823119
_cell_angle_gamma                 101.476876
_cell_volume                      2032.0040694

loop_
_atom_site_label
_atom_site_type_symbol
_atom_type_description
_atom_site_fract_x
_atom_site_fract_y
_atom_site_fract_z
_atom_type_partial_charge
C1    C     C_R   0.479811 0.119757 0.312795 0.855979
C2    C     C_R   0.524343 0.880252 0.687472 0.863695
C3    C     C_R   0.513480 0.290754 0.179623 -0.300968
C4    C     C_R   0.502333 0.710826 0.824707 -0.314680
C5    C     C_R   0.501013 0.359582 0.078729 0.092357
C6    C     C_R   0.543937 0.638943 0.921477 0.097293
C7    C     C_R   0.437015 0.322425 0.004138 0.061528
C8    C     C_R   0.626971 0.674562 0.992154 0.039117
C9    C     C_R   0.545445 0.464701 0.050085 0.082365
C10   C     C_R   0.507377 0.532916 0.949274 0.087397
C11   C     C_R   0.438280 0.492488 0.878627 -0.226853
C12   C     C_R   0.629636 0.503222 0.117912 -0.157041
C13   C     C_R   0.407978 0.389235 0.904803 -0.176518
C14   C     C_R   0.669875 0.606275 0.089068 -0.202380
C15   C     C_R   0.731522 0.280320 0.666364 -0.346639
C16   C     C_R   0.357975 0.750371 0.297201 -0.326939
C17   C     C_R   0.691078 0.200647 0.634546 0.823739
C18   C     C_R   0.353421 0.814518 0.343034 0.823905
C19   C     C_R   0.523587 0.292043 0.511060 0.252357
C20   C     C_R   0.454795 0.701303 0.498211 0.324553
C21   C     C_R   0.579176 0.382074 0.528414 -0.007865
C22   C     C_R   0.484250 0.641937 0.451745 0.024117
C23   C     C_R   0.260023 0.000752 0.500061 0.930884
C24   C     C_R   0.739911 0.999037 0.500146 0.947523
C25   C     C_R   0.672471 0.371250 0.616314 -0.106797
C26   C     C_R   0.428720 0.665655 0.349162 -0.102086
C27   C     C_R   0.537882 0.480122 0.465865 -0.134935
C28   C     C_R   0.553289 0.554016 0.506096 -0.124035
C29   C     C_R   0.644433 0.541819 0.595094 0.599965
C30   C     C_R   0.495657 0.510352 0.361487 0.536111
C31   C     C_R   0.704488 0.450936 0.651686 0.073884
C32   C     C_R   0.440942 0.601980 0.302627 0.096215
C33   C     C_3   0.014275 0.920938 0.479757 -0.393244
C34   C     C_3   0.985262 0.078221 0.520600 -0.422939
C35   C     C_3   0.931223 0.008573 0.410311 0.594800
C36   C     C_3   0.068351 0.990612 0.590066 0.568569
C37   C     C_3   0.876151 0.998640 0.500091 -0.347550
C38   C     C_3   0.123535 0.000645 0.500257 -0.358043
C39   C     C_3   0.958758 0.912429 0.569928 0.588736
C40   C     C_3   0.040753 0.086758 0.430390 0.540979
C41   C     C_R   0.470582 0.187380 0.205810 -0.171138
C42   C     C_R   0.551275 0.812978 0.794878 -0.157355
C43   C     C_R   0.399997 0.218673 0.029782 -0.252452
C44   C     C_R   0.668424 0.778328 0.964551 -0.248872
C45   C     C_R   0.418250 0.151189 0.129682 0.679811
C46   C     C_R   0.632568 0.847098 0.866344 0.671570
Cu1   Cu    Cu3+1 0.465750 0.918270 0.475680 1.071666
Cu2   Cu    Cu3+1 0.534250 0.081730 0.524320 1.046722
H1    H     H_    0.811192 0.270103 0.729058 0.184306
H2    H     H_    0.306893 0.769115 0.220932 0.201446
H3    H     H_    0.026973 0.856693 0.463097 0.226552
H4    H     H_    0.971580 0.142077 0.537458 0.223591
H5    H     H_    0.357837 0.361814 0.847174 0.153087
H6    H     H_    0.735016 0.632680 0.143226 0.168195
H7    H     H_    0.430887 0.689908 0.770626 0.161641
H8    H     H_    0.551507 0.316850 0.239287 0.221971
H9    H     H_    0.354601 0.189845 0.972395 0.181227
H10   H     H_    0.731918 0.805943 0.018406 0.184827
H11   H     H_    0.408954 0.538376 0.801419 0.153459
H12   H     H_    0.670153 0.454901 0.193076 0.187248
N1    N     N_R   0.585750 0.204560 0.560800 -0.272374
N2    N     N_R   0.414250 0.795440 0.439200 -0.293269
O1    O     O_R   0.454850 0.022100 0.338110 -0.480946
O2    O     O_R   0.545150 0.977900 0.661890 -0.488652
O3    O     O_R   0.512700 0.160150 0.379180 -0.622676
O4    O     O_R   0.487300 0.839850 0.620820 -0.622549
O5    O     O_R   0.287930 0.931000 0.479440 -0.566921
O6    O     O_R   0.712070 0.069000 0.520560 -0.553534
O7    O     O_R   0.345780 0.069050 0.520520 -0.596634
O8    O     O_R   0.654220 0.930950 0.479480 -0.546739
F1    F     F_    0.857773 0.018927 0.317335 -0.599198
F2    F     F_    0.141713 0.980343 0.683042 -0.611722
C47   C     C_3   0.409621 0.646915 0.598712 -0.366116
C48   C     C_3   0.315476 0.550742 0.605526 -0.925689
H13   H     H_    0.257756 0.529271 0.665783 0.252026
H14   H     H_    0.245466 0.563936 0.533963 0.268551
H15   H     H_    0.369618 0.486043 0.623335 0.254418
H16   H     H_    0.351820 0.696648 0.607714 0.226198
H17   H     H_    0.493530 0.629726 0.661122 0.243783
C49   C     C_3   0.379897 0.283970 0.465296 -0.270212
C50   C     C_3   0.296926 0.245429 0.547651 -0.767366
H18   H     H_    0.326333 0.173125 0.609047 0.294155
H19   H     H_    0.308008 0.302440 0.580515 0.222090
H20   H     H_    0.192769 0.234300 0.515042 0.268780
H21   H     H_    0.344384 0.356526 0.411237 0.209243
H22   H     H_    0.359054 0.237966 0.420299 0.264865
F3    F     F_    0.282880 0.894331 0.291778 -0.581145
F4    F     F_    0.755017 0.116876 0.681403 -0.584099
F5    F     F_    0.688299 0.624642 0.617031 -0.661972
F6    F     F_    0.512195 0.451607 0.315941 -0.720154
F7    F     F_    0.913835 0.823014 0.642515 -0.596828
F8    F     F_    0.085107 0.176054 0.357391 -0.637540
F9    F     F_    0.680412 0.946059 0.841341 -0.586590
F10   F     F_    0.381141 0.051331 0.150923 -0.588759
C51   C     C_3   0.797964 0.434140 0.751591 -0.405584
C52   C     C_3   0.806352 0.509707 0.799297 -0.628168
H23   H     H_    0.860394 0.583195 0.757605 0.316757
H24   H     H_    0.707429 0.520519 0.803148 0.258727
H25   H     H_    0.861535 0.479524 0.877209 0.215187
H26   H     H_    0.765585 0.359220 0.807988 0.212707
H27   H     H_    0.897565 0.431325 0.742083 0.209108
C53   C     C_3   0.391614 0.626909 0.191595 -0.358608
C54   C     C_3   0.248123 0.586541 0.172705 -0.763059
H28   H     H_    0.235354 0.502669 0.212625 0.272386
H29   H     H_    0.186845 0.619964 0.199057 0.247468
H30   H     H_    0.214485 0.606368 0.091027 0.253761
H31   H     H_    0.406894 0.709655 0.146389 0.207080
H32   H     H_    0.447991 0.592500 0.162748 0.255761

loop_
_geom_bond_atom_site_label_1
_geom_bond_atom_site_label_2
_ccdc_geom_bond_type
C25   C31   A    
C38   C40   S    
C26   C32   A    
C34   C37   S    
C47   C48   S    
C23   O7    A    
C51   C52   S    
Cu2   O7    S    
C30   F6    S    
Cu1   N2    S    
C29   F5    S    
C50   H18   S    
C24   O8    A    
C33   C39   S    
C48   H14   S    
C34   C40   S    
C28   C29   A    
C35   C37   S    
C16   H2    S    
Cu1   O1    S    
C19   N1    A    
Cu2   O2    S    
C17   F4    S    
C52   H25   S    
C42   C46   A    
C23   O5    A    
C49   H22   S    
C17   N1    A    
C44   C46   A    
C48   H15   S    
C52   H24   S    
C1    O3    A    
C47   H16   S    
C53   H32   S    
C7    C43   A    
Cu2   O3    S    
C9    C10   A    
Cu1   O4    S    
C21   C27   A    
C35   F1    S    
C22   C28   A    
C27   C30   A    
C19   C49   S    
C11   H11   S    
C45   F10   S    
C1    O1    A    
C39   F7    S    
C50   H19   S    
C2    O2    A    
C13   H5    S    
C16   C26   A    
C37   C39   S    
C48   H13   S    
C4    C6    A    
C44   H10   S    
C5    C7    A    
C43   H9    S    
C51   H26   S    
C18   N2    A    
C6    C8    A    
C3    C5    A    
Cu2   O6    S    
Cu1   O8    S    
C5    C9    A    
C49   H21   S    
C3    H8    S    
Cu1   Cu2   S    
C52   H23   S    
C24   C37   S    
C47   H17   S    
C53   H31   S    
C54   H29   S    
C40   F8    S    
C43   C45   A    
C1    C41   S    
C14   H6    S    
C12   C14   A    
C4    H7    S    
C32   C53   S    
C54   H28   S    
C50   H20   S    
C15   C17   A    
C21   C25   A    
C3    C41   A    
C8    C14   A    
C19   C21   A    
C36   C39   S    
C8    C44   A    
C20   C22   A    
C49   C50   S    
C2    O4    A    
C6    C10   A    
C33   H3    S    
C23   C38   S    
C34   H4    S    
C18   F3    S    
C36   C38   S    
C35   C40   S    
C29   C31   A    
C30   C32   A    
C11   C13   A    
Cu2   N1    S    
C46   F9    S    
C4    C42   A    
C2    C42   S    
C31   C51   S    
C33   C35   S    
C20   C47   S    
C54   H30   S    
C34   C36   S    
C15   H1    S    
C20   N2    A    
C53   C54   S    
C9    C12   A    
C15   C25   A    
C10   C11   A    
C24   O6    A    
C12   H12   S    
C51   H27   S    
C7    C13   A    
C16   C18   A    
C22   C26   A    
C27   C28   A    
C41   C45   A    
C33   C38   S    
Cu1   O5    S    
C36   F2    S    
