data_mof_unit_50069.cif
_audit_creation_date              2012-10-26T19:44:23-0400
_audit_creation_method            fapswitch 2.2
_symmetry_space_group_name_H-M    P1
_symmetry_Int_Tables_number       1
_space_group_crystal_system       triclinic
_cell_length_a                    11.047212
_cell_length_b                    11.699718
_cell_length_c                    10.414919
_cell_angle_alpha                 90.425475
_cell_angle_beta                  89.740022
_cell_angle_gamma                 90.295396
_cell_volume                      1346.05199637

loop_
_atom_site_label
_atom_site_type_symbol
_atom_type_description
_atom_site_fract_x
_atom_site_fract_y
_atom_site_fract_z
_atom_type_partial_charge
C1    C     C_R   0.501264 0.283243 0.499838 0.516084
C2    C     C_R   0.500733 0.716776 0.500467 0.547391
C3    C     C_1   0.504142 0.161977 0.500577 -0.036105
C4    C     C_3   0.080515 0.421927 0.634876 0.081838
C5    C     C_3   0.067625 0.405388 0.364635 0.064213
C6    C     C_3   0.930505 0.417714 0.640990 0.066841
C7    C     C_3   0.917525 0.412958 0.370047 0.082004
C8    C     C_1   0.505342 0.059616 0.502231 -0.064561
C9    C     C_3   0.075090 0.610284 0.487716 0.256740
C10   C     C_3   0.928210 0.611989 0.501295 0.254533
C11   C     C_R   0.156577 0.307066 0.664583 0.015013
C12   C     C_3   0.121586 0.477011 0.496202 0.076971
C13   C     C_R   0.132366 0.198732 0.611351 -0.121484
C14   C     C_R   0.191690 0.098843 0.647683 -0.108100
C15   C     C_R   0.281519 0.103006 0.739919 -0.108075
C16   C     C_R   0.313945 0.207610 0.792811 -0.114400
C17   C     C_R   0.254455 0.307081 0.755509 -0.052440
C18   C     C_R   0.111200 0.281742 0.327086 -0.002404
C19   C     C_R   0.227599 0.241899 0.357917 -0.089847
C20   C     C_R   0.276301 0.143655 0.299736 -0.110482
C21   C     C_R   0.210698 0.080827 0.210998 -0.118860
C22   C     C_R   0.100008 0.121047 0.171373 -0.114777
C23   C     C_3   0.878253 0.479167 0.503916 0.076959
C24   C     C_R   0.055656 0.223736 0.221106 -0.085059
C25   C     C_R   0.882928 0.298538 0.688991 -0.002141
C26   C     C_R   0.766338 0.257127 0.658995 -0.083602
C27   C     C_R   0.711158 0.168556 0.728421 -0.106733
C28   C     C_R   0.769554 0.118828 0.830904 -0.117874
C29   C     C_R   0.881098 0.160823 0.868223 -0.115800
C30   C     C_R   0.934484 0.251352 0.802333 -0.086898
C31   C     C_R   0.836977 0.298006 0.347976 0.013282
C32   C     C_R   0.856750 0.192004 0.407424 -0.125006
C33   C     C_R   0.799307 0.090326 0.370268 -0.107890
C34   C     C_1   0.502816 0.838071 0.501660 -0.038259
C35   C     C_R   0.714786 0.090309 0.272487 -0.110080
C36   C     C_R   0.683479 0.192992 0.216776 -0.119990
C37   C     C_R   0.740811 0.294358 0.254945 -0.053059
C38   C     C_1   0.504496 0.940296 0.502432 -0.064140
C39   C     C_R   0.259860 0.486694 0.498771 0.576488
C40   C     C_R   0.740379 0.489726 0.501110 0.579585
C41   C     C_1   0.500017 0.499881 0.071906 0.078762
C42   C     C_1   0.500063 0.499889 0.928094 0.076126
Cu1   Cu    Cu3+1 0.500000 0.500000 0.625300 0.967727
Cu2   Cu    Cu3+1 0.500000 0.500000 0.374700 0.966883
H1    H     H_    0.115482 0.461043 0.830398 0.185187
H2    H     H_    0.169229 0.018214 0.601691 0.109777
H3    H     H_    0.328096 0.025933 0.767689 0.114710
H4    H     H_    0.386299 0.212289 0.862493 0.105344
H5    H     H_    0.288456 0.383786 0.800758 0.165264
H6    H     H_    0.280705 0.285341 0.427999 0.134618
H7    H     H_    0.366454 0.116354 0.318716 0.129408
H8    H     H_    0.248393 0.004139 0.168292 0.111482
H9    H     H_    0.052174 0.075129 0.097171 0.102224
H10   H     H_    0.979625 0.259135 0.171090 0.112477
H11   H     H_    0.718063 0.291629 0.580492 0.136930
H12   H     H_    0.076245 0.574321 0.756288 0.279828
H13   H     H_    0.621060 0.139850 0.707009 0.129511
H14   H     H_    0.726096 0.051090 0.884655 0.109624
H15   H     H_    0.922931 0.127402 0.952842 0.100989
H16   H     H_    0.012924 0.288722 0.847433 0.110878
H17   H     H_    0.909448 0.185564 0.488182 0.109773
H18   H     H_    0.819163 0.011509 0.419632 0.109331
H19   H     H_    0.670076 0.011726 0.243734 0.115315
H20   H     H_    0.613812 0.194671 0.144012 0.105791
H21   H     H_    0.707704 0.369467 0.207385 0.168222
H22   H     H_    0.223196 0.691804 0.575986 0.262003
H23   H     H_    0.075220 0.439379 0.163809 0.196158
H24   H     H_    0.095762 0.765780 0.584038 0.202038
H25   H     H_    0.062118 0.665793 0.289462 0.254328
H26   H     H_    0.150240 0.746619 0.377715 0.208654
H27   H     H_    0.859595 0.758425 0.599840 0.207235
H28   H     H_    0.943221 0.681379 0.694555 0.257472
H29   H     H_    0.912079 0.759531 0.392127 0.202423
H30   H     H_    0.782327 0.689223 0.407446 0.262101
H31   H     H_    0.204548 0.450451 0.229060 0.273505
H32   H     H_    0.925975 0.469514 0.838282 0.196525
H33   H     H_    0.796407 0.476010 0.774715 0.276429
H34   H     H_    0.885226 0.438457 0.171936 0.185278
H35   H     H_    0.928127 0.555522 0.237179 0.280129
H36   H     H_    0.074939 0.189768 0.534766 0.111784
N1    N     N_1   0.500000 0.499990 0.186410 -0.206957
N2    N     N_3   0.875178 0.676918 0.393925 -0.639423
N3    N     N_1   0.500000 0.499990 0.813590 -0.208098
N4    N     N_3   0.122832 0.499721 0.740516 -0.580802
N5    N     N_3   0.114060 0.467681 0.249542 -0.605501
N6    N     N_3   0.886778 0.490174 0.750622 -0.604602
N7    N     N_3   0.878444 0.483741 0.258587 -0.581362
N8    N     N_3   0.129858 0.682608 0.589549 -0.641373
N9    N     N_3   0.121191 0.661913 0.365910 -0.576623
N10   N     N_3   0.883947 0.673822 0.618409 -0.581672
O1    O     O_R   0.500000 0.337200 0.605810 -0.513537
O2    O     O_R   0.500000 0.337200 0.394190 -0.512404
O3    O     O_R   0.317690 0.499990 0.605810 -0.475344
O4    O     O_R   0.317690 0.499990 0.394190 -0.493113
O5    O     O_R   0.682310 0.499990 0.605810 -0.498874
O6    O     O_R   0.682310 0.499990 0.394190 -0.476843
O7    O     O_R   0.500000 0.662810 0.605810 -0.481540
O8    O     O_R   0.500000 0.662810 0.394190 -0.484053

loop_
_geom_bond_atom_site_label_1
_geom_bond_atom_site_label_2
_ccdc_geom_bond_type
H34   N7    S    
Cu1   N3    S    
C41   C42   S    
C19   C20   A    
C15   H3    S    
C26   H11   S    
C16   H4    S    
H35   N7    S    
C14   H2    S    
C28   C29   A    
C26   C27   A    
C18   C24   A    
C21   C22   A    
C36   C37   A    
H30   N2    S    
C32   H17   S    
C20   H7    S    
C9    N8    S    
H22   N8    S    
C6    C25   S    
C24   H10   S    
C23   C40   S    
C18   C19   A    
C39   O3    A    
Cu1   O3    S    
Cu2   O8    S    
H31   N5    S    
C7    N7    S    
C29   H15   S    
C2    O7    A    
C33   H18   S    
C37   H21   S    
Cu1   O5    S    
C4    C12   S    
C9    C10   S    
Cu2   O2    S    
C5    N5    S    
C2    C34   S    
C13   H36   S    
C1    O1    A    
C13   C14   A    
C8    C38   S    
C40   O6    A    
H25   N9    S    
H12   N4    S    
C22   H9    S    
H23   N5    S    
C7    C31   S    
C5    C12   S    
C4    C6    S    
Cu2   N1    S    
C27   H13   S    
C9    N9    S    
C5    C7    S    
C16   C17   A    
C5    C18   S    
C25   C26   A    
C10   N2    S    
Cu1   O1    S    
C31   C37   A    
C30   H16   S    
C1    C3    S    
C35   C36   A    
Cu1   Cu2   S    
C39   O4    A    
C29   C30   A    
Cu2   O6    S    
H28   N10   S    
C31   C32   A    
C4    N4    S    
C41   N1    T    
C4    C11   S    
C10   N10   S    
H33   N6    S    
C3    C8    T    
C1    O2    A    
H24   N8    S    
C22   C24   A    
H1    N4    S    
C40   O5    A    
C17   H5    S    
H32   N6    S    
H29   N2    S    
C25   C30   A    
C11   C17   A    
C34   C38   T    
C42   N3    T    
Cu1   O7    S    
C28   H14   S    
C10   C23   S    
C6    N6    S    
C32   C33   A    
C12   C39   S    
C11   C13   A    
C19   H6    S    
H27   N10   S    
C7    C23   S    
C6    C23   S    
C33   C35   A    
C9    C12   S    
Cu2   O4    S    
H26   N9    S    
C20   C21   A    
C2    O8    A    
C27   C28   A    
C14   C15   A    
C35   H19   S    
C36   H20   S    
C21   H8    S    
C15   C16   A    
