data_mof_unit_46490.cif
_audit_creation_date              2012-12-10T16:47:48-0500
_audit_creation_method            fapswitch 2.2
_symmetry_space_group_name_H-M    P1
_symmetry_Int_Tables_number       1
_space_group_crystal_system       triclinic
_cell_length_a                    7.804381
_cell_length_b                    8.597368
_cell_length_c                    10.710408
_cell_angle_alpha                 91.660424
_cell_angle_beta                  85.12764
_cell_angle_gamma                 93.398089
_cell_volume                      714.574779497

loop_
_atom_site_label
_atom_site_type_symbol
_atom_type_description
_atom_site_fract_x
_atom_site_fract_y
_atom_site_fract_z
_atom_type_partial_charge
C1    C     C_R   0.544973 0.794562 0.501085 0.974879
C2    C     C_2   0.566518 0.957990 0.499271 -0.510360
C3    C     C_3   0.271399 0.035679 0.721502 -0.330798
C4    C     C_3   0.035297 0.665737 0.718244 -0.080997
C5    C     C_2   0.433277 0.045965 0.534574 0.367140
C6    C     C_R   0.501580 0.502757 0.737169 0.894854
C7    C     C_R   0.455051 0.206205 0.508542 0.824714
C8    C     C_R   0.498229 0.494420 0.262692 0.917597
C9    C     C_2   0.639727 0.467347 0.057219 -0.165501
C10   C     C_2   0.493345 0.474736 0.130956 -0.326908
C11   C     C_2   0.636963 0.459392 0.922996 -0.171616
C12   C     C_2   0.505604 0.513524 0.868910 -0.333210
H1    H     H_    0.690508 0.006248 0.459367 0.165248
H2    H     H_    0.165488 0.724152 0.708509 0.200862
H3    H     H_    0.035892 0.550493 0.762938 0.118197
H4    H     H_    0.952601 0.739862 0.781439 0.114961
H5    H     H_    0.012425 0.376370 0.410142 0.144503
H6    H     H_    0.764709 0.468012 0.094939 0.171309
H7    H     H_    0.366858 0.462516 0.095783 0.144692
H8    H     H_    0.746246 0.411506 0.868433 0.166678
H9    H     H_    0.399257 0.569142 0.920381 0.139193
H10   H     H_    0.282572 0.164692 0.733925 0.167913
H11   H     H_    0.372812 0.981848 0.770098 0.145536
H12   H     H_    0.144396 0.996359 0.767731 0.176995
N1    N     N_2   0.950320 0.457950 0.466680 -0.089903
N2    N     N_2   0.049680 0.542050 0.533320 0.126097
O1    O     O_R   0.389250 0.738570 0.508180 -0.556259
O2    O     O_3   0.965734 0.651766 0.601997 -0.471793
O3    O     O_R   0.678390 0.711630 0.486820 -0.564605
O4    O     O_R   0.355470 0.513470 0.691600 -0.673613
O5    O     O_R   0.644610 0.486520 0.670240 -0.577997
O6    O     O_R   0.321610 0.288370 0.513180 -0.616372
O7    O     O_R   0.610750 0.261430 0.491820 -0.654296
O8    O     O_R   0.355390 0.513480 0.329760 -0.640386
O9    O     O_R   0.644530 0.486530 0.308400 -0.623427
O10   O     O_3   0.278515 0.987639 0.593915 -0.559585
Zn1   Zn    Zn3+2 0.306940 0.517990 0.514260 0.985844
Zn2   Zn    Zn3+2 0.693060 0.482010 0.485740 1.000414

loop_
_geom_bond_atom_site_label_1
_geom_bond_atom_site_label_2
_ccdc_geom_bond_type
O3    Zn2   S    
C4    H4    S    
C11   C12   D    
N2    Zn1   S    
N1    Zn2   S    
O8    Zn1   S    
C9    C11   S    
C9    C10   D    
C3    H11   S    
O7    Zn2   S    
O5    Zn2   S    
C10   H7    S    
H5    N1    S    
C4    H3    S    
C1    O3    A    
C6    O5    A    
C8    O8    A    
O6    Zn1   S    
C4    H2    S    
C7    O7    A    
C3    H12   S    
C3    O10   S    
O1    Zn1   S    
C6    O4    A    
C5    C7    S    
C6    C12   S    
C11   H8    S    
C2    C5    D    
C5    O10   S    
C9    H6    S    
O9    Zn2   S    
C8    C10   S    
C1    C2    S    
C1    O1    A    
C2    H1    S    
C3    H10   S    
C7    O6    A    
C4    O2    S    
N1    N2    D    
N2    O2    S    
C12   H9    S    
O4    Zn1   S    
C8    O9    A    
