data_mof_unit_54953.cif
_audit_creation_date              2013-03-05T16:34:52-0500
_audit_creation_method            fapswitch 2.2
_symmetry_space_group_name_H-M    P1
_symmetry_Int_Tables_number       1
_space_group_crystal_system       monoclinic
_cell_length_a                    15.095093
_cell_length_b                    9.081015
_cell_length_c                    7.79501
_cell_angle_alpha                 89.861253
_cell_angle_beta                  90.0
_cell_angle_gamma                 90.0
_cell_volume                      1068.52721845

loop_
_atom_site_label
_atom_site_type_symbol
_atom_site_description
_atom_site_fract_x
_atom_site_fract_y
_atom_site_fract_z
_atom_type_partial_charge
O1    O     O_R   0.500000 0.288390 0.642760 -0.580573
O2    O     O_R   0.500000 0.711610 0.357240 -0.580573
O3    O     O_R   0.500000 0.711610 0.642760 -0.570094
O4    O     O_R   0.500000 0.288390 0.357240 -0.570094
H1    H     H_    0.920960 0.151425 0.342840 0.161793
H2    H     H_    0.079040 0.848576 0.657156 0.161793
H3    H     H_    0.920960 0.848575 0.657160 0.161793
H4    H     H_    0.079040 0.151424 0.342843 0.161793
C1    C     C_R   0.500000 0.220078 0.500130 0.857281
C2    C     C_R   0.500000 0.779922 0.499870 0.857281
O5    O     O_R   0.370260 0.500000 0.642800 -0.578466
O6    O     O_R   0.629740 0.500000 0.357200 -0.578465
O7    O     O_R   0.629740 0.500000 0.642800 -0.578465
O8    O     O_R   0.370260 0.500000 0.357200 -0.578466
C3    C     C_R   0.328824 0.500000 0.500000 0.817312
C4    C     C_R   0.671176 0.500000 0.500000 0.817311
Cu1   Cu    Cu3+1 0.500000 0.500000 0.669080 1.041991
Cu2   Cu    Cu3+1 0.500000 0.500000 0.330920 1.041991
N1    N     N_1   0.500000 0.500000 0.076820 -0.038034
N2    N     N_1   0.500000 0.500000 0.923180 -0.038034
C5    C     C_R   0.813246 0.625412 0.557652 -0.089552
C6    C     C_R   0.186754 0.374585 0.442354 -0.089552
C7    C     C_R   0.813246 0.374588 0.442347 -0.089552
C8    C     C_R   0.186754 0.625415 0.557646 -0.089552
C9    C     C_R   0.767553 0.500000 0.500000 -0.138848
C10   C     C_R   0.232447 0.500000 0.500000 -0.138848
C11   C     C_R   0.906429 0.373964 0.442625 0.068010
C12   C     C_R   0.093571 0.626037 0.557372 0.068011
C13   C     C_R   0.906429 0.626036 0.557375 0.068010
C14   C     C_R   0.093571 0.373963 0.442628 0.068011
C15   C     C_R   0.953129 0.500000 0.500000 0.053574
C16   C     C_R   0.046871 0.500000 0.500000 0.053574
C17   C     C_R   0.954109 0.249986 0.387102 -0.195977
C18   C     C_R   0.045891 0.750014 0.612896 -0.195977
C19   C     C_R   0.954109 0.750014 0.612898 -0.195977
C20   C     C_R   0.045891 0.249986 0.387104 -0.195977
C21   C     C_1   0.500000 0.065403 0.500184 -0.112370
C22   C     C_1   0.500000 0.934597 0.499816 -0.112370
C23   C     C_1   0.763675 0.753980 0.613429 0.239181
N3    N     N_1   0.724165 0.856290 0.657735 -0.270108
C24   C     C_1   0.236325 0.246013 0.386589 0.239180
N4    N     N_1   0.275835 0.143700 0.342294 -0.270106
C25   C     C_1   0.763675 0.246020 0.386571 0.239181
N5    N     N_1   0.724165 0.143710 0.342265 -0.270108
C26   C     C_1   0.236325 0.753987 0.613410 0.239180
N6    N     N_1   0.275835 0.856300 0.657706 -0.270106

loop_
_geom_bond_atom_site_label_1
_geom_bond_atom_site_label_2
_geom_bond_distance
_ccdc_geom_bond_type
C25   N5    1.157460 T    
C21   C22   1.187861 T    
C4    C9    1.454814 S    
O7    Cu1   1.969122 S    
O2    Cu2   1.933049 S    
C8    C12   1.406617 A    
C24   N4    1.157461 T    
C13   C19   1.405425 A    
O1    Cu1   1.933050 S    
N1    N2    1.197626 T    
C5    C23   1.454142 S    
C14   C20   1.405424 A    
C2    C22   1.404603 S    
O4    Cu2   1.932062 S    
Cu1   N2    1.980711 S    
O5    C3    1.276824 A    
C1    C21   1.404603 S    
Cu1   Cu2   2.635961 S    
C12   C18   1.405424 A    
C13   C15   1.417530 A    
O3    C2    1.273615 A    
C26   N6    1.157460 T    
C11   C17   1.405425 A    
C14   C16   1.417532 A    
H3    C19   1.082597 S    
C8    C26   1.454145 S    
C8    C10   1.406136 A    
O3    Cu1   1.932061 S    
C7    C11   1.406618 A    
C7    C9    1.406136 A    
H4    C20   1.082597 S    
C18   C19   1.385465 A    
C6    C24   1.454144 S    
C11   C15   1.417531 A    
O2    C2    1.274468 A    
O6    C4    1.276824 A    
C12   C16   1.417531 A    
C17   C20   1.385465 A    
O1    C1    1.274468 A    
Cu2   N1    1.980711 S    
C6    C10   1.406137 A    
O7    C4    1.276824 A    
O6    Cu2   1.969122 S    
C23   N3    1.157460 T    
O8    Cu2   1.969124 S    
O8    C3    1.276824 A    
O5    Cu1   1.969124 S    
C3    C10   1.454812 S    
C5    C9    1.406136 A    
C6    C14   1.406617 A    
O4    C1    1.273615 A    
C7    C25   1.454142 S    
C5    C13   1.406618 A    
C15   C16   1.415056 A    
H2    C18   1.082597 S    
H1    C17   1.082598 S    
