data_mof_unit_59973.cif
_audit_creation_date              2012-10-26T17:11:31-0400
_audit_creation_method            fapswitch 2.2
_symmetry_space_group_name_H-M    P1
_symmetry_Int_Tables_number       1
_space_group_crystal_system       triclinic
_cell_length_a                    28.05561
_cell_length_b                    18.717326
_cell_length_c                    16.864887
_cell_angle_alpha                 90.355841
_cell_angle_beta                  63.247778
_cell_angle_gamma                 89.899137
_cell_volume                      7907.98170402

loop_
_atom_site_label
_atom_site_type_symbol
_atom_type_description
_atom_site_fract_x
_atom_site_fract_y
_atom_site_fract_z
_atom_type_partial_charge
C1    C     C_R   0.295634 0.729741 0.329258 0.854647
C2    C     C_R   0.704366 0.270259 0.670742 0.854645
C3    C     C_R   0.706727 0.725326 0.669252 0.856033
C4    C     C_R   0.293273 0.274674 0.330748 0.856033
C5    C     C_R   0.795634 0.229741 0.329258 0.854648
C6    C     C_R   0.204366 0.770259 0.670742 0.854647
C7    C     C_R   0.206727 0.225326 0.669252 0.856033
C8    C     C_R   0.793273 0.774674 0.330748 0.856033
C9    C     C_R   0.410272 0.999747 0.464360 0.069404
C10   C     C_R   0.589728 0.000253 0.535640 0.069404
C11   C     C_R   0.910272 0.499747 0.464360 0.069404
C12   C     C_R   0.089728 0.500253 0.535640 0.069404
C13   C     C_R   0.583099 0.871479 0.549262 -0.204266
C14   C     C_R   0.416901 0.128521 0.450738 -0.204266
C15   C     C_R   0.416783 0.870734 0.451823 -0.195326
C16   C     C_R   0.583217 0.129266 0.548177 -0.195329
C17   C     C_R   0.083099 0.371479 0.549262 -0.204266
C18   C     C_R   0.916901 0.628521 0.450738 -0.204266
C19   C     C_R   0.916783 0.370734 0.451823 -0.195326
C20   C     C_R   0.083217 0.629266 0.548177 -0.195326
C21   C     C_R   0.221986 0.769651 0.952222 -0.029857
C22   C     C_R   0.778014 0.230350 0.047777 -0.029857
C23   C     C_R   0.780420 0.766632 0.044956 -0.036408
C24   C     C_R   0.219580 0.233368 0.955043 -0.036409
C25   C     C_R   0.721987 0.269651 0.952222 -0.029857
C26   C     C_R   0.278014 0.730349 0.047778 -0.029857
C27   C     C_R   0.280420 0.266632 0.044956 -0.036408
C28   C     C_R   0.719580 0.733368 0.955043 -0.036408
C29   C     C_R   0.229543 0.697281 0.964886 -0.267267
C30   C     C_R   0.770458 0.302719 0.035114 -0.267267
C31   C     C_R   0.770160 0.695222 0.032726 -0.238184
C32   C     C_R   0.229840 0.304778 0.967274 -0.238184
C33   C     C_R   0.729543 0.197282 0.964885 -0.267267
C34   C     C_R   0.270457 0.802719 0.035114 -0.267267
C35   C     C_R   0.270160 0.195222 0.032726 -0.238184
C36   C     C_R   0.729840 0.804778 0.967274 -0.238185
C37   C     C_R   0.257242 0.677598 0.012523 0.710085
C38   C     C_R   0.742758 0.322403 0.987477 0.710085
C39   C     C_R   0.740090 0.678564 0.987934 0.684844
C40   C     C_R   0.259910 0.321435 0.012066 0.684844
C41   C     C_R   0.757242 0.177599 0.012522 0.710084
C42   C     C_R   0.242758 0.822402 0.987477 0.710085
C43   C     C_R   0.240090 0.178564 0.987934 0.684844
C44   C     C_R   0.759910 0.821435 0.012066 0.684844
C45   C     C_R   0.145440 0.830603 0.943563 0.588831
C46   C     C_R   0.854560 0.169397 0.056437 0.588832
C47   C     C_R   0.856269 0.827370 0.055701 0.610984
C48   C     C_R   0.143731 0.172630 0.944298 0.610984
C49   C     C_R   0.645440 0.330604 0.943563 0.588826
C50   C     C_R   0.354560 0.669397 0.056437 0.588831
C51   C     C_R   0.356269 0.327370 0.055701 0.610985
C52   C     C_R   0.643731 0.672630 0.944298 0.610984
C53   C     C_R   0.115528 0.847324 0.897630 -0.220871
C54   C     C_R   0.884472 0.152676 0.102370 -0.220873
C55   C     C_R   0.878303 0.858387 0.108094 -0.248621
C56   C     C_R   0.121697 0.141613 0.891906 -0.248620
C57   C     C_R   0.615528 0.347324 0.897630 -0.220863
C58   C     C_R   0.384472 0.652676 0.102370 -0.220871
C59   C     C_R   0.378303 0.358386 0.108094 -0.248621
C60   C     C_R   0.621697 0.641613 0.891906 -0.248620
C61   C     C_R   0.130285 0.817028 0.813031 -0.217451
C62   C     C_R   0.869715 0.182972 0.186969 -0.217450
C63   C     C_R   0.853241 0.847476 0.200547 -0.199047
C64   C     C_R   0.146759 0.152524 0.799453 -0.199047
C65   C     C_R   0.630285 0.317027 0.813031 -0.217448
C66   C     C_R   0.369715 0.682972 0.186969 -0.217451
C67   C     C_R   0.353241 0.347476 0.200547 -0.199048
C68   C     C_R   0.646759 0.652524 0.799453 -0.199048
C69   C     C_R   0.180879 0.784231 0.767334 -0.251758
C70   C     C_R   0.819121 0.215769 0.232665 -0.251756
C71   C     C_R   0.813837 0.794427 0.236614 -0.247309
C72   C     C_R   0.186163 0.205573 0.763386 -0.247309
C73   C     C_R   0.680879 0.284232 0.767334 -0.251764
C74   C     C_R   0.319121 0.715769 0.232665 -0.251757
C75   C     C_R   0.313837 0.294426 0.236614 -0.247308
C76   C     C_R   0.686163 0.705573 0.763386 -0.247309
C77   C     C_R   0.210624 0.768557 0.814031 0.531923
C78   C     C_R   0.789376 0.231443 0.185968 0.531923
C79   C     C_R   0.791864 0.764265 0.183509 0.518307
C80   C     C_R   0.208136 0.235735 0.816491 0.518309
C81   C     C_R   0.710624 0.268558 0.814031 0.531924
C82   C     C_R   0.289376 0.731442 0.185969 0.531924
C83   C     C_R   0.291864 0.264265 0.183509 0.518307
C84   C     C_R   0.708136 0.735735 0.816491 0.518308
C85   C     C_R   0.196729 0.631727 0.526959 0.798746
C86   C     C_R   0.803271 0.368272 0.473041 0.798748
C87   C     C_R   0.803303 0.631620 0.472901 0.780740
C88   C     C_R   0.196697 0.368380 0.527099 0.780739
C89   C     C_R   0.696729 0.131727 0.526959 0.798744
C90   C     C_R   0.303271 0.868272 0.473041 0.798747
C91   C     C_R   0.303303 0.131620 0.472901 0.780740
C92   C     C_R   0.696697 0.868380 0.527099 0.780739
C93   C     C_R   0.191913 0.789414 0.902753 -0.086096
C94   C     C_R   0.808087 0.210587 0.097247 -0.086097
C95   C     C_R   0.810757 0.784723 0.094803 -0.089203
C96   C     C_R   0.189243 0.215277 0.905196 -0.089204
C97   C     C_R   0.691913 0.289415 0.902752 -0.086096
C98   C     C_R   0.308087 0.710586 0.097247 -0.086097
C99   C     C_R   0.310757 0.284723 0.094803 -0.089203
C100  C     C_R   0.689242 0.715277 0.905196 -0.089204
C101  C     C_R   0.924861 0.905806 0.067772 0.841033
C102  C     C_R   0.075139 0.094194 0.932228 0.841033
C103  C     C_R   0.072314 0.901234 0.934549 0.838472
C104  C     C_R   0.927686 0.098765 0.065451 0.838470
C105  C     C_R   0.424861 0.405806 0.067772 0.841034
C106  C     C_R   0.575139 0.594194 0.932228 0.841032
C107  C     C_R   0.572314 0.401234 0.934549 0.838480
C108  C     C_R   0.427686 0.598765 0.065451 0.838471
C109  C     C_R   0.041463 0.629659 0.524673 0.087290
C110  C     C_R   0.958537 0.370341 0.475327 0.087290
C111  C     C_R   0.958652 0.629275 0.474225 0.085004
C112  C     C_R   0.041348 0.370725 0.525775 0.085004
C113  C     C_R   0.541463 0.129659 0.524673 0.087291
C114  C     C_R   0.458537 0.870341 0.475327 0.087290
C115  C     C_R   0.458652 0.129275 0.474225 0.085004
C116  C     C_R   0.541348 0.870725 0.525775 0.085004
C117  C     C_R   0.020045 0.694328 0.513107 -0.149903
C118  C     C_R   0.979955 0.305672 0.486893 -0.149903
C119  C     C_R   0.980106 0.694112 0.485249 -0.152044
C120  C     C_R   0.019894 0.305888 0.514751 -0.152044
C121  C     C_R   0.520045 0.194328 0.513107 -0.149905
C122  C     C_R   0.479955 0.805672 0.486893 -0.149903
C123  C     C_R   0.480106 0.194112 0.485249 -0.152044
C124  C     C_R   0.519894 0.805888 0.514751 -0.152044
C125  C     C_R   0.978529 0.564578 0.488750 0.037831
C126  C     C_R   0.021471 0.435422 0.511250 0.037831
C127  C     C_R   0.021527 0.564743 0.510707 0.036485
C128  C     C_R   0.978473 0.435257 0.489293 0.036485
C129  C     C_R   0.478529 0.064578 0.488750 0.037831
C130  C     C_R   0.521471 0.935422 0.511250 0.037831
C131  C     C_R   0.521527 0.064743 0.510707 0.036485
C132  C     C_R   0.478473 0.935257 0.489293 0.036485
C133  C     C_R   0.456270 0.999845 0.479301 -0.034057
C134  C     C_R   0.543730 0.000155 0.520699 -0.034058
C135  C     C_R   0.956270 0.499845 0.479301 -0.034057
C136  C     C_R   0.043730 0.500155 0.520699 -0.034057
C137  C     C_R   0.387359 0.934053 0.457545 0.051532
C138  C     C_R   0.612641 0.065947 0.542455 0.051532
C139  C     C_R   0.612579 0.934635 0.542918 0.049542
C140  C     C_R   0.387421 0.065365 0.457082 0.049542
C141  C     C_R   0.887359 0.434053 0.457545 0.051532
C142  C     C_R   0.112641 0.565947 0.542455 0.051532
C143  C     C_R   0.112579 0.434635 0.542918 0.049542
C144  C     C_R   0.887421 0.565365 0.457082 0.049542
C145  C     C_R   0.335866 0.934312 0.458758 -0.100255
C146  C     C_R   0.664134 0.065688 0.541242 -0.100256
C147  C     C_R   0.664099 0.934716 0.541478 -0.097758
C148  C     C_R   0.335901 0.065283 0.458521 -0.097758
C149  C     C_R   0.835866 0.434312 0.458758 -0.100255
C150  C     C_R   0.164134 0.565688 0.541242 -0.100255
C151  C     C_R   0.164099 0.434717 0.541478 -0.097758
C152  C     C_R   0.835901 0.565283 0.458521 -0.097758
C153  C     C_R   0.311741 0.999842 0.458410 -0.260631
C154  C     C_R   0.688258 0.000158 0.541589 -0.260631
C155  C     C_R   0.811741 0.499842 0.458410 -0.260630
C156  C     C_R   0.188259 0.500158 0.541589 -0.260631
Cu1   Cu    Cu3+1 0.209920 0.785290 0.495070 1.015615
Cu2   Cu    Cu3+1 0.790080 0.214710 0.504930 1.015616
Cu3   Cu    Cu3+1 0.790080 0.785290 0.504930 1.051731
Cu4   Cu    Cu3+1 0.209920 0.214710 0.495070 1.051731
Cu5   Cu    Cu3+1 0.709920 0.285290 0.495070 1.015613
Cu6   Cu    Cu3+1 0.290080 0.714710 0.504930 1.015615
Cu7   Cu    Cu3+1 0.290080 0.285290 0.504930 1.051732
Cu8   Cu    Cu3+1 0.709920 0.714710 0.495070 1.051731
Cu9   Cu    Cu3+1 0.495240 0.500000 0.924150 1.140935
Cu10  Cu    Cu3+1 0.504760 0.500000 0.075850 1.140932
Cu11  Cu    Cu3+1 0.995240 1.000000 0.924150 1.140932
Cu12  Cu    Cu3+1 0.004760 1.000000 0.075850 1.140931
H1    H     H_    0.535125 0.755355 0.525011 0.159070
H2    H     H_    0.464875 0.244644 0.474989 0.159070
H3    H     H_    0.464697 0.754984 0.477051 0.154002
H4    H     H_    0.535303 0.245016 0.522949 0.154001
H5    H     H_    0.035125 0.255355 0.525011 0.159070
H6    H     H_    0.964875 0.744645 0.474989 0.159070
H7    H     H_    0.964697 0.254984 0.477051 0.154002
H8    H     H_    0.035303 0.745016 0.522949 0.154002
H9    H     H_    0.272170 0.999940 0.462152 0.195978
H10   H     H_    0.727830 0.000060 0.537847 0.195978
H11   H     H_    0.772170 0.499940 0.462152 0.195978
H12   H     H_    0.227830 0.500060 0.537847 0.195978
H13   H     H_    0.590570 0.821991 0.573890 0.186329
H14   H     H_    0.409430 0.178009 0.426109 0.186329
H15   H     H_    0.409326 0.820803 0.427624 0.181700
H16   H     H_    0.590673 0.179197 0.572376 0.181697
H17   H     H_    0.090570 0.321991 0.573890 0.186329
H18   H     H_    0.909430 0.678009 0.426109 0.186329
H19   H     H_    0.909327 0.320803 0.427624 0.181700
H20   H     H_    0.090673 0.679197 0.572376 0.181700
H21   H     H_    0.213404 0.656086 0.938598 0.212271
H22   H     H_    0.786596 0.343914 0.061402 0.212271
H23   H     H_    0.785804 0.652430 0.057343 0.221352
H24   H     H_    0.214196 0.347570 0.942657 0.221352
H25   H     H_    0.713405 0.156087 0.938597 0.212271
H26   H     H_    0.286596 0.843914 0.061402 0.212271
H27   H     H_    0.285804 0.152430 0.057343 0.221352
H28   H     H_    0.714196 0.847570 0.942657 0.221352
O1    O     O_R   0.255040 0.869590 0.478480 -0.581023
O2    O     O_R   0.744960 0.130410 0.521520 -0.581023
O3    O     O_R   0.744960 0.869590 0.521520 -0.582135
O4    O     O_R   0.255040 0.130410 0.478480 -0.582136
O5    O     O_R   0.755040 0.369590 0.478480 -0.581022
O6    O     O_R   0.244960 0.630410 0.521520 -0.581023
O7    O     O_R   0.244960 0.369590 0.521520 -0.582135
O8    O     O_R   0.755040 0.630410 0.478480 -0.582136
O9    O     O_R   0.182050 0.796550 0.624440 -0.632516
O10   O     O_R   0.817950 0.203450 0.375560 -0.632516
O11   O     O_R   0.817950 0.796550 0.375560 -0.570371
O12   O     O_R   0.182050 0.203450 0.624440 -0.570371
O13   O     O_R   0.682050 0.296550 0.624440 -0.632519
O14   O     O_R   0.317950 0.703450 0.375560 -0.632516
O15   O     O_R   0.317950 0.296550 0.375560 -0.570371
O16   O     O_R   0.682050 0.703450 0.624440 -0.570371
O17   O     O_R   0.250530 0.763330 0.367210 -0.495958
O18   O     O_R   0.749470 0.236670 0.632790 -0.495956
O19   O     O_R   0.749470 0.763330 0.632790 -0.509693
O20   O     O_R   0.250530 0.236670 0.367210 -0.509693
O21   O     O_R   0.750530 0.263330 0.367210 -0.495958
O22   O     O_R   0.249470 0.736670 0.632790 -0.495958
O23   O     O_R   0.249470 0.263330 0.632790 -0.509693
O24   O     O_R   0.750530 0.736670 0.367210 -0.509693
O25   O     O_R   0.177260 0.690030 0.513710 -0.600320
O26   O     O_R   0.822740 0.309970 0.486290 -0.600319
O27   O     O_R   0.822740 0.690030 0.486290 -0.601819
O28   O     O_R   0.177260 0.309970 0.513710 -0.601819
O29   O     O_R   0.677260 0.190030 0.513710 -0.600321
O30   O     O_R   0.322740 0.809970 0.486290 -0.600320
O31   O     O_R   0.322740 0.190030 0.486290 -0.601819
O32   O     O_R   0.677260 0.809970 0.513710 -0.601819
O33   O     O_R   0.051640 0.926880 0.885090 -0.611519
O34   O     O_R   0.948360 0.073120 0.114910 -0.611520
O35   O     O_R   0.948360 0.926880 0.114910 -0.574433
O36   O     O_R   0.051640 0.073120 0.885090 -0.574434
O37   O     O_R   0.551640 0.426880 0.885090 -0.611512
O38   O     O_R   0.448360 0.573120 0.114910 -0.611519
O39   O     O_R   0.448360 0.426880 0.114910 -0.574434
O40   O     O_R   0.551640 0.573120 0.885090 -0.574434
O41   O     O_R   0.940620 0.926560 0.986760 -0.500985
O42   O     O_R   0.059380 0.073440 0.013240 -0.500986
O43   O     O_R   0.059380 0.926560 0.013240 -0.505013
O44   O     O_R   0.940620 0.073440 0.986760 -0.505012
O45   O     O_R   0.440620 0.426560 0.986760 -0.500984
O46   O     O_R   0.559380 0.573440 0.013240 -0.500986
O47   O     O_R   0.559380 0.426560 0.013240 -0.505016
O48   O     O_R   0.440620 0.573440 0.986760 -0.505013
F1    F     F_    0.237033 0.892764 0.974457 -0.580913
F2    F     F_    0.762968 0.107236 0.025542 -0.580913
F3    F     F_    0.768010 0.891127 0.025065 -0.587374
F4    F     F_    0.231990 0.108873 0.974935 -0.587373
F5    F     F_    0.737033 0.392765 0.974457 -0.580912
F6    F     F_    0.262967 0.607236 0.025543 -0.580913
F7    F     F_    0.268010 0.391127 0.025065 -0.587373
F8    F     F_    0.731990 0.608873 0.974935 -0.587373
F9    F     F_    0.129316 0.853180 0.028624 -0.587845
F10   F     F_    0.870684 0.146821 0.971376 -0.587844
F11   F     F_    0.877394 0.840462 0.967177 -0.587464
F12   F     F_    0.122606 0.159538 0.032822 -0.587464
F13   F     F_    0.629317 0.353181 0.028624 -0.587844
F14   F     F_    0.370684 0.646820 0.971376 -0.587845
F15   F     F_    0.377394 0.340462 0.967177 -0.587463
F16   F     F_    0.622606 0.659538 0.032822 -0.587464
C157  C     C_2   0.091130 0.814967 0.776369 0.506273
H29   H     H_    0.096564 0.847606 0.720052 0.088705
O49   O     O_2   0.051254 0.778118 0.811644 -0.514851
C158  C     C_2   0.908870 0.185033 0.223631 0.506274
H30   H     H_    0.903436 0.152393 0.279947 0.088704
O50   O     O_2   0.948745 0.221883 0.188357 -0.514851
C159  C     C_2   0.861376 0.899431 0.260414 0.522306
H31   H     H_    0.836597 0.947053 0.282440 0.021007
O51   O     O_2   0.895634 0.889060 0.285020 -0.494310
C160  C     C_2   0.138624 0.100569 0.739586 0.522306
H32   H     H_    0.163403 0.052947 0.717560 0.021007
O52   O     O_2   0.104366 0.110940 0.714980 -0.494310
C161  C     C_2   0.591128 0.314964 0.776371 0.506257
H33   H     H_    0.596564 0.347596 0.720049 0.088711
O53   O     O_2   0.551250 0.278122 0.811656 -0.514848
C162  C     C_2   0.408870 0.685033 0.223631 0.506272
H34   H     H_    0.403436 0.652394 0.279948 0.088705
O54   O     O_2   0.448746 0.721882 0.188356 -0.514851
C163  C     C_2   0.361376 0.399431 0.260414 0.522306
H35   H     H_    0.336597 0.447053 0.282440 0.021007
O55   O     O_2   0.395634 0.389060 0.285020 -0.494310
C164  C     C_2   0.638624 0.600569 0.739586 0.522307
H36   H     H_    0.663403 0.552947 0.717560 0.021008
O56   O     O_2   0.604366 0.610940 0.714980 -0.494310
F17   F     F_    0.258394 0.733970 0.773644 -0.620607
F18   F     F_    0.741606 0.266031 0.226356 -0.620607
F19   F     F_    0.749755 0.718919 0.219017 -0.623542
F20   F     F_    0.250245 0.281081 0.780983 -0.623542
F21   F     F_    0.758395 0.233971 0.773643 -0.620607
F22   F     F_    0.241606 0.766030 0.226356 -0.620607
F23   F     F_    0.249755 0.218919 0.219017 -0.623542
F24   F     F_    0.750245 0.781081 0.780983 -0.623542

loop_
_geom_bond_atom_site_label_1
_geom_bond_atom_site_label_2
_ccdc_geom_bond_type
C42   F1    S    
Cu9   O37   S    
Cu5   O21   S    
C34   C42   A    
C16   C113  A    
C110  C118  A    
C89   O2    A    
C27   C99   S    
C164  H36   S    
C13   C139  A    
C117  C119  A    
C38   F5    S    
C3    O19   A    
C30   C38   A    
C6    O9    A    
Cu8   O8    S    
C109  C127  A    
C5    O21   A    
C111  C125  A    
C92   O3    A    
C34   H26   S    
C143  C151  A    
C107  O37   A    
C126  C136  A    
C19   C141  A    
C92   C147  S    
C102  O36   A    
Cu10  O47   S    
C105  O39   A    
C107  O47   A    
C130  C134  A    
Cu7   O31   S    
C73   C81   A    
C14   H14   S    
Cu11  O33   S    
Cu12  O43   S    
C108  O38   A    
C115  C123  A    
C84   C100  A    
Cu4   Cu7   S    
Cu1   O9    S    
C127  C136  A    
C128  C135  A    
C57   C65   A    
C112  C120  A    
C40   F7    S    
C83   F23   S    
Cu6   O14   S    
C27   C35   A    
C65   C161  S    
C87   O27   A    
C24   C32   A    
C5    C70   S    
C146  C154  A    
Cu7   O7    S    
C64   C160  S    
C85   O6    A    
C129  C133  A    
Cu4   O28   S    
C63   C71   A    
C2    O18   A    
C160  O52   D    
C36   C44   A    
Cu9   O45   S    
C148  C153  A    
C158  O50   D    
C87   O8    A    
C137  C145  A    
C104  O44   A    
C8    C71   S    
C48   C96   A    
C90   O30   A    
C16   C138  A    
C77   F17   S    
C16   H16   S    
Cu3   O11   S    
C60   C68   A    
C24   C96   S    
C149  C155  A    
C61   C157  S    
C156  H12   S    
C21   C93   S    
Cu8   O16   S    
Cu2   O2    S    
C23   C95   S    
C163  O55   D    
C118  C120  A    
C121  C123  A    
C49   C97   A    
C21   C42   A    
C116  C130  A    
C125  C127  A    
C24   C43   A    
C10   C138  A    
Cu1   Cu6   S    
C37   F6    S    
C110  C128  A    
C15   C137  A    
C9    C133  A    
C6    C69   S    
C4    O20   A    
C41   F2    S    
C69   C77   A    
C45   C93   A    
C71   C79   A    
C62   C70   A    
C106  O40   A    
Cu6   O6    S    
C1    C74   S    
C78   C94   A    
C119  H6    S    
C157  H29   S    
C9    C140  A    
Cu4   O12   S    
C66   C74   A    
C49   C57   A    
C111  C119  A    
C52   C60   A    
C44   F3    S    
C59   C67   A    
C53   C61   A    
C39   F8    S    
C158  H30   S    
C55   C63   A    
C88   O28   A    
C35   C43   A    
Cu1   O1    S    
C80   F20   S    
C45   C53   A    
Cu1   O25   S    
C22   C94   S    
Cu6   O30   S    
C68   C164  S    
C79   F19   S    
C153  H9    S    
C50   C98   A    
Cu3   O19   S    
C101  O41   A    
C101  O35   A    
C7    C72   S    
Cu12  O42   S    
C50   F14   S    
C52   C100  A    
C8    O11   A    
C36   H28   S    
C25   C38   A    
C20   H20   S    
C84   F24   S    
C27   C40   A    
C11   C141  A    
C28   C36   A    
C2    C73   S    
C91   O4    A    
C25   C97   S    
C14   C140  A    
C13   H13   S    
C87   C152  S    
C88   C151  S    
C67   C75   A    
C122  C124  A    
C60   C106  S    
C2    O13   A    
C126  C128  A    
C22   C30   A    
C159  H31   S    
Cu2   O18   S    
C164  O56   D    
C12   C143  A    
C56   C102  S    
C144  C152  A    
C125  C135  A    
C138  C146  A    
C161  O53   D    
C30   H22   S    
C123  H2    S    
Cu11  O41   S    
C121  H4    S    
C51   C59   A    
C162  H34   S    
C122  H3    S    
C12   C136  A    
Cu3   Cu8   S    
C85   O25   A    
C78   F18   S    
Cu7   O23   S    
Cu10  O38   S    
Cu6   O22   S    
C82   C98   A    
C66   C162  S    
C131  C134  A    
C76   C84   A    
C109  C117  A    
Cu11  O36   S    
C90   O1    A    
C59   C105  S    
C4    O15   A    
C54   C104  S    
C74   C82   A    
C90   C145  S    
C22   C41   A    
C14   C115  A    
Cu4   O20   S    
C31   H23   S    
C3    O16   A    
C32   H24   S    
C105  O45   A    
C85   C150  S    
C4    C75   S    
Cu2   Cu5   S    
C19   H19   S    
C5    O10   A    
C6    O22   A    
C9    C137  A    
C124  H1    S    
C17   H17   S    
C15   H15   S    
C163  H35   S    
C112  C126  A    
C35   H27   S    
Cu3   O3    S    
C33   H25   S    
C83   C99   A    
C106  O46   A    
C155  H11   S    
C50   C58   A    
C62   C158  S    
Cu11  Cu12  S    
C54   C62   A    
C28   C39   A    
Cu5   O13   S    
C23   C44   A    
C72   C80   A    
Cu2   O10   S    
C130  C132  A    
C47   F11   S    
C11   C135  A    
C104  O34   A    
C152  C155  A    
C46   C54   A    
C151  C156  A    
C18   C111  A    
C86   O5    A    
C154  H10   S    
C1    O17   A    
Cu10  O46   S    
C68   C76   A    
C10   C139  A    
C46   C94   A    
C51   F15   S    
C116  C124  A    
C91   O31   A    
C89   O29   A    
C26   C37   A    
C17   C143  A    
C33   C41   A    
C142  C150  A    
C18   C144  A    
Cu12  O35   S    
C159  O51   D    
C75   C83   A    
C21   C29   A    
C53   C103  S    
C77   C93   A    
C12   C142  A    
C58   C108  S    
C13   C116  A    
C92   O32   A    
Cu9   O40   S    
C103  O43   A    
C29   C37   A    
C160  H32   S    
C46   F10   S    
C23   C31   A    
C52   F16   S    
Cu9   Cu10  S    
C70   C78   A    
C140  C148  A    
C141  C149  A    
Cu4   O4    S    
C79   C95   A    
C139  C147  A    
C81   C97   A    
Cu5   O5    S    
C65   C73   A    
C147  C154  A    
C82   F22   S    
C26   C34   A    
C132  C133  A    
C80   C96   A    
C11   C144  A    
C145  C153  A    
C28   C100  S    
C32   C40   A    
Cu2   O26   S    
C150  C156  A    
C49   F13   S    
C91   C148  S    
C58   C66   A    
Cu5   O29   S    
C51   C99   A    
C89   C146  S    
C102  O42   A    
C20   C142  A    
C86   C149  S    
C157  O49   D    
Cu7   O15   S    
C18   H18   S    
C8    O24   A    
C43   F4    S    
C108  O48   A    
C56   C64   A    
C161  H33   S    
C15   C114  A    
C113  C121  A    
Cu8   O32   S    
Cu9   O48   S    
C3    C76   S    
C26   C98   S    
C117  H8    S    
Cu11  O44   S    
C57   C107  S    
C162  O54   D    
C118  H7    S    
C48   F12   S    
C17   C112  A    
C67   C163  S    
C47   C55   A    
C115  C129  A    
C19   C110  A    
C61   C69   A    
Cu10  O39   S    
C48   C56   A    
C113  C131  A    
C1    O14   A    
C114  C132  A    
C10   C134  A    
C7    O12   A    
C103  O33   A    
C55   C101  S    
Cu1   O17   S    
C7    O23   A    
Cu8   O24   S    
C81   F21   S    
Cu3   O27   S    
C31   C39   A    
C29   H21   S    
C64   C72   A    
C88   O7    A    
Cu12  O34   S    
C20   C109  A    
C114  C122  A    
C120  H5    S    
C25   C33   A    
C47   C95   A    
C86   O26   A    
C63   C159  S    
C45   F9    S    
C129  C131  A    
