data_mof_unit_60818.cif
_audit_creation_date              2012-12-10T21:20:52-0500
_audit_creation_method            fapswitch 2.2
_symmetry_space_group_name_H-M    P1
_symmetry_Int_Tables_number       1
_space_group_crystal_system       triclinic
_cell_length_a                    17.528301
_cell_length_b                    16.868703
_cell_length_c                    19.229089
_cell_angle_alpha                 89.823582
_cell_angle_beta                  92.840207
_cell_angle_gamma                 90.123919
_cell_volume                      5678.62872681

loop_
_atom_site_label
_atom_site_type_symbol
_atom_type_description
_atom_site_fract_x
_atom_site_fract_y
_atom_site_fract_z
_atom_type_partial_charge
C1    C     C_R   0.353173 0.499883 0.499571 0.889361
C2    C     C_R   0.646706 0.500077 0.499472 0.879760
C3    C     C_R   0.728834 0.500072 0.492772 -0.021318
C4    C     C_R   0.270169 0.499528 0.493940 -0.023584
C5    C     C_R   0.884318 0.497925 0.473547 0.159561
C6    C     C_R   0.112506 0.499662 0.474722 0.158632
C7    C     C_1   0.964325 0.498553 0.469540 -0.053686
C8    C     C_1   0.032069 0.499143 0.469927 -0.052126
C9    C     C_R   0.442545 0.833949 0.464814 -0.250727
C10   C     C_R   0.546725 0.166231 0.547144 -0.242145
C11   C     C_R   0.553888 0.833527 0.540957 -0.233270
C12   C     C_R   0.449878 0.166313 0.455799 -0.246780
C13   C     C_R   0.444818 0.750192 0.461995 0.290053
C14   C     C_R   0.548469 0.250070 0.545404 0.338747
C15   C     C_R   0.555214 0.749468 0.538598 0.319748
C16   C     C_R   0.452592 0.250383 0.453628 0.289517
C17   C     C_R   0.497262 0.876484 0.504128 0.073614
C18   C     C_R   0.496857 0.123547 0.502864 0.072510
C19   C     C_1   0.496800 0.963712 0.504308 -0.009853
C20   C     C_1   0.496515 0.036317 0.503766 -0.008384
C21   C     C_R   0.499283 0.499955 0.365824 0.943296
C22   C     C_R   0.495393 0.499925 0.634718 0.901440
C23   C     C_R   0.427614 0.516392 0.253522 0.098194
C24   C     C_R   0.475373 0.426904 0.746830 0.150824
C25   C     C_R   0.484907 0.571689 0.748945 0.147735
C26   C     C_R   0.561948 0.477919 0.255894 0.112911
C27   C     C_R   0.425480 0.516020 0.181338 -0.152015
C28   C     C_R   0.476829 0.426403 0.819058 -0.178500
C29   C     C_R   0.483729 0.569202 0.821013 -0.175241
C30   C     C_R   0.558446 0.475725 0.183661 -0.164889
C31   C     C_R   0.490652 0.495686 0.146472 0.005576
C32   C     C_R   0.482123 0.497033 0.855957 0.005037
C33   C     C_R   0.496584 0.499264 0.290876 -0.127347
C34   C     C_R   0.485466 0.499603 0.710501 -0.168099
C35   C     C_R   0.483165 0.495680 0.931227 0.310993
C36   C     C_R   0.487682 0.495207 0.071165 0.306617
C37   C     C_R   0.843289 0.567332 0.459696 -0.143674
C38   C     C_R   0.151750 0.427978 0.473480 -0.142646
C39   C     C_R   0.150987 0.571205 0.486134 -0.144731
C40   C     C_R   0.848520 0.429463 0.496518 -0.143789
C41   C     C_R   0.765399 0.568430 0.469120 -0.177744
C42   C     C_R   0.230631 0.427784 0.483156 -0.173634
C43   C     C_R   0.229888 0.571219 0.495838 -0.169422
C44   C     C_R   0.770646 0.430396 0.505982 -0.175542
H1    H     H_    0.372386 0.529330 0.152452 0.178266
H2    H     H_    0.470726 0.370774 0.846606 0.178029
H3    H     H_    0.484733 0.624126 0.850144 0.179599
H4    H     H_    0.608925 0.459832 0.156570 0.176648
H5    H     H_    0.871547 0.620480 0.442222 0.139591
H6    H     H_    0.121370 0.372427 0.465697 0.139985
H7    H     H_    0.119990 0.626606 0.488255 0.138792
H8    H     H_    0.880910 0.375904 0.507862 0.138030
H9    H     H_    0.733801 0.622103 0.456761 0.155465
H10   H     H_    0.260433 0.371717 0.481774 0.159522
H11   H     H_    0.259152 0.627057 0.504872 0.161934
H12   H     H_    0.743333 0.376964 0.523747 0.154174
H13   H     H_    0.398571 0.866048 0.434770 0.158697
H14   H     H_    0.585307 0.134211 0.582969 0.159664
H15   H     H_    0.598061 0.865613 0.570684 0.154204
H16   H     H_    0.412582 0.133946 0.419229 0.153959
N1    N     N_R   0.525985 0.439348 0.036458 -0.161860
N2    N     N_R   0.445040 0.551632 0.965952 -0.159567
N3    N     N_R   0.523414 0.439325 0.967376 -0.162116
N4    N     N_R   0.446898 0.551112 0.034983 -0.161071
N5    N     N_R   0.500000 0.707230 0.500000 -0.088115
N6    N     N_R   0.500000 0.292770 0.500000 -0.084946
O1    O     O_R   0.389110 0.566570 0.500000 -0.620400
O2    O     O_R   0.610890 0.433430 0.500000 -0.617939
O3    O     O_R   0.610890 0.566570 0.500000 -0.628432
O4    O     O_R   0.389110 0.433430 0.500000 -0.622419
O5    O     O_R   0.499990 0.566560 0.398140 -0.615278
O6    O     O_R   0.500010 0.433440 0.601860 -0.600259
O7    O     O_R   0.500010 0.566560 0.601860 -0.598392
O8    O     O_R   0.499990 0.433440 0.398140 -0.603856
Zn1   Zn    Zn3+2 0.500000 0.588860 0.500000 0.969103
Zn2   Zn    Zn3+2 0.500000 0.411140 0.500000 0.977050
I1    I     I_    0.323139 0.535824 0.301971 -0.415532
I2    I     I_    0.445378 0.315066 0.701655 -0.359101
I3    I     I_    0.478224 0.689295 0.708046 -0.360021
I4    I     I_    0.667363 0.448565 0.308606 -0.354108
C45   C     C_3   0.385590 0.712382 0.413941 -0.802854
H17   H     H_    0.385439 0.741606 0.362076 0.223682
H18   H     H_    0.396149 0.649776 0.404901 0.297450
H19   H     H_    0.328312 0.719595 0.435142 0.218880
C46   C     C_3   0.608305 0.287888 0.593302 -0.830859
H20   H     H_    0.603254 0.264935 0.647053 0.237770
H21   H     H_    0.665754 0.271895 0.576035 0.202553
H22   H     H_    0.605028 0.352337 0.596248 0.282531
C47   C     C_3   0.621775 0.709445 0.576234 -0.795947
H23   H     H_    0.649189 0.748909 0.616359 0.212095
H24   H     H_    0.604533 0.655582 0.603859 0.279898
H25   H     H_    0.665591 0.695328 0.538687 0.220496
C48   C     C_3   0.406824 0.290161 0.395209 -0.796074
H26   H     H_    0.366470 0.248111 0.368350 0.201029
H27   H     H_    0.371615 0.338790 0.413715 0.259123
H28   H     H_    0.445540 0.311469 0.355344 0.255947

loop_
_geom_bond_atom_site_label_1
_geom_bond_atom_site_label_2
_ccdc_geom_bond_type
C39   H7    S    
C48   H26   S    
C5    C37   A    
C19   C20   T    
O6    Zn2   S    
C45   H17   S    
C7    C8    T    
C13   N5    A    
C46   H20   S    
C28   H2    S    
C16   C48   S    
O8    Zn2   S    
C21   O5    A    
C30   H4    S    
C10   H14   S    
C38   C42   A    
C29   C32   A    
C2    O2    A    
C30   C31   A    
C21   C33   S    
C15   N5    A    
C13   C45   S    
N1    N3    A    
C9    C13   A    
N2    N4    A    
C17   C19   S    
C11   C15   A    
C11   C17   A    
C12   C16   A    
C23   C33   A    
C6    C38   A    
C23   C27   A    
C47   H24   S    
C2    O3    A    
C18   C20   S    
C25   C34   A    
C27   H1    S    
C48   H27   S    
O7    Zn1   S    
C11   H15   S    
C22   O6    A    
C45   H18   S    
C46   H21   S    
C25   C29   A    
C22   C34   S    
C3    C44   A    
C27   C31   A    
C32   C35   S    
C28   C32   A    
C10   C14   A    
C5    C7    S    
C6    C8    S    
C40   H8    S    
C21   O8    A    
C24   C34   A    
C15   C47   S    
C37   H5    S    
C44   H12   S    
C26   C33   A    
N6    Zn2   S    
C14   N6    A    
C23   I1    S    
C47   H25   S    
C41   H9    S    
C9    C17   A    
C29   H3    S    
C26   C30   A    
C48   H28   S    
O4    Zn2   S    
O1    Zn1   S    
C36   N1    A    
C24   I2    S    
C45   H19   S    
C46   H22   S    
C43   H11   S    
C6    C39   A    
C3    C41   A    
C25   I3    S    
C24   C28   A    
C14   C46   S    
C39   C43   A    
C38   H6    S    
C4    C43   A    
O2    Zn2   S    
C1    O4    A    
N5    Zn1   S    
C1    C4    S    
C2    C3    S    
C42   H10   S    
O5    Zn1   S    
C4    C42   A    
C10   C18   A    
C1    O1    A    
O3    Zn1   S    
C35   N2    A    
C9    H13   S    
C37   C41   A    
C26   I4    S    
C12   H16   S    
C40   C44   A    
C16   N6    A    
C5    C40   A    
C12   C18   A    
C31   C36   S    
C35   N3    A    
C22   O7    A    
C47   H23   S    
C36   N4    A    
