data_mof_unit_56964.cif
_audit_creation_date              2012-12-10T17:45:32-0500
_audit_creation_method            fapswitch 2.2
_symmetry_space_group_name_H-M    P1
_symmetry_Int_Tables_number       1
_space_group_crystal_system       triclinic
_cell_length_a                    11.543791
_cell_length_b                    10.691562
_cell_length_c                    9.97786
_cell_angle_alpha                 89.764589
_cell_angle_beta                  90.580767
_cell_angle_gamma                 93.564595
_cell_volume                      1229.02592602

loop_
_atom_site_label
_atom_site_type_symbol
_atom_type_description
_atom_site_fract_x
_atom_site_fract_y
_atom_site_fract_z
_atom_type_partial_charge
C1    C     C_R   0.505721 0.259906 0.501660 0.863402
C2    C     C_R   0.475423 0.041676 0.874133 0.296401
C3    C     C_R   0.408159 0.927841 0.860560 0.478758
C4    C     C_R   0.391388 0.874367 0.733352 0.383635
C5    C     C_R   0.446545 0.932279 0.619568 -0.130152
C6    C     C_R   0.489515 0.056762 0.628647 0.024111
C7    C     C_R   0.506781 0.125167 0.506621 -0.065080
C8    C     C_R   0.506074 0.063180 0.383666 -0.199663
C9    C     C_R   0.491053 0.935499 0.380320 -0.156097
C10   C     C_R   0.467050 0.869234 0.498678 -0.102472
C11   C     C_R   0.326458 0.341009 0.127916 0.399367
C12   C     C_R   0.282164 0.499396 0.499485 0.895515
C13   C     C_R   0.237629 0.280615 0.047685 0.394335
C14   C     C_R   0.249151 0.278324 0.911129 -0.216564
C15   C     C_R   0.340636 0.344524 0.851652 -0.190946
C16   C     C_R   0.419730 0.423351 0.924855 0.019907
C17   C     C_R   0.416639 0.423095 0.069032 -0.036887
C18   C     C_R   0.577191 0.574274 0.074693 0.487891
C19   C     C_R   0.577154 0.575145 0.930959 0.367904
C20   C     C_R   0.487882 0.738109 0.499566 0.865752
C21   C     C_R   0.717835 0.500600 0.500544 0.896184
C22   C     C_1   0.161604 0.499320 0.498671 -0.160534
C23   C     C_1   0.059381 0.499460 0.499350 0.023577
C24   C     C_1   0.940640 0.499847 0.500767 0.029128
C25   C     C_1   0.838415 0.500243 0.501410 -0.142449
C26   C     C_R   0.514818 0.105514 0.758128 -0.335736
N1    N     N_R   0.498930 0.498800 0.142780 -0.131474
N2    N     N_R   0.498900 0.498720 0.857170 -0.158554
O1    O     O_R   0.500000 0.316780 0.614690 -0.663525
O2    O     O_R   0.499990 0.316750 0.385360 -0.559058
O3    O     O_R   0.334450 0.500030 0.614670 -0.609768
O4    O     O_R   0.334440 0.500000 0.385330 -0.545555
O5    O     O_R   0.500010 0.683250 0.614640 -0.608312
O6    O     O_R   0.500000 0.683220 0.385310 -0.582065
O7    O     O_R   0.665560 0.500000 0.614670 -0.633149
O8    O     O_R   0.665550 0.499970 0.385330 -0.558040
Zn1   Zn    Zn3+2 0.500010 0.500020 0.653130 0.972324
Zn2   Zn    Zn3+2 0.499990 0.499980 0.346870 1.048147
H1    H     H_    0.520428 0.112815 0.289814 0.208193
H2    H     H_    0.186182 0.224497 0.849927 0.190421
H3    H     H_    0.345231 0.332124 0.746729 0.229734
O9    O     O_3   0.658216 0.654972 0.869047 -0.781528
H4    H     H_    0.642805 0.654250 0.772502 0.396736
H5    H     H_    0.570068 0.189740 0.771787 0.203067
O10   O     O_3   0.498945 0.090144 0.000384 -0.793682
H6    H     H_    0.544672 0.171376 0.991985 0.339461
O11   O     O_3   0.358021 0.865207 0.968951 -0.705729
H7    H     H_    0.374405 0.914096 0.051784 0.367605
O12   O     O_3   0.315251 0.769883 0.722975 -0.675394
H8    H     H_    0.287578 0.762490 0.628816 0.313886
H9    H     H_    0.502035 0.888869 0.285468 0.200715
O13   O     O_3   0.654362 0.650012 0.149444 -0.719686
H10   H     H_    0.706429 0.701082 0.089757 0.373606
O14   O     O_3   0.326804 0.310964 0.260377 -0.731107
H11   H     H_    0.298074 0.222222 0.272575 0.326663
O15   O     O_3   0.140500 0.217952 0.101134 -0.747020
H12   H     H_    0.125499 0.253895 0.190238 0.343801

loop_
_geom_bond_atom_site_label_1
_geom_bond_atom_site_label_2
_ccdc_geom_bond_type
C16   N2    A    
C23   C24   S    
C6    C7    A    
C21   O7    A    
C8    H1    S    
O4    Zn2   S    
C9    C10   A    
O11   H7    S    
C9    H9    S    
C19   O9    S    
C4    O12   S    
C13   O15   S    
C20   O6    A    
O8    Zn2   S    
C2    C3    A    
C3    C4    A    
C18   O13   S    
C7    C8    A    
C2    C26   A    
C21   O8    A    
O6    Zn2   S    
C13   C14   A    
O13   H10   S    
C19   N2    A    
C11   C13   A    
C15   H3    S    
C1    O1    A    
C6    C26   A    
C11   O14   S    
C10   C20   S    
N2    Zn1   S    
C20   O5    A    
C3    O11   S    
C1    O2    A    
O7    Zn1   S    
C18   C19   A    
C22   C23   T    
C12   O3    A    
C5    C6    A    
O5    Zn1   S    
O10   H6    S    
C2    O10   S    
N1    Zn2   S    
C26   H5    S    
C15   C16   A    
C17   N1    A    
C12   C22   S    
C5    C10   A    
C24   C25   T    
O2    Zn2   S    
O12   H8    S    
O9    H4    S    
O1    Zn1   S    
O15   H12   S    
C21   C25   S    
O14   H11   S    
C16   C17   A    
C1    C7    S    
C4    C5    A    
C14   H2    S    
C12   O4    A    
C18   N1    A    
C14   C15   A    
O3    Zn1   S    
C8    C9    A    
C11   C17   A    
