data_mof_unit_44919.cif
_audit_creation_date              2012-12-11T17:05:32-0500
_audit_creation_method            fapswitch 2.2
_symmetry_space_group_name_H-M    P1
_symmetry_Int_Tables_number       1
_space_group_crystal_system       triclinic
_cell_length_a                    6.953338
_cell_length_b                    14.504998
_cell_length_c                    16.029824
_cell_angle_alpha                 90.27957
_cell_angle_beta                  89.9018
_cell_angle_gamma                 90.006439
_cell_volume                      1616.71682462

loop_
_atom_site_label
_atom_site_type_symbol
_atom_type_description
_atom_site_fract_x
_atom_site_fract_y
_atom_site_fract_z
_atom_type_partial_charge
O1    O     O_R   0.494380 0.415640 0.412830 -0.534452
O2    O     O_R   0.823960 0.405540 0.586560 -0.542658
O3    O     O_R   0.994270 0.584360 0.587170 -0.538552
C1    C     C_R   0.655117 0.383406 0.615153 0.704749
O4    O     O_R   0.824090 0.404620 0.413450 -0.541628
O5    O     O_R   0.994400 0.583430 0.412820 -0.539287
C2    C     C_R   0.655432 0.382321 0.384583 0.703826
O6    O     O_R   0.494250 0.416570 0.587180 -0.535579
O7    O     O_3   0.660800 0.558670 0.500000 -0.383118
V1    V     V_3+5 0.935650 0.489120 0.500000 1.381140
O8    O     O_R   0.324110 0.594460 0.413440 -0.552957
C3    C     C_R   0.154897 0.618155 0.385955 0.688162
O9    O     O_R   0.323980 0.595380 0.586550 -0.550170
C4    C     C_R   0.155377 0.615947 0.616787 0.701477
V2    V     V_3+5 0.435660 0.510880 0.500000 1.368585
O10   O     O_3   0.160640 0.441330 0.500000 -0.366280
C5    C     C_3   0.994543 0.654735 0.754727 -0.373671
H1    H     H_    0.849725 0.649037 0.725646 0.107847
H2    H     H_    0.032262 0.585197 0.778744 0.183888
C6    C     C_3   0.984551 0.725221 0.828016 0.440613
H3    H     H_    0.834167 0.750870 0.833538 0.046030
H4    H     H_    0.947134 0.775918 0.621487 0.107424
H5    H     H_    0.914763 0.876466 0.731182 0.041396
C7    C     C_3   0.085964 0.781262 0.655215 -0.377034
C8    C     C_3   0.341651 0.694810 0.733337 -0.339836
C9    C     C_3   0.144893 0.685051 0.688267 -0.022607
H6    H     H_    0.455753 0.714649 0.688360 0.147442
H7    H     H_    0.384369 0.627304 0.760342 0.156887
C10   C     C_3   0.123191 0.807705 0.812372 -0.084575
C11   C     C_3   0.066453 0.852180 0.727815 0.424674
C12   C     C_3   0.330974 0.768263 0.803421 -0.268800
H8    H     H_    0.377919 0.737081 0.863316 0.187707
H9    H     H_    0.433978 0.824752 0.788945 0.173410
H10   H     H_    0.194777 0.805593 0.609408 0.186594
C13   C     C_R   0.251146 0.825860 0.247397 -0.053453
C14   C     C_R   0.117207 0.815515 0.183167 -0.065695
C15   C     C_R   0.979356 0.745160 0.192672 -0.080374
H11   H     H_    0.869794 0.735081 0.145696 0.200072
C16   C     C_R   0.990325 0.682683 0.259820 -0.158612
H12   H     H_    0.887177 0.626808 0.262555 0.127504
C17   C     C_R   0.139699 0.688745 0.319492 -0.115616
C18   C     C_R   0.259532 0.766796 0.315209 -0.020391
C19   C     C_3   0.472556 0.781344 0.324357 0.180596
C20   C     C_3   0.462213 0.841493 0.246499 0.471922
H13   H     H_    0.562611 0.718289 0.316368 0.096834
H14   H     H_    0.502776 0.915027 0.255618 0.065043
C21   C     C_R   0.493395 0.316520 0.741572 0.105656
C22   C     C_R   0.647390 0.317252 0.685126 -0.113284
C23   C     C_R   0.798786 0.254750 0.699273 -0.168401
H15   H     H_    0.920958 0.252892 0.657567 0.138769
C24   C     C_R   0.787651 0.189454 0.763822 -0.163301
H16   H     H_    0.902153 0.139548 0.770179 0.147219
C25   C     C_R   0.624483 0.184550 0.815898 -0.100526
C26   C     C_R   0.481952 0.251642 0.805216 0.104168
C27   C     C_3   0.270779 0.239908 0.793614 -0.403618
C28   C     C_3   0.283159 0.311078 0.724600 -0.398183
H17   H     H_    0.187283 0.264049 0.848730 0.174423
H18   H     H_    0.233847 0.169728 0.770584 0.195697
H19   H     H_    0.207742 0.376589 0.739986 0.168988
H20   H     H_    0.252498 0.282441 0.661569 0.178113
C29   C     C_R   0.491779 0.250626 0.309959 0.113032
C30   C     C_R   0.647608 0.311302 0.317742 -0.113277
C31   C     C_R   0.799744 0.300945 0.260316 -0.169223
H21   H     H_    0.922695 0.346304 0.263654 0.131978
C32   C     C_R   0.788051 0.236742 0.194153 -0.171287
H22   H     H_    0.903434 0.233777 0.148933 0.128673
C33   C     C_R   0.623271 0.181441 0.183100 -0.108960
C34   C     C_R   0.479859 0.187367 0.244329 0.105904
C35   C     C_3   0.269421 0.202805 0.234528 -0.421170
C36   C     C_3   0.282310 0.271353 0.306287 -0.391362
H23   H     H_    0.184027 0.140328 0.249864 0.174543
H24   H     H_    0.234639 0.235525 0.173859 0.172444
H25   H     H_    0.204966 0.248356 0.363255 0.178571
H26   H     H_    0.254221 0.343750 0.287410 0.170059
O11   O     O_R   0.771490 0.080820 0.910070 -0.548427
O12   O     O_R   0.441590 0.092730 0.083780 -0.547447
O13   O     O_R   0.271350 0.913900 0.084390 -0.517138
C37   C     C_R   0.610513 0.115034 0.112639 0.685227
O14   O     O_R   0.441780 0.091820 0.910670 -0.538960
O15   O     O_R   0.271540 0.912980 0.910040 -0.531978
C38   C     C_R   0.610870 0.113781 0.881912 0.694870
O16   O     O_R   0.771300 0.081740 0.084420 -0.544496
O17   O     O_3   0.604960 0.938700 0.997240 -0.347786
V3    V     V_3+5 0.330090 0.008230 0.997220 1.478886
O18   O     O_R   0.941820 0.901930 0.910640 -0.555964
C39   C     C_R   0.111187 0.878608 0.882563 0.771516
O19   O     O_R   0.941630 0.902840 0.083750 -0.527687
C40   C     C_R   0.110270 0.880583 0.112292 0.733735
V4    V     V_3+5 0.830090 0.986410 0.997190 1.487255
O20   O     O_3   0.105080 0.055990 0.997200 -0.387176
F1    F     F_    0.181305 0.928298 0.711869 -0.698338
O21   O     O_3   0.517458 0.837990 0.393679 -0.567668
C41   C     C_3   0.546544 0.784308 0.465408 0.117757
H27   H     H_    0.666230 0.734441 0.455682 0.137491
H28   H     H_    0.412320 0.747448 0.482686 0.129192
C42   C     C_3   0.599975 0.847991 0.537351 -0.690561
H29   H     H_    0.483976 0.899367 0.548048 0.249278
H30   H     H_    0.619610 0.807392 0.595031 0.156233
H31   H     H_    0.736124 0.884755 0.523007 0.226778
F2    F     F_    0.547178 0.800177 0.177820 -0.699639
F3    F     F_    0.030531 0.681944 0.902310 -0.679077

loop_
_geom_bond_atom_site_label_1
_geom_bond_atom_site_label_2
_ccdc_geom_bond_type
C29   C36   S    
C8    C12   S    
O19   C40   A    
C31   C32   A    
C41   H27   S    
C17   C18   A    
C13   C14   A    
O15   V3    S    
O12   V3    S    
C16   C17   A    
O18   C39   A    
C14   C40   S    
C8    H7    S    
C15   H11   S    
O16   V4    S    
C5    C9    S    
C14   C15   A    
O12   C37   A    
O5    C3    A    
O14   V3    S    
V2    O10   S    
C42   H31   S    
C5    C6    S    
C25   C38   S    
C35   H23   S    
C13   C18   A    
O15   C39   A    
O8    V2    S    
C30   C31   A    
C21   C22   A    
O13   C40   A    
C34   C35   S    
C32   C33   A    
C42   H30   S    
C36   H26   S    
C12   H9    S    
O1    V2    S    
O7    V1    S    
C1    O6    A    
C41   H28   S    
O9    C4    A    
C35   C36   S    
C33   C37   S    
V3    O20   S    
C36   H25   S    
C20   H14   S    
C6    C10   S    
O17   V4    S    
C33   C34   A    
H5    C11   S    
C16   H12   S    
O4    C2    A    
O18   V4    S    
O11   C38   A    
C6    F3    S    
O13   V3    S    
C23   C24   A    
C8    C9    S    
C25   C26   A    
C7    H10   S    
C24   H16   S    
C24   C25   A    
C35   H24   S    
O2    C1    A    
C19   C20   S    
C2    C30   S    
C10   C11   S    
C37   O16   A    
O17   V3    S    
C42   H29   S    
C27   C28   S    
C5    H1    S    
C27   H17   S    
C4    C9    S    
C13   C20   S    
C19   H13   S    
C10   C39   S    
O3    C4    A    
C21   C26   A    
C22   C23   A    
C32   H22   S    
C41   C42   S    
O19   V4    S    
H4    C7    S    
C8    H6    S    
C18   C19   S    
O2    V1    S    
C3    C17   S    
O14   C38   A    
C1    C22   S    
C26   C27   S    
O1    C2    A    
C12   H8    S    
C7    C9    S    
C11   F1    S    
O5    V1    S    
O8    C3    A    
O6    V2    S    
C19   O21   S    
C28   H19   S    
O9    V2    S    
O7    V2    S    
O4    V1    S    
C15   C16   A    
O3    V1    S    
V1    O10   S    
C20   F2    S    
C29   C34   A    
O21   C41   S    
C5    H2    S    
C29   C30   A    
C7    C11   S    
O11   V4    S    
C31   H21   S    
C28   H20   S    
C6    H3    S    
C10   C12   S    
C23   H15   S    
C27   H18   S    
V4    O20   S    
C21   C28   S    
