data_mof_unit_20737.cif
_audit_creation_date              2012-12-11T15:31:52-0500
_audit_creation_method            fapswitch 2.2
_symmetry_space_group_name_H-M    P1
_symmetry_Int_Tables_number       1
_space_group_crystal_system       triclinic
_cell_length_a                    13.59828
_cell_length_b                    13.541519
_cell_length_c                    27.610348
_cell_angle_alpha                 90.438344
_cell_angle_beta                  89.874883
_cell_angle_gamma                 119.981024
_cell_volume                      4403.75753243

loop_
_atom_site_label
_atom_site_type_symbol
_atom_type_description
_atom_site_fract_x
_atom_site_fract_y
_atom_site_fract_z
_atom_type_partial_charge
C1    C     C_R   0.619723 0.898115 0.431386 0.550278
C2    C     C_R   0.636438 0.240251 0.209747 -0.170867
C3    C     C_R   0.626518 0.223736 0.259688 -0.173798
C4    C     C_R   0.674264 0.317318 0.291529 0.008119
C5    C     C_R   0.693778 0.350643 0.191128 0.010392
C6    C     C_1   0.696532 0.367171 0.139622 0.008232
C7    C     C_1   0.655591 0.296057 0.342651 -0.012975
C8    C     C_1   0.701718 0.390937 0.097428 0.024979
C9    C     C_1   0.229925 0.861052 0.383281 -0.002803
C10   C     C_R   0.096458 0.864185 0.270593 0.296999
C11   C     C_R   0.082237 0.859274 0.219638 -0.057550
C12   C     C_R   0.600225 0.219240 0.431501 0.545592
C13   C     C_R   0.222852 0.800631 0.209781 -0.123580
C14   C     C_R   0.239405 0.807539 0.259797 -0.168573
C15   C     C_R   0.177192 0.839544 0.290182 0.042763
C16   C     C_R   0.144791 0.826968 0.189550 0.013324
C17   C     C_1   0.122501 0.812803 0.138249 -0.021484
C18   C     C_1   0.200878 0.850027 0.341432 -0.009364
C19   C     C_1   0.095663 0.794135 0.096139 0.015293
C20   C     C_1   0.635167 0.866000 0.383692 -0.006859
C21   C     C_R   0.628913 0.728912 0.270636 -0.112037
C22   C     C_R   0.633422 0.716578 0.220471 -0.082580
C23   C     C_R   0.278947 0.878498 0.430714 0.554195
C24   C     C_R   0.678798 0.912453 0.209501 -0.116647
C25   C     C_R   0.674130 0.924740 0.259595 -0.114882
C26   C     C_R   0.649970 0.833333 0.290272 0.014153
C27   C     C_R   0.658624 0.808402 0.189837 0.030616
C28   C     C_1   0.673063 0.798201 0.138806 -0.039502
C29   C     C_1   0.643412 0.847357 0.341605 -0.061371
C30   C     C_1   0.691608 0.787736 0.096964 0.008012
C31   C     C_R   0.616373 0.243492 0.621404 0.031419
C32   C     C_R   0.725226 0.305153 0.641520 -0.138246
C33   C     C_R   0.738083 0.312482 0.691797 -0.085234
C34   C     C_R   0.620658 0.900162 0.568664 0.531149
C35   C     C_R   0.642615 0.253121 0.721836 0.039264
C36   C     C_R   0.535122 0.186745 0.701075 -0.140939
C37   C     C_R   0.521763 0.185147 0.651576 -0.122819
C38   C     C_R   0.569035 0.293948 0.795966 -0.167019
C39   C     C_R   0.583020 0.333823 0.842899 -0.141038
C40   C     C_R   0.758869 0.329716 0.848995 -0.090903
C41   C     C_R   0.742205 0.283649 0.802227 0.276383
C42   C     C_R   0.650576 0.273419 0.774315 0.031196
C43   C     C_R   0.681234 0.358578 0.868730 -0.023191
C44   C     C_R   0.303570 0.897156 0.624914 0.019750
C45   C     C_R   0.598386 0.218037 0.569952 0.531038
C46   C     C_R   0.210800 0.907061 0.640500 -0.120618
C47   C     C_R   0.185584 0.901074 0.689686 -0.120089
C48   C     C_R   0.253795 0.886719 0.723939 0.026372
C49   C     C_R   0.348837 0.880491 0.708046 -0.122507
C50   C     C_R   0.372860 0.884840 0.658818 -0.140514
C51   C     C_R   0.228034 0.784589 0.801722 -0.071481
C52   C     C_R   0.179604 0.752611 0.847544 0.245872
C53   C     C_R   0.119744 0.893958 0.842690 -0.177138
C54   C     C_R   0.169304 0.925918 0.797093 -0.143506
C55   C     C_R   0.219576 0.868113 0.775361 -0.009525
C56   C     C_R   0.332855 0.904559 0.573742 0.547967
C57   C     C_R   0.119050 0.803296 0.867479 0.028235
C58   C     C_R   0.641953 0.859956 0.614179 0.016356
C59   C     C_R   0.559627 0.755232 0.633679 -0.136643
C60   C     C_R   0.568845 0.728819 0.681450 -0.122516
C61   C     C_R   0.660876 0.806460 0.709775 0.034506
C62   C     C_R   0.745883 0.908115 0.689338 -0.125625
C63   C     C_R   0.737018 0.934230 0.641853 -0.123309
C64   C     C_R   0.775483 0.813655 0.779715 -0.149285
C65   C     C_R   0.789510 0.809762 0.828844 -0.174241
C66   C     C_R   0.587368 0.733921 0.841831 0.260837
C67   C     C_1   0.633873 0.267993 0.384344 -0.001884
C68   C     C_R   0.574579 0.744039 0.791889 -0.112206
C69   C     C_R   0.669121 0.784727 0.760965 -0.016121
C70   C     C_R   0.696930 0.772980 0.860336 0.046290
C71   C     C_R   0.049100 0.761196 0.048302 0.557149
C72   C     C_R   0.714043 0.435410 0.049602 0.547874
C73   C     C_R   0.723310 0.770943 0.049450 0.560297
C74   C     C_R   0.047087 0.757345 0.911021 0.561821
C75   C     C_R   0.707328 0.427465 0.912798 0.539196
C76   C     C_R   0.719371 0.764390 0.911117 0.578963
C77   C     C_R   0.736127 0.428795 0.273292 0.311061
C78   C     C_R   0.744101 0.445443 0.222814 0.258730
Cr1   Cr    Cr6+3 0.417720 0.831920 0.499820 1.023323
Cr2   Cr    Cr6+3 0.668190 0.085770 0.500360 1.024257
Cr3   Cr    Cr6+3 0.414060 0.082260 0.499840 1.033776
Cr4   Cr    Cr6+3 0.908000 0.821090 0.979770 1.030338
Cr5   Cr    Cr6+3 0.912420 0.571130 0.979880 1.079952
Cr6   Cr    Cr6+3 0.657970 0.566940 0.980940 1.046612
H1    H     H_    0.618667 0.636014 0.205612 0.167623
H2    H     H_    0.699495 0.984312 0.186228 0.114330
H3    H     H_    0.689790 0.005667 0.274441 0.115614
H4    H     H_    0.799235 0.347991 0.618490 0.117058
H5    H     H_    0.497818 0.287035 0.775631 0.115610
H6    H     H_    0.520908 0.353979 0.857320 0.140200
H7    H     H_    0.821704 0.366515 0.707037 0.163487
H8    H     H_    0.834086 0.346260 0.869019 0.157751
H9    H     H_    0.460518 0.138452 0.723299 0.119405
H10   H     H_    0.437183 0.134089 0.636770 0.139145
H11   H     H_    0.156818 0.917191 0.614604 0.129718
H12   H     H_    0.267513 0.739605 0.785847 0.137026
H13   H     H_    0.110576 0.903936 0.700700 0.106944
H14   H     H_    0.164819 0.993272 0.778131 0.112271
H15   H     H_    0.077454 0.937166 0.857506 0.130671
H16   H     H_    0.404311 0.871792 0.733591 0.110016
H17   H     H_    0.446525 0.880411 0.647181 0.115683
H18   H     H_    0.485479 0.696486 0.612888 0.132726
H19   H     H_    0.597344 0.166959 0.185652 0.127070
H20   H     H_    0.848720 0.841596 0.756380 0.120624
H21   H     H_    0.873278 0.833487 0.842237 0.135556
H22   H     H_    0.503439 0.649186 0.696491 0.108479
H23   H     H_    0.492287 0.723390 0.777620 0.110919
H24   H     H_    0.817259 0.969921 0.710662 0.098276
H25   H     H_    0.801492 0.015702 0.627865 0.139286
H26   H     H_    0.579626 0.137633 0.273544 0.127582
H27   H     H_    0.023124 0.880610 0.203196 0.126903
H28   H     H_    0.270696 0.774397 0.186907 0.129571
H29   H     H_    0.301371 0.788242 0.274875 0.124687
H30   H     H_    0.609738 0.657607 0.294000 0.144769
O1    O     O_R   0.302900 0.805360 0.446400 -0.505225
O2    O     O_R   0.657980 0.180990 0.549630 -0.498442
O3    O     O_R   0.503420 0.197810 0.553190 -0.522922
O4    O     O_R   0.320350 0.978840 0.548910 -0.505141
O5    O     O_3   0.499990 0.999990 0.500010 -0.272338
O6    O     O_R   0.819150 0.845650 0.033320 -0.503444
O7    O     O_R   0.006060 0.815720 0.028680 -0.495711
O8    O     O_R   0.028100 0.664460 0.032550 -0.489192
O9    O     O_R   0.811290 0.477490 0.029660 -0.490781
O10   O     O_R   0.638120 0.455970 0.034270 -0.504135
O11   O     O_R   0.667540 0.672320 0.030160 -0.485024
O12   O     O_R   0.522090 0.841370 0.450730 -0.492434
O13   O     O_R   0.814460 0.840990 0.926980 -0.529730
O14   O     O_R   0.001710 0.811400 0.930110 -0.524320
O15   O     O_R   0.023410 0.659800 0.926210 -0.439696
O16   O     O_R   0.806940 0.473170 0.931090 -0.499625
O17   O     O_R   0.633420 0.451310 0.927930 -0.524779
O18   O     O_R   0.663190 0.668000 0.931580 -0.477548
O19   O     O_3   0.826130 0.653050 0.980200 -0.262075
O20   O     O_R   0.693280 0.995650 0.447220 -0.501393
O21   O     O_R   0.657260 0.178740 0.451050 -0.494467
O22   O     O_R   0.502640 0.195380 0.446850 -0.496267
O23   O     O_R   0.319630 0.976590 0.450330 -0.480953
O24   O     O_R   0.303680 0.807790 0.552740 -0.499776
O25   O     O_R   0.522820 0.843620 0.549310 -0.522895
O26   O     O_R   0.694060 0.998080 0.553560 -0.514345
O27   O     O_3   0.780628 0.521529 0.304508 -0.553839
C79   C     C_3   0.893047 0.550880 0.316026 -0.106434
H31   H     H_    0.947700 0.575842 0.283189 0.157061
H32   H     H_    0.895873 0.480151 0.335038 0.111243
H33   H     H_    0.929123 0.625628 0.340883 0.153623
O28   O     O_3   0.821111 0.258381 0.783100 -0.575731
C80   C     C_3   0.775895 0.139382 0.785181 -0.113415
H34   H     H_    0.700804 0.093367 0.760971 0.126997
H35   H     H_    0.753417 0.107515 0.822955 0.127137
H36   H     H_    0.841549 0.119551 0.772446 0.140544
Cl1   Cl    Cl    0.815332 0.585523 0.199782 -0.671530
Cl2   Cl    Cl    0.196893 0.647542 0.877371 -0.594151
O29   O     O_3   0.496048 0.695607 0.873076 -0.538285
C81   C     C_3   0.421264 0.578576 0.864179 -0.063345
H37   H     H_    0.466200 0.528690 0.864711 0.100418
H38   H     H_    0.375298 0.565016 0.829324 0.126997
H39   H     H_    0.356902 0.544937 0.893435 0.188582
O30   O     O_3   0.040797 0.901145 0.301852 -0.570339
C82   C     C_3   0.925049 0.853571 0.289595 -0.104225
H40   H     H_    0.884864 0.761844 0.279309 0.190693
H41   H     H_    0.914259 0.903380 0.260412 0.134165
H42   H     H_    0.879166 0.858984 0.321847 0.156037

loop_
_geom_bond_atom_site_label_1
_geom_bond_atom_site_label_2
_ccdc_geom_bond_type
C48   C55   S    
C66   C68   A    
C21   C26   A    
Cr1   O1    S    
C15   C18   S    
C41   C42   A    
C71   O8    A    
C19   C71   S    
C35   C36   A    
C24   C27   A    
Cr4   O6    S    
C66   C70   A    
C77   C78   A    
C53   H15   S    
Cr3   O23   S    
C38   H5    S    
Cr2   O21   S    
C36   C37   A    
C80   H35   S    
C38   C42   A    
C13   H28   S    
C10   C15   A    
C33   H7    S    
C82   H40   S    
C38   C39   A    
C62   H24   S    
C3    H26   S    
C45   O3    A    
C65   C70   A    
C32   H4    S    
Cr3   O3    S    
C34   O25   A    
C58   C63   A    
Cr2   O20   S    
C22   H1    S    
C35   C42   S    
C44   C50   A    
C80   H34   S    
C17   C19   T    
C54   C55   A    
C36   H9    S    
C40   C43   A    
C74   O14   A    
C41   O28   S    
C47   C48   A    
C44   C46   A    
C68   C69   A    
C12   O21   A    
Cr1   O5    S    
C12   O22   A    
C82   H41   S    
C26   C29   S    
C68   H23   S    
C10   O30   S    
C39   H6    S    
C81   H38   S    
C75   O16   A    
C51   H12   S    
Cr2   O5    S    
C59   C60   A    
O29   C81   S    
C73   O6    A    
C21   C22   A    
C72   O10   A    
C79   H33   S    
C4    C7    S    
C65   H21   S    
C75   O17   A    
C78   Cl1   S    
C20   C29   T    
C43   C75   S    
C12   C67   S    
Cr6   O19   S    
C8    C72   S    
C46   H11   S    
C11   H27   S    
C51   C52   A    
Cr2   O2    S    
C80   H36   S    
C1    O12   A    
Cr5   O16   S    
Cr1   O25   S    
C52   C57   A    
C30   C73   S    
C53   C57   A    
C16   C17   S    
C6    C8    T    
C25   C26   A    
C53   C54   A    
C23   O1    A    
Cr3   O4    S    
Cr6   O18   S    
C40   H8    S    
C31   C37   A    
C60   C61   A    
C57   C74   S    
C63   H25   S    
C62   C63   A    
C56   O24   A    
C11   C16   A    
C44   C56   S    
C31   C32   A    
C52   Cl2   S    
C82   H42   S    
C64   C69   A    
C24   C25   A    
Cr4   O14   S    
C81   H37   S    
C81   H39   S    
C48   C49   A    
Cr1   O12   S    
C22   C27   A    
C72   O9    A    
C70   C76   S    
O30   C82   S    
C79   H32   S    
C13   C16   A    
C2    C5    A    
C1    O20   A    
C60   H22   S    
Cr3   O22   S    
O28   C80   S    
C61   C69   S    
Cr6   O11   S    
C64   H20   S    
C46   C47   A    
C40   C41   A    
C1    C20   S    
Cr4   O7    S    
C14   C15   A    
C59   H18   S    
C56   O4    A    
C23   O23   A    
C9    C23   S    
C21   H30   S    
C66   O29   S    
C39   C43   A    
Cr5   O15   S    
Cr6   O10   S    
C14   H29   S    
Cr3   O5    S    
Cr6   O17   S    
C47   H13   S    
C64   C65   A    
Cr4   O19   S    
C28   C30   T    
C2    C3    A    
C58   C59   A    
C4    C77   A    
Cr2   O26   S    
O27   C79   S    
C32   C33   A    
C49   H16   S    
C76   O18   A    
C45   O2    A    
C5    C6    S    
C2    H19   S    
C73   O11   A    
C34   O26   A    
C33   C35   A    
C37   H10   S    
C51   C55   A    
Cr5   O8    S    
C61   C62   A    
C77   O27   S    
Cr4   O13   S    
Cr5   O19   S    
C10   C11   A    
C7    C67   T    
C25   H3    S    
C71   O7    A    
C9    C18   T    
Cr1   O24   S    
C50   H17   S    
C49   C50   A    
C31   C45   S    
C74   O15   A    
C27   C28   S    
C34   C58   S    
C76   O13   A    
C79   H31   S    
C54   H14   S    
Cr5   O9    S    
C5    C78   A    
C13   C14   A    
C24   H2    S    
C3    C4    A    
