data_mof_unit_13278.cif
_audit_creation_date              2012-12-10T16:42:56-0500
_audit_creation_method            fapswitch 2.2
_symmetry_space_group_name_H-M    P1
_symmetry_Int_Tables_number       1
_space_group_crystal_system       triclinic
_cell_length_a                    7.446739
_cell_length_b                    8.73987
_cell_length_c                    13.02247
_cell_angle_alpha                 87.564173
_cell_angle_beta                  79.216768
_cell_angle_gamma                 102.082399
_cell_volume                      811.191288568

loop_
_atom_site_label
_atom_site_type_symbol
_atom_type_description
_atom_site_fract_x
_atom_site_fract_y
_atom_site_fract_z
_atom_type_partial_charge
C1    C     C_R   0.454259 0.200542 0.506775 0.879923
C2    C     C_R   0.545741 0.799458 0.493225 0.879923
C3    C     C_R   0.466081 0.494034 0.701054 0.793824
C4    C     C_R   0.533919 0.505966 0.298946 0.793824
C5    C     C_R   0.553732 0.516978 0.185283 -0.133802
C6    C     C_R   0.446268 0.483022 0.814717 -0.133801
C7    C     C_R   0.289925 0.351500 0.984916 -0.224384
C8    C     C_R   0.710075 0.648499 0.015084 -0.224384
C9    C     C_R   0.298163 0.371037 0.877962 -0.043290
C10   C     C_R   0.701837 0.628963 0.122038 -0.043290
C11   C     C_R   0.579662 0.580919 0.860415 -0.088515
C12   C     C_R   0.420338 0.419080 0.139585 -0.088515
C13   C     C_R   0.572796 0.558240 0.968633 0.098381
C14   C     C_R   0.427204 0.441760 0.031367 0.098381
C15   C     C_2   0.433310 0.034739 0.525463 -0.044840
C16   C     C_2   0.566690 0.965261 0.474537 -0.044840
Cu1   Cu    Cu3+1 0.686350 0.517570 0.488220 0.978423
Cu2   Cu    Cu3+1 0.313650 0.482430 0.511780 0.978423
H1    H     H_    0.175014 0.264189 0.031456 0.158635
H2    H     H_    0.824986 0.735811 0.968544 0.158635
H3    H     H_    0.934207 0.376429 0.582494 0.237030
H4    H     H_    0.065793 0.623571 0.417506 0.237030
N1    N     N_2   0.033570 0.455950 0.529530 -0.212862
N2    N     N_2   0.966430 0.544050 0.470470 -0.212862
O1    O     O_R   0.621060 0.286250 0.492350 -0.598439
O2    O     O_R   0.378940 0.713750 0.507650 -0.598439
O3    O     O_R   0.306310 0.256580 0.512240 -0.572654
O4    O     O_R   0.693690 0.743420 0.487760 -0.572654
O5    O     O_R   0.631800 0.512400 0.642670 -0.580978
O6    O     O_R   0.368200 0.487600 0.357330 -0.580978
O7    O     O_R   0.317060 0.482730 0.662570 -0.577871
O8    O     O_R   0.682940 0.517270 0.337430 -0.577871
C17   C     C_1   0.282238 0.291143 0.203273 0.253692
N3    N     N_1   0.172834 0.189140 0.253937 -0.271307
C18   C     C_1   0.717761 0.708857 0.796727 0.253692
N4    N     N_1   0.827165 0.810860 0.746063 -0.271307
C19   C     C_1   0.847438 0.727782 0.164159 0.263945
N5    N     N_1   0.965144 0.806424 0.197163 -0.284329
C20   C     C_1   0.152562 0.272218 0.835841 0.263945
N6    N     N_1   0.034856 0.193576 0.802837 -0.284329
C21   C     C_3   0.269349 0.950575 0.610807 -0.772293
H5    H     H_    0.201620 0.034879 0.656266 0.245950
H6    H     H_    0.160558 0.876290 0.575562 0.269734
H7    H     H_    0.317792 0.878336 0.667785 0.226027
C22   C     C_3   0.730651 0.049425 0.389193 -0.772293
H8    H     H_    0.798380 0.965121 0.343734 0.245950
H9    H     H_    0.682207 0.121664 0.332215 0.226027
H10   H     H_    0.839442 0.123710 0.424438 0.269734

loop_
_geom_bond_atom_site_label_1
_geom_bond_atom_site_label_2
_ccdc_geom_bond_type
C16   C22   S    
C3    O7    A    
N1    N2    D    
C19   N5    T    
Cu2   O6    S    
C1    O3    A    
Cu1   O5    S    
C21   H5    S    
C18   N4    T    
Cu2   O2    S    
C9    C20   S    
C3    C6    S    
Cu1   O1    S    
C6    C9    A    
H3    N1    S    
Cu1   Cu2   S    
C5    C10   A    
C2    O2    A    
C8    H2    S    
C13   C14   A    
C1    O1    A    
C21   H6    S    
C6    C11   A    
C3    O5    A    
C4    O8    A    
C10   C19   S    
C1    C15   S    
C11   C18   S    
C12   C14   A    
C17   N3    T    
C7    H1    S    
C22   H9    S    
C21   H7    S    
H4    N2    S    
Cu1   N2    S    
Cu2   N1    S    
C8    C13   A    
C11   C13   A    
C2    C16   S    
C15   C21   S    
C5    C12   A    
C8    C10   A    
C22   H10   S    
C20   N6    T    
C7    C9    A    
Cu1   O8    S    
C2    O4    A    
Cu2   O7    S    
C12   C17   S    
C22   H8    S    
Cu1   O4    S    
C7    C14   A    
C4    O6    A    
Cu2   O3    S    
C15   C16   D    
C4    C5    S    
