data_mof_unit_33194.cif
_audit_creation_date              2013-03-05T16:30:35-0500
_audit_creation_method            fapswitch 2.2
_symmetry_space_group_name_H-M    P1
_symmetry_Int_Tables_number       1
_space_group_crystal_system       triclinic
_cell_length_a                    8.756817
_cell_length_b                    10.779524
_cell_length_c                    9.59927
_cell_angle_alpha                 91.073198
_cell_angle_beta                  98.058829
_cell_angle_gamma                 91.077935
_cell_volume                      896.800596637

loop_
_atom_site_label
_atom_site_type_symbol
_atom_site_description
_atom_site_fract_x
_atom_site_fract_y
_atom_site_fract_z
_atom_type_partial_charge
O1    O     O_R   0.500000 0.319640 0.618810 -0.595735
O2    O     O_R   0.500020 0.319680 0.381230 -0.609256
C1    C     C_R   0.500844 0.262855 0.498786 0.765736
O3    O     O_R   0.274830 0.499980 0.591380 -0.537792
O4    O     O_R   0.274850 0.500020 0.353800 -0.589799
C2    C     C_R   0.204238 0.503458 0.464318 0.890145
Cu1   Cu    Cu3+1 0.499990 0.499980 0.640670 1.013296
Cu2   Cu    Cu3+1 0.500010 0.500020 0.359330 0.946367
O5    O     O_R   0.499980 0.680320 0.618770 -0.558668
O6    O     O_R   0.500000 0.680360 0.381190 -0.590692
O7    O     O_R   0.725150 0.499980 0.646200 -0.523311
O8    O     O_R   0.725170 0.500020 0.408620 -0.600312
C3    C     C_R   0.499445 0.737435 0.500721 0.824679
C4    C     C_R   0.795717 0.504574 0.536345 0.788933
C5    C     C_2   0.038187 0.503788 0.446970 -0.497605
H1    H     H_    0.978402 0.477417 0.343348 0.168071
C6    C     C_2   0.960652 0.523474 0.557012 0.152689
C7    C     C_R   0.376627 0.063709 0.537789 0.040748
C8    C     C_R   0.497982 0.129833 0.493305 -0.073801
C9    C     C_R   0.608972 0.065132 0.430318 -0.193679
H2    H     H_    0.698813 0.114636 0.385713 0.145336
C10   C     C_R   0.609600 0.935379 0.433439 -0.173173
H3    H     H_    0.699477 0.885973 0.390237 0.145988
C11   C     C_R   0.499065 0.870931 0.499154 -0.032128
C12   C     C_R   0.376011 0.936388 0.539456 0.036775
C13   C     C_3   0.295249 0.933204 0.666429 -0.375709
C14   C     C_3   0.297827 0.075133 0.665383 -0.077547
H4    H     H_    0.177976 0.890933 0.640956 0.243869
H5    H     H_    0.367052 0.895599 0.759763 0.191727
H6    H     H_    0.373233 0.118786 0.756896 0.171850
C15   C     C_R   0.603416 0.572497 0.088640 0.180821
N1    N     N_R   0.500980 0.500930 0.148050 -0.201290
C16   C     C_R   0.403050 0.421900 0.057585 0.244122
C17   C     C_R   0.406234 0.422132 0.909857 -0.031502
H7    H     H_    0.329867 0.360626 0.840507 0.150000
N2    N     N_R   0.500990 0.500890 0.852140 -0.231783
C18   C     C_R   0.604584 0.571724 0.941486 0.226782
C19   C     C_3   0.619561 0.710125 0.942079 0.118978
C20   C     C_3   0.617675 0.710556 0.100075 -0.544410
H8    H     H_    0.518166 0.754709 0.882673 0.124861
H9    H     H_    0.727231 0.742125 0.164819 0.222480
H10   H     H_    0.512670 0.754131 0.130179 0.205108
N3    N     N_R   0.766828 0.753308 0.902815 0.171051
O9    O     O_R   0.767811 0.831282 0.801173 -0.370920
O10   O     O_R   0.897317 0.718762 0.971700 -0.311574
N4    N     N_R   0.033412 0.572167 0.691357 0.169168
O11   O     O_R   0.994940 0.528051 0.806756 -0.344602
O12   O     O_R   0.114821 0.674717 0.698092 -0.355307
C21   C     C_3   0.138467 0.133993 0.632817 -0.408441
C22   C     C_3   0.043695 0.116747 0.753208 -0.757041
H11   H     H_    0.006631 0.018130 0.758653 0.295362
H12   H     H_    0.112662 0.145036 0.855053 0.242264
H13   H     H_    0.939128 0.174284 0.735539 0.242264
H14   H     H_    0.155261 0.234978 0.617083 0.204537
H15   H     H_    0.072827 0.093294 0.534366 0.214833
C23   C     C_3   0.287132 0.331635 0.105994 -0.423524
C24   C     C_3   0.120964 0.366873 0.055637 -0.761014
H16   H     H_    0.102594 0.465828 0.081774 0.303120
H17   H     H_    0.093272 0.349885 0.940829 0.271444
H18   H     H_    0.040866 0.308342 0.107775 0.221611
H19   H     H_    0.307082 0.237052 0.064928 0.168875
H20   H     H_    0.295613 0.323269 0.219131 0.266724

loop_
_geom_bond_atom_site_label_1
_geom_bond_atom_site_label_2
_geom_bond_distance
_ccdc_geom_bond_type
O4    Cu2   1.964946 S    
C22   H12   1.108989 S    
N3    O9    1.300509 A    
C11   C12   1.394255 A    
C1    C8    1.433516 S    
C18   C19   1.495029 S    
Cu1   N2    2.028588 S    
C13   H4    1.108983 S    
C8    C9    1.403960 A    
C15   C20   1.491789 S    
Cu2   O8    1.962101 S    
N1    C16   1.396870 A    
C9    H2    1.083622 S    
C16   C23   1.518254 S    
C21   C22   1.526444 S    
C16   C17   1.422305 A    
C13   C14   1.529906 S    
Cu1   Cu2   2.700691 S    
C20   H9    1.111330 S    
C21   H14   1.111668 S    
O1    Cu1   1.951362 S    
C6    N4    1.440919 S    
C14   H6    1.113250 S    
Cu1   O7    1.964947 S    
C2    C5    1.440282 S    
N3    O10   1.301920 A    
C4    C6    1.440127 S    
C24   H16   1.111036 S    
C19   C20   1.518969 S    
C7    C12   1.372762 A    
O3    Cu1   1.962102 S    
C5    C6    1.349052 D    
C10   C11   1.407048 A    
O3    C2    1.289340 A    
N2    C18   1.368501 A    
C19   H8    1.108545 S    
O8    C4    1.292872 A    
O2    C1    1.293233 A    
C20   H10   1.111450 S    
C17   N2    1.355077 A    
C10   H3    1.083542 S    
O4    C2    1.300969 A    
O7    C4    1.296091 A    
C23   H20   1.083712 S    
C24   H17   1.105781 S    
C22   H13   1.110699 S    
C14   C21   1.538210 S    
C5    H1    1.087242 S    
Cu2   N1    2.029547 S    
N4    O12   1.299665 A    
C15   C18   1.413903 A    
C19   N3    1.463572 S    
C23   C24   1.525035 S    
C13   H5    1.107977 S    
Cu2   O6    1.951362 S    
C17   H7    1.082547 S    
N4    O11   1.298101 A    
Cu1   O5    1.959225 S    
O5    C3    1.299204 A    
C23   H19   1.111918 S    
C7    C8    1.389183 A    
C24   H18   1.110916 S    
C22   H11   1.109950 S    
C12   C13   1.493071 S    
C21   H15   1.112953 S    
O2    Cu2   1.959224 S    
C7    C14   1.491979 S    
C15   N1    1.363418 A    
C3    C11   1.439450 S    
C9    C10   1.399646 A    
O1    C1    1.295495 A    
O6    C3    1.292412 A    
