data_mof_unit_44203.cif
_audit_creation_date              2012-12-10T17:12:30-0500
_audit_creation_method            fapswitch 2.2
_symmetry_space_group_name_H-M    P1
_symmetry_Int_Tables_number       1
_space_group_crystal_system       triclinic
_cell_length_a                    11.699898
_cell_length_b                    12.914265
_cell_length_c                    11.742927
_cell_angle_alpha                 101.320637
_cell_angle_beta                  93.81424
_cell_angle_gamma                 91.079744
_cell_volume                      1735.0067876

loop_
_atom_site_label
_atom_site_type_symbol
_atom_type_description
_atom_site_fract_x
_atom_site_fract_y
_atom_site_fract_z
_atom_type_partial_charge
C1    C     C_R   0.502514 0.299137 0.477471 0.847013
C2    C     C_R   0.497303 0.700825 0.522485 0.840066
C3    C     C_R   0.361913 0.441147 0.026477 0.299565
C4    C     C_R   0.638073 0.558678 0.973589 0.284761
C5    C     C_R   0.387995 0.424444 0.141263 0.441382
C6    C     C_R   0.612304 0.575175 0.858682 0.497154
C7    C     C_R   0.559708 0.527551 0.155867 0.088475
C8    C     C_R   0.440062 0.472758 0.844185 0.080524
C9    C     C_R   0.550744 0.520744 0.032622 -0.160617
C10   C     C_R   0.449026 0.479485 0.967436 -0.156678
C11   C     C_R   0.283993 0.500207 0.500247 0.827241
C12   C     C_R   0.716014 0.499923 0.499782 0.819707
C13   C     C_1   0.162374 0.500298 0.500572 -0.118989
C14   C     C_1   0.837638 0.499930 0.499495 -0.086695
C15   C     C_1   0.059899 0.500214 0.500300 0.063438
C16   C     C_1   0.940115 0.500040 0.499758 0.074979
C17   C     C_R   0.486749 0.814545 0.535818 -0.116010
C18   C     C_R   0.512468 0.185299 0.463870 -0.094120
C19   C     C_R   0.593148 0.017914 0.379885 0.432604
C20   C     C_R   0.404649 0.981484 0.618719 0.424031
C21   C     C_R   0.591037 0.128754 0.391281 0.045405
C22   C     C_R   0.406779 0.870617 0.606934 0.014464
C23   C     C_R   0.447441 0.135273 0.533339 -0.164814
C24   C     C_R   0.552045 0.864771 0.466775 -0.169598
C25   C     C_R   0.462883 0.029630 0.538933 -0.047072
C26   C     C_R   0.535786 0.970134 0.460488 -0.048783
Cu1   Cu    Cu3+1 0.508350 0.507730 0.615930 1.050614
Cu2   Cu    Cu3+1 0.491650 0.492270 0.384070 1.043538
H1    H     H_    0.614920 0.819208 0.416895 0.217607
H2    H     H_    0.385279 0.181194 0.583875 0.218942
H3    H     H_    0.368096 0.431317 0.791138 0.211475
H4    H     H_    0.631583 0.569185 0.208909 0.209971
N1    N     N_R   0.520920 0.519350 0.790130 -0.271852
N2    N     N_R   0.479080 0.480650 0.209870 -0.268443
O1    O     O_R   0.505930 0.354460 0.582000 -0.594469
O2    O     O_R   0.494070 0.645540 0.418000 -0.585947
O3    O     O_R   0.491820 0.341410 0.386200 -0.499762
O4    O     O_R   0.508180 0.658590 0.613800 -0.508921
O5    O     O_R   0.344250 0.506540 0.597900 -0.582337
O6    O     O_R   0.655750 0.493460 0.402100 -0.592232
O7    O     O_R   0.330140 0.493480 0.402100 -0.548728
O8    O     O_R   0.669860 0.506520 0.597900 -0.534787
C27   C     C_3   0.316770 0.811206 0.658244 -0.599228
H5    H     H_    0.349266 0.795081 0.743589 0.293556
H6    H     H_    0.236764 0.855854 0.668595 0.261948
H7    H     H_    0.291141 0.735148 0.598949 0.170379
C28   C     C_3   0.679380 0.187685 0.337316 -0.611382
H8    H     H_    0.758766 0.142582 0.324021 0.259802
H9    H     H_    0.644156 0.204324 0.253107 0.292069
H10   H     H_    0.706955 0.263376 0.396266 0.163952
S1    S     S_3+6 0.659860 0.939587 0.260876 0.047122
O9    O     O_2   0.777298 0.912096 0.303298 -0.256853
O10   O     O_2   0.589881 0.839543 0.214194 -0.255859
O11   O     O_3   0.671383 0.004667 0.151099 -0.487911
H11   H     H_    0.712512 0.956608 0.092280 0.414895
S2    S     S_3+6 0.336115 0.059228 0.736753 0.038807
O12   O     O_2   0.406546 0.158470 0.786011 -0.258810
O13   O     O_2   0.220041 0.088147 0.692210 -0.253370
O14   O     O_3   0.320870 0.993057 0.845030 -0.490423
H12   H     H_    0.275901 0.039585 0.901605 0.422317
S3    S     S_3+6 0.664779 0.698612 0.831119 0.099692
O15   O     O_2   0.743767 0.756195 0.930338 -0.205409
O16   O     O_2   0.727789 0.685779 0.722378 -0.268937
O17   O     O_3   0.552709 0.776264 0.820291 -0.521344
H13   H     H_    0.586226 0.843708 0.807470 0.382955
S4    S     S_3+6 0.337976 0.299741 0.167476 0.111084
O18   O     O_2   0.262596 0.240295 0.066281 -0.204571
O19   O     O_2   0.439766 0.232879 0.179924 -0.243323
O20   O     O_3   0.264277 0.309916 0.286805 -0.503403
H14   H     H_    0.188172 0.335029 0.264260 0.369742
S5    S     S_3+6 0.218383 0.426852 0.963695 0.053002
O21   O     O_2   0.191601 0.519812 0.908091 -0.288180
O22   O     O_2   0.204915 0.327362 0.872069 -0.202969
O23   O     O_3   0.126178 0.422128 0.066688 -0.509557
H15   H     H_    0.049854 0.408683 0.023806 0.404539
S6    S     S_3+6 0.781740 0.571269 0.036018 0.059679
O24   O     O_2   0.796803 0.671129 0.126968 -0.204241
O25   O     O_2   0.806995 0.478451 0.092359 -0.301408
O26   O     O_3   0.873962 0.573839 0.932522 -0.464809
H16   H     H_    0.950474 0.586378 0.975143 0.404346

loop_
_geom_bond_atom_site_label_1
_geom_bond_atom_site_label_2
_ccdc_geom_bond_type
S4    O19   D    
C18   C21   A    
S6    O26   S    
C20   S2    S    
C28   H9    S    
Cu1   N1    S    
C1    C18   S    
C6    S3    S    
C19   C21   A    
C24   C26   A    
S4    O20   S    
C20   C25   A    
Cu2   O6    S    
Cu1   O4    S    
C15   C16   S    
Cu2   O7    S    
S2    O12   D    
S3    O16   D    
C19   C26   A    
C24   H1    S    
C12   O8    A    
C22   C27   S    
Cu1   O5    S    
C9    C10   A    
C1    O3    A    
S4    O18   D    
Cu2   N2    S    
O14   H12   S    
C2    C17   S    
S3    O15   D    
C28   H10   S    
C17   C24   A    
O23   H15   S    
S1    O9    D    
C23   H2    S    
S6    O24   D    
C4    C6    A    
S5    O22   D    
Cu1   O1    S    
C25   C26   A    
C18   C23   A    
S1    O10   D    
C12   O6    A    
S3    O17   S    
C3    S5    S    
C27   H5    S    
C2    O4    A    
C28   H8    S    
C5    N2    A    
C11   O5    A    
C27   H6    S    
C12   C14   S    
C13   C15   T    
C7    N2    A    
C14   C16   T    
C20   C22   A    
C1    O1    A    
C2    O2    A    
C7    C9    A    
O11   H11   S    
C7    H4    S    
C8    H3    S    
S6    O25   D    
C5    S4    S    
C3    C5    A    
S5    O23   S    
S2    O14   S    
C17   C22   A    
C6    N1    A    
S1    O11   S    
O17   H13   S    
S5    O21   D    
C3    C10   A    
C11   C13   S    
Cu1   O8    S    
Cu2   O3    S    
S2    O13   D    
C11   O7    A    
C8    N1    A    
C23   C25   A    
O20   H14   S    
C27   H7    S    
C4    S6    S    
O26   H16   S    
C19   S1    S    
Cu2   O2    S    
C8    C10   A    
Cu1   Cu2   S    
C4    C9    A    
C21   C28   S    
