data_mof_unit_12772.cif
_audit_creation_date              2012-12-10T20:46:52-0500
_audit_creation_method            fapswitch 2.2
_symmetry_space_group_name_H-M    P1
_symmetry_Int_Tables_number       1
_space_group_crystal_system       triclinic
_cell_length_a                    12.899034
_cell_length_b                    8.934979
_cell_length_c                    8.112765
_cell_angle_alpha                 89.993925
_cell_angle_beta                  97.241528
_cell_angle_gamma                 89.994276
_cell_volume                      927.559158904

loop_
_atom_site_label
_atom_site_type_symbol
_atom_type_description
_atom_site_fract_x
_atom_site_fract_y
_atom_site_fract_z
_atom_type_partial_charge
C1    C     C_R   0.499991 0.218010 0.500003 0.938317
C2    C     C_R   0.869563 0.560194 0.697339 -0.215062
C3    C     C_R   0.135626 0.545395 0.579552 -0.260276
C4    C     C_R   0.864374 0.454605 0.420448 -0.260276
C5    C     C_R   0.028511 0.530936 0.572807 0.111108
C6    C     C_R   0.971489 0.469064 0.427192 0.111108
C7    C     C_1   0.499997 0.065192 0.500006 -0.184634
C8    C     C_1   0.500003 0.934808 0.499994 -0.184634
C9    C     C_1   0.968426 0.359947 0.141330 0.145627
C10   C     C_1   0.031574 0.640053 0.858669 0.145627
C11   C     C_R   0.500009 0.781990 0.499997 0.938317
C12   C     C_R   0.297727 0.500634 0.467555 0.889271
C13   C     C_R   0.702273 0.499366 0.532445 0.889271
C14   C     C_R   0.814060 0.502230 0.552751 -0.071644
C15   C     C_R   0.185940 0.497770 0.447249 -0.071644
C16   C     C_R   0.022953 0.424381 0.291497 0.011721
C17   C     C_R   0.977047 0.575619 0.708503 0.011721
C18   C     C_R   0.130437 0.439806 0.302661 -0.215062
H1    H     H_    0.818971 0.407951 0.310993 0.173066
H2    H     H_    0.181029 0.592049 0.689007 0.173066
H3    H     H_    0.828856 0.597318 0.799145 0.168811
H4    H     H_    0.171144 0.402681 0.200854 0.168810
N1    N     N_1   0.500020 0.500000 0.073640 -0.032253
N2    N     N_1   0.499980 0.500000 0.926360 -0.032253
N3    N     N_1   0.924878 0.308248 0.021298 -0.192950
N4    N     N_1   0.075122 0.691752 0.978702 -0.192950
O1    O     O_R   0.499990 0.285340 0.636850 -0.612334
O2    O     O_R   0.500010 0.714660 0.363150 -0.612333
O3    O     O_R   0.500010 0.285340 0.363150 -0.616911
O4    O     O_R   0.499990 0.714660 0.636850 -0.616911
O5    O     O_R   0.346350 0.500000 0.614250 -0.624290
O6    O     O_R   0.653650 0.500000 0.385750 -0.624290
O7    O     O_R   0.346360 0.500000 0.340500 -0.623235
O8    O     O_R   0.653640 0.500000 0.659500 -0.623235
Zn1   Zn    Zn3+2 0.499990 0.500000 0.682780 0.995670
Zn2   Zn    Zn3+2 0.500010 0.500000 0.317220 0.995670

loop_
_geom_bond_atom_site_label_1
_geom_bond_atom_site_label_2
_ccdc_geom_bond_type
C15   C18   A    
N1    N2    T    
C7    C8    T    
C13   O6    A    
C12   C15   S    
C10   N4    T    
C2    H3    S    
C1    O3    A    
C9    N3    T    
C3    H2    S    
C1    C7    S    
C13   C14   S    
C2    C17   A    
O3    Zn2   S    
C11   O2    A    
C8    C11   S    
O4    Zn1   S    
C4    C6    A    
C9    C16   S    
N1    Zn2   S    
C12   O5    A    
C4    C14   A    
C5    C6    A    
C2    C14   A    
O5    Zn1   S    
N2    Zn1   S    
C5    C17   A    
C10   C17   S    
C6    C16   A    
O6    Zn2   S    
C13   O8    A    
O7    Zn2   S    
C3    C15   A    
O2    Zn2   S    
C16   C18   A    
O8    Zn1   S    
C1    O1    A    
O1    Zn1   S    
C12   O7    A    
C18   H4    S    
C4    H1    S    
C11   O4    A    
C3    C5    A    
