data_mof_unit_16893.cif
_audit_creation_date              2012-12-10T18:10:25-0500
_audit_creation_method            fapswitch 2.2
_symmetry_space_group_name_H-M    P1
_symmetry_Int_Tables_number       1
_space_group_crystal_system       triclinic
_cell_length_a                    10.8001
_cell_length_b                    9.518846
_cell_length_c                    15.870932
_cell_angle_alpha                 90.088228
_cell_angle_beta                  92.427592
_cell_angle_gamma                 89.791069
_cell_volume                      1630.12635863

loop_
_atom_site_label
_atom_site_type_symbol
_atom_type_description
_atom_site_fract_x
_atom_site_fract_y
_atom_site_fract_z
_atom_type_partial_charge
C1    C     C_R   0.260418 0.500124 0.500770 0.785548
C2    C     C_3   0.933518 0.355037 0.546618 -0.210057
C3    C     C_3   0.063661 0.515381 0.417335 -0.430754
C4    C     C_3   0.123126 0.499702 0.507270 0.038275
C5    C     C_3   0.878854 0.498524 0.512208 0.042504
C6    C     C_R   0.499638 0.499908 0.340576 0.844915
C7    C     C_3   0.921255 0.517377 0.420468 -0.413178
C8    C     C_3   0.616864 0.083735 0.541959 -0.098089
C9    C     C_3   0.619883 0.915741 0.537166 -0.093763
C10   C     C_3   0.395348 0.083513 0.549224 -0.216611
C11   C     C_3   0.399564 0.917586 0.552991 -0.218568
C12   C     C_3   0.632521 0.454004 0.952704 -0.410936
C13   C     C_3   0.486115 0.083202 0.414467 -0.093687
C14   C     C_3   0.482168 0.915430 0.414793 -0.089247
C15   C     C_R   0.739766 0.499625 0.507018 0.764515
C16   C     C_R   0.500161 0.500077 0.659522 0.853418
C17   C     C_3   0.467812 0.648070 0.047457 -0.202839
C18   C     C_3   0.400353 0.398177 0.045073 -0.200320
C19   C     C_3   0.405473 0.394019 0.947377 -0.398800
C20   C     C_3   0.473910 0.648603 0.949790 -0.399838
C21   C     C_1   0.500921 0.500165 0.749059 -0.086720
C22   C     C_3   0.504058 0.498501 0.083008 0.138723
C23   C     C_3   0.635858 0.452336 0.051387 -0.029239
C24   C     C_3   0.503012 0.499289 0.916719 0.218826
C25   C     C_1   0.632583 0.134292 0.630300 0.306469
C26   C     C_1   0.653476 0.852477 0.620129 0.290359
C27   C     C_1   0.376305 0.144024 0.367657 0.324835
C28   C     C_1   0.367598 0.858259 0.372365 0.318001
C29   C     C_1   0.402778 0.254932 0.080919 0.285308
C30   C     C_1   0.540657 0.764754 0.085646 0.289336
C31   C     C_1   0.735588 0.545956 0.084432 0.233223
C32   C     C_1   0.671843 0.310658 0.081938 0.235462
C33   C     C_1   0.147589 0.640124 0.643245 0.253636
C34   C     C_1   0.501775 0.499905 0.824569 -0.031063
C35   C     C_1   0.144290 0.320045 0.624867 0.258140
C36   C     C_1   0.894499 0.619439 0.655290 0.279198
C37   C     C_1   0.892588 0.319721 0.631805 0.245546
C38   C     C_1   0.501538 0.499219 0.175664 -0.082221
C39   C     C_1   0.500311 0.499632 0.251100 -0.142832
C40   C     C_3   0.077924 0.627238 0.560866 -0.197872
C41   C     C_3   0.077892 0.356392 0.543629 -0.194253
C42   C     C_3   0.933607 0.623489 0.566946 -0.217231
Cu1   Cu    Cu3+1 0.499860 0.642410 0.500040 0.937107
Cu2   Cu    Cu3+1 0.499860 0.357590 0.500040 0.938163
H1    H     H_    0.383434 0.685551 0.921563 0.181309
H2    H     H_    0.411119 0.883496 0.619806 0.169896
H3    H     H_    0.567796 0.115206 0.378647 0.118965
H4    H     H_    0.559440 0.878167 0.376157 0.121978
H5    H     H_    0.304645 0.116435 0.519997 0.146932
H6    H     H_    0.307746 0.876418 0.531049 0.152662
H7    H     H_    0.370307 0.671107 0.063236 0.147188
H8    H     H_    0.308324 0.441667 0.060902 0.144217
H9    H     H_    0.428632 0.286616 0.924648 0.185914
H10   H     H_    0.545755 0.722968 0.928649 0.189205
H11   H     H_    0.703414 0.526900 0.928578 0.185170
H12   H     H_    0.312420 0.421085 0.918934 0.184882
H13   H     H_    0.655625 0.348649 0.926707 0.183519
H14   H     H_    0.099935 0.725170 0.526278 0.130815
H15   H     H_    0.103307 0.271502 0.499072 0.131872
H16   H     H_    0.885300 0.618618 0.394032 0.184092
H17   H     H_    0.882260 0.432076 0.379340 0.178617
H18   H     H_    0.896260 0.723803 0.540149 0.124101
H19   H     H_    0.898757 0.269149 0.504298 0.124573
H20   H     H_    0.095393 0.614066 0.387692 0.199178
H21   H     H_    0.093017 0.427001 0.376599 0.191341
H22   H     H_    0.697631 0.122884 0.508019 0.105622
H23   H     H_    0.695762 0.885737 0.495309 0.099296
H24   H     H_    0.394994 0.126810 0.614210 0.177393
N1    N     N_3   0.500250 0.143650 0.501830 -0.171506
N2    N     N_1   0.700727 0.199980 0.105864 -0.237641
N3    N     N_1   0.202056 0.650568 0.707327 -0.280783
N4    N     N_1   0.196065 0.291677 0.687940 -0.279500
N5    N     N_1   0.866610 0.614955 0.724874 -0.235477
N6    N     N_1   0.866150 0.293666 0.699855 -0.232762
N7    N     N_3   0.500250 0.856350 0.501830 -0.169711
N8    N     N_1   0.640597 0.168648 0.700308 -0.259508
N9    N     N_1   0.677349 0.808220 0.686658 -0.267970
N10   N     N_1   0.290656 0.190733 0.331188 -0.299046
N11   N     N_1   0.278423 0.814244 0.339165 -0.308791
N12   N     N_1   0.403990 0.142814 0.109072 -0.245059
N13   N     N_1   0.597160 0.856489 0.115644 -0.227429
N14   N     N_1   0.814137 0.618590 0.110312 -0.256510
O1    O     O_R   0.317570 0.620260 0.500050 -0.593300
O2    O     O_R   0.317570 0.379740 0.500050 -0.593959
O3    O     O_R   0.499890 0.620310 0.379470 -0.584987
O4    O     O_R   0.499890 0.379690 0.379470 -0.582322
O5    O     O_R   0.682190 0.620260 0.500020 -0.601920
O6    O     O_R   0.682190 0.379740 0.500020 -0.603104
O7    O     O_R   0.499870 0.620210 0.620600 -0.575274
O8    O     O_R   0.499870 0.379790 0.620600 -0.575569

loop_
_geom_bond_atom_site_label_1
_geom_bond_atom_site_label_2
_ccdc_geom_bond_type
C19   H12   S    
C37   N6    T    
C8    H22   S    
C16   C21   S    
C8    C25   S    
Cu1   O1    S    
C36   C42   S    
C5    C42   S    
C27   N10   T    
C17   H7    S    
C18   H8    S    
C3    H20   S    
C1    O2    A    
C16   O8    A    
C12   C23   S    
C8    N1    S    
Cu1   O7    S    
C31   N14   T    
C3    C7    S    
C38   C39   T    
C4    C41   S    
C2    C41   S    
C22   C38   S    
C17   C20   S    
C18   C19   S    
C28   N11   T    
C7    H17   S    
C13   H3    S    
C4    C40   S    
C8    C9    S    
C42   H18   S    
C20   H1    S    
C19   H9    S    
C40   C42   S    
C16   O7    A    
C13   C14   S    
C17   C30   S    
C3    H21   S    
Cu2   O4    S    
C9    C26   S    
Cu1   N7    S    
C26   N9    T    
C40   H14   S    
Cu1   O3    S    
C20   C24   S    
C41   H15   S    
C20   H10   S    
C10   C11   S    
C5    C7    S    
C14   H4    S    
C21   C34   T    
C24   C34   S    
C23   C31   S    
C33   C40   S    
Cu1   Cu2   S    
C9    H23   S    
Cu2   N1    S    
C18   C29   S    
C6    O3    A    
C12   H13   S    
C35   N4    T    
C2    C5    S    
C3    C4    S    
C7    H16   S    
Cu2   O8    S    
C2    H19   S    
C15   O5    A    
C6    C39   S    
C18   C22   S    
Cu2   O2    S    
C32   N2    T    
C10   H24   S    
C1    O1    A    
C12   C24   S    
C17   C22   S    
C6    O4    A    
C1    C4    S    
Cu1   O5    S    
C14   N7    S    
C25   N8    T    
C30   N13   T    
C19   C24   S    
C11   H6    S    
C11   N7    S    
C23   C32   S    
C2    C37   S    
C29   N12   T    
C13   N1    S    
C35   C41   S    
C5    C15   S    
C12   H11   S    
C36   N5    T    
C33   N3    T    
C10   N1    S    
C22   C23   S    
C13   C27   S    
C11   H2    S    
C9    N7    S    
C14   C28   S    
Cu2   O6    S    
C10   H5    S    
C15   O6    A    
