data_mof_unit_29193.cif
_audit_creation_date              2012-12-11T16:08:33-0500
_audit_creation_method            fapswitch 2.2
_symmetry_space_group_name_H-M    P1
_symmetry_Int_Tables_number       1
_space_group_crystal_system       triclinic
_cell_length_a                    12.953106
_cell_length_b                    13.301145
_cell_length_c                    27.709015
_cell_angle_alpha                 95.239426
_cell_angle_beta                  89.552717
_cell_angle_gamma                 119.133959
_cell_volume                      4148.91599274

loop_
_atom_site_label
_atom_site_type_symbol
_atom_type_description
_atom_site_fract_x
_atom_site_fract_y
_atom_site_fract_z
_atom_type_partial_charge
C1    C     C_R   0.628505 0.896080 0.427159 0.571479
C2    C     C_R   0.580388 0.279658 0.222509 -0.158762
C3    C     C_R   0.570333 0.264857 0.271680 -0.149682
C4    C     C_R   0.671157 0.311465 0.302576 -0.015880
C5    C     C_R   0.691478 0.341915 0.203232 0.000327
C6    C     C_1   0.696001 0.364381 0.153024 0.051741
C7    C     C_1   0.653555 0.290962 0.353052 -0.058606
C8    C     C_1   0.702478 0.392438 0.112451 0.060699
C9    C     C_R   0.333997 0.887918 0.342492 0.243396
C10   C     C_R   0.309336 0.875956 0.292467 0.011451
C11   C     C_R   0.253194 0.844087 0.192446 0.078429
C12   C     C_R   0.601118 0.221329 0.440353 0.558544
C13   C     C_R   0.362109 0.858854 0.209023 -0.075692
C14   C     C_R   0.390065 0.875019 0.258397 -0.139361
C15   C     C_R   0.222637 0.823608 0.142649 0.245782
C16   C     C_R   0.111695 0.808806 0.127985 0.030995
C17   C     C_R   0.136203 0.858003 0.359232 -0.171577
C18   C     C_R   0.113333 0.854041 0.309956 0.012468
C19   C     C_R   0.198748 0.859935 0.276328 0.018587
C20   C     C_R   0.005119 0.840904 0.293672 -0.071971
C21   C     C_R   0.980422 0.831953 0.244303 -0.082310
C22   C     C_R   0.062709 0.833703 0.210823 0.025801
C23   C     C_R   0.271265 0.877267 0.425573 0.579585
C24   C     C_R   0.172106 0.847006 0.226492 0.024737
C25   C     C_R   0.034781 0.817377 0.161774 -0.092071
C26   C     C_R   0.244037 0.870954 0.374849 0.058531
C27   C     C_R   0.751596 0.945403 0.355782 -0.088079
C28   C     C_R   0.760290 0.934473 0.305591 -0.046143
C29   C     C_R   0.748226 0.925399 0.203749 -0.020008
C30   C     C_R   0.839684 0.023397 0.231189 0.249555
C31   C     C_R   0.851819 0.023089 0.281834 0.220977
C32   C     C_R   0.736527 0.917164 0.152619 0.279052
C33   C     C_R   0.675672 0.806284 0.127071 -0.016003
C34   C     C_R   0.626639 0.899276 0.565203 0.540612
C35   C     C_R   0.573904 0.758486 0.352352 -0.102351
C36   C     C_R   0.581807 0.744360 0.302131 0.022766
C37   C     C_R   0.671027 0.835643 0.278452 -0.008901
C38   C     C_R   0.498224 0.643172 0.274933 -0.103465
C39   C     C_R   0.502317 0.632309 0.224583 -0.095514
C40   C     C_R   0.586349 0.724701 0.200793 -0.002781
C41   C     C_R   0.669330 0.828449 0.227669 -0.059479
C42   C     C_R   0.593975 0.712507 0.150728 -0.167062
C43   C     C_R   0.654907 0.862018 0.378801 -0.009439
C44   C     C_R   0.734422 0.294861 0.653452 -0.133163
C45   C     C_R   0.600404 0.223541 0.579408 0.542565
C46   C     C_R   0.746772 0.310276 0.704110 0.008491
C47   C     C_R   0.769010 0.341726 0.805834 0.007077
C48   C     C_R   0.865387 0.354547 0.778353 -0.122958
C49   C     C_R   0.854012 0.337931 0.727747 -0.126821
C50   C     C_R   0.782347 0.369576 0.856002 -0.127812
C51   C     C_R   0.687525 0.365888 0.882276 -0.003299
C52   C     C_R   0.531938 0.259308 0.658512 -0.127735
C53   C     C_R   0.541099 0.269264 0.708637 0.004025
C54   C     C_R   0.648967 0.295433 0.731695 0.059645
C55   C     C_R   0.442881 0.250644 0.735924 -0.135395
C56   C     C_R   0.271860 0.879807 0.563513 0.541189
C57   C     C_R   0.452579 0.261814 0.786268 -0.126554
C58   C     C_R   0.561033 0.293514 0.809645 0.009634
C59   C     C_R   0.659277 0.308568 0.782409 0.057825
C60   C     C_R   0.575165 0.319111 0.859625 -0.121626
C61   C     C_R   0.626422 0.267663 0.630611 -0.002023
C62   C     C_1   0.224474 0.864908 0.610772 -0.011417
C63   C     C_R   0.209600 0.781129 0.727334 -0.150038
C64   C     C_R   0.198684 0.775652 0.777074 -0.175267
C65   C     C_R   0.127949 0.915722 0.781537 0.297390
C66   C     C_R   0.137234 0.920174 0.730734 0.253415
C67   C     C_1   0.633390 0.265938 0.394127 -0.001685
C68   C     C_R   0.178442 0.851646 0.703764 -0.007810
C69   C     C_R   0.157717 0.841655 0.804312 -0.016995
C70   C     C_1   0.134942 0.822308 0.854579 0.023227
C71   C     C_1   0.198269 0.857409 0.652589 -0.063850
C72   C     C_1   0.106417 0.800269 0.895401 0.041643
C73   C     C_1   0.640596 0.868048 0.612005 -0.004739
C74   C     C_R   0.686052 0.932943 0.738648 -0.075211
C75   C     C_R   0.687315 0.920792 0.788226 -0.056120
C76   C     C_R   0.619006 0.715870 0.769589 -0.099170
C77   C     C_R   0.617735 0.728023 0.719952 -0.100618
C78   C     C_R   0.785303 0.372190 0.283569 0.255113
C79   C     C_R   0.651939 0.836781 0.704350 0.040938
C80   C     C_R   0.653674 0.812201 0.803862 0.051206
C81   C     C_1   0.665416 0.801352 0.854549 -0.015386
C82   C     C_1   0.647381 0.850299 0.653499 -0.047867
C83   C     C_1   0.683149 0.791135 0.896045 0.026459
C84   C     C_R   0.064388 0.773010 0.078740 0.524233
C85   C     C_R   0.716584 0.440844 0.067090 0.552697
C86   C     C_R   0.718741 0.783230 0.080502 0.570720
C87   C     C_R   0.057343 0.766377 0.941451 0.540470
C88   C     C_R   0.710108 0.432002 0.929690 0.548808
C89   C     C_R   0.795235 0.389349 0.233646 0.291511
C90   C     C_R   0.716522 0.776221 0.943038 0.563506
Cr1   Cr    Cr6+3 0.416430 0.829200 0.492370 1.061851
Cr2   Cr    Cr6+3 0.674630 0.087020 0.504170 1.051751
Cr3   Cr    Cr6+3 0.408920 0.083740 0.503490 1.043566
Cr4   Cr    Cr6+3 0.914010 0.832750 0.013970 1.120603
Cr5   Cr    Cr6+3 0.922310 0.578600 0.003000 1.073674
Cr6   Cr    Cr6+3 0.656280 0.574630 0.003870 1.047232
H1    H     H_    0.895672 0.820376 0.232213 0.112586
H2    H     H_    0.939210 0.836325 0.319046 0.150831
H3    H     H_    0.070680 0.850628 0.385374 0.120035
H4    H     H_    0.812523 0.025604 0.376479 0.219716
H5    H     H_    0.541364 0.628326 0.130683 0.152764
H6    H     H_    0.438667 0.552348 0.204173 0.143573
H7    H     H_    0.430041 0.572382 0.292611 0.143363
H8    H     H_    0.500297 0.692888 0.370178 0.139209
H9    H     H_    0.868901 0.403765 0.873702 0.138516
H10   H     H_    0.806911 0.300135 0.631971 0.127048
H11   H     H_    0.950053 0.379609 0.795946 0.125686
H12   H     H_    0.929550 0.348774 0.707111 0.121450
H13   H     H_    0.501164 0.313403 0.880162 0.150360
H14   H     H_    0.376609 0.249607 0.806905 0.135164
H15   H     H_    0.358928 0.228272 0.718345 0.133391
H16   H     H_    0.447463 0.236835 0.641360 0.141970
H17   H     H_    0.242424 0.729639 0.707044 0.135210
H18   H     H_    0.500711 0.244057 0.199509 0.147462
H19   H     H_    0.220615 0.718100 0.794296 0.129951
H20   H     H_    0.711877 0.017395 0.727056 0.125440
H21   H     H_    0.715964 0.996216 0.814267 0.135808
H22   H     H_    0.594475 0.631747 0.781207 0.116624
H23   H     H_    0.590429 0.652933 0.693849 0.115130
H24   H     H_    0.482980 0.216731 0.285756 0.150665
H25   H     H_    0.425808 0.856637 0.183979 0.190153
H26   H     H_    0.473665 0.882624 0.269306 0.138660
H27   H     H_    0.948987 0.804133 0.149777 0.130719
O1    O     O_R   0.296680 0.802170 0.437540 -0.473268
O2    O     O_R   0.662610 0.183990 0.557860 -0.502241
O3    O     O_R   0.500730 0.201280 0.562180 -0.522642
O4    O     O_R   0.312500 0.978850 0.548170 -0.502574
O5    O     O_3   0.499990 0.999990 0.500010 -0.247731
O6    O     O_R   0.820790 0.857990 0.068830 -0.444891
O7    O     O_R   0.016700 0.827330 0.062850 -0.506682
O8    O     O_R   0.041970 0.673520 0.060040 -0.472786
O9    O     O_R   0.817980 0.483660 0.048840 -0.464998
O10   O     O_R   0.637200 0.461990 0.052510 -0.517885
O11   O     O_R   0.664790 0.681920 0.057970 -0.513083
O12   O     O_R   0.525380 0.838530 0.443500 -0.466099
O13   O     O_R   0.815840 0.852920 0.961840 -0.465108
O14   O     O_R   0.012100 0.822630 0.963670 -0.471186
O15   O     O_R   0.037010 0.668460 0.953040 -0.522703
O16   O     O_R   0.813390 0.478970 0.949660 -0.503703
O17   O     O_R   0.632250 0.456930 0.945520 -0.512311
O18   O     O_R   0.660200 0.677230 0.958780 -0.501819
O19   O     O_3   0.830870 0.661990 0.006950 -0.275255
O20   O     O_R   0.702130 0.995190 0.446810 -0.515832
O21   O     O_R   0.661770 0.181390 0.458760 -0.485155
O22   O     O_R   0.499820 0.198480 0.455280 -0.500061
O23   O     O_R   0.311660 0.976250 0.449080 -0.493491
O24   O     O_R   0.297580 0.804960 0.544440 -0.509295
O25   O     O_R   0.526220 0.841130 0.542590 -0.502654
O26   O     O_R   0.703030 0.997990 0.553710 -0.506062
O27   O     O_3   0.887775 0.414866 0.312174 -0.626848
H28   H     H_    0.868887 0.396511 0.345980 0.341564
S1    S     S_3+6 0.778705 0.040563 0.120331 0.082047
O28   O     O_2   0.706375 0.005532 0.073518 -0.279647
O29   O     O_2   0.757674 0.128337 0.150438 -0.253035
O30   O     O_3   0.922752 0.099515 0.107884 -0.440025
H29   H     H_    0.941037 0.170848 0.092871 0.376616
O31   O     O_3   0.922558 0.113779 0.207723 -0.558740
H30   H     H_    0.943957 0.186636 0.228345 0.397608
S2    S     S_3+6 0.985967 0.127384 0.314079 -0.004988
O32   O     O_2   0.088139 0.169039 0.280943 -0.238374
O33   O     O_2   0.971886 0.228290 0.334724 -0.263648
O34   O     O_3   0.016613 0.068983 0.359513 -0.569471
H31   H     H_    0.091868 0.131759 0.375042 0.373738
S3    S     S_3+6 0.937064 0.468493 0.209009 0.072927
O35   O     O_2   0.964380 0.384636 0.179356 -0.187041
O36   O     O_2   0.935913 0.552231 0.176388 -0.329714
O37   O     O_3   0.045225 0.542816 0.252123 -0.427800
H32   H     H_    0.031161 0.606118 0.266089 0.346882
S4    S     S_3+6 0.075163 0.998992 0.816614 0.046620
O38   O     O_2   0.952487 0.918752 0.831630 -0.251503
O39   O     O_2   0.153594 0.057547 0.861544 -0.307438
O40   O     O_3   0.070419 0.100219 0.785921 -0.449451
H33   H     H_    0.153950 0.161409 0.784709 0.340255
O41   O     O_3   0.104725 0.990711 0.708983 -0.664162
H34   H     H_    0.111073 0.982658 0.673422 0.324906
O42   O     O_3   0.301641 0.818129 0.109988 -0.687687
H35   H     H_    0.274219 0.815734 0.076469 0.335170
O43   O     O_3   0.444441 0.916403 0.361243 -0.687180
H36   H     H_    0.505191 0.972422 0.341203 0.309170

loop_
_geom_bond_atom_site_label_1
_geom_bond_atom_site_label_2
_ccdc_geom_bond_type
C30   O31   S    
C66   C68   A    
O31   H30   S    
C14   H26   S    
C2    H18   S    
S4    O38   D    
C35   C36   A    
C75   H21   S    
Cr2   O2    S    
Cr1   O24   S    
O43   H36   S    
S3    O36   D    
C53   C54   A    
C52   C53   A    
C46   C49   A    
Cr4   O7    S    
C15   O42   S    
C33   C42   A    
S3    O35   D    
C8    C85   S    
C29   C32   A    
C52   C61   A    
C85   O9    A    
C5    C6    S    
C65   C69   A    
C23   C26   S    
C48   H11   S    
C52   H16   S    
C58   C60   A    
C15   C16   A    
C11   C24   A    
C16   C84   S    
C13   H25   S    
C3    H24   S    
C18   C19   A    
C56   O4    A    
C84   O7    A    
Cr2   O20   S    
Cr3   O3    S    
C88   O17   A    
C60   H13   S    
Cr6   O18   S    
O41   H34   S    
C34   O25   A    
C86   O11   A    
C57   H14   S    
C45   O2    A    
C22   C25   A    
C50   H9    S    
Cr4   O13   S    
S2    O33   D    
Cr3   O22   S    
C47   C50   A    
C29   C30   A    
C35   C43   A    
C75   C80   A    
C10   C19   A    
C89   S3    S    
C18   C20   A    
C29   C41   A    
C40   C42   A    
C64   H19   S    
C13   C14   A    
Cr5   O8    S    
S4    O39   D    
C11   C15   A    
C87   O14   A    
C4    C7    S    
Cr2   O5    S    
Cr1   O25   S    
C81   C83   T    
C34   O26   A    
C44   C46   A    
C9    C26   A    
C17   C18   A    
C49   H12   S    
C54   C59   A    
C53   C55   A    
C78   C89   A    
C12   C67   S    
C27   H4    S    
Cr4   O6    S    
Cr1   O5    S    
Cr4   O19   S    
C47   C48   A    
C77   C79   A    
C76   C77   A    
C35   H8    S    
C74   C75   A    
C39   C40   A    
Cr6   O11   S    
C58   C59   A    
Cr6   O19   S    
C17   H3    S    
C76   H22   S    
C12   O21   A    
C65   S4    S    
C12   O22   A    
C51   C88   S    
C33   C86   S    
Cr3   O4    S    
C88   O16   A    
C4    C78   A    
C38   H7    S    
C1    O20   A    
C90   O13   A    
S2    O32   D    
C32   S1    S    
S1    O30   S    
C45   O3    A    
C74   H20   S    
C46   C54   A    
C50   C51   A    
S2    O34   S    
Cr1   O12   S    
Cr3   O23   S    
C64   C69   A    
S1    O28   D    
C25   H27   S    
Cr6   O10   S    
C1    C43   S    
C40   C41   A    
S1    O29   D    
C47   C59   A    
C74   C79   A    
C55   C57   A    
C10   C14   A    
C23   O23   A    
S4    O40   S    
C22   C24   A    
Cr2   O26   S    
C2    C5    A    
C17   C26   A    
C87   O15   A    
C3    C4    A    
C42   H5    S    
C73   C82   T    
O37   H32   S    
C72   C87   S    
O40   H33   S    
C78   O27   S    
C39   H6    S    
O34   H31   S    
C9    C10   A    
C16   C25   A    
C83   C90   S    
C63   C68   A    
C36   C37   A    
Cr5   O15   S    
C55   H15   S    
C28   C31   A    
C76   C80   A    
C80   C81   S    
C77   H23   S    
Cr5   O9    S    
Cr6   O17   S    
C79   C82   S    
C6    C8    T    
C86   O6    A    
C23   O1    A    
C44   H10   S    
C44   C61   A    
C84   O8    A    
Cr5   O16   S    
Cr1   O1    S    
C32   C33   A    
C56   O24   A    
O42   H35   S    
C19   C24   A    
Cr3   O5    S    
C1    O12   A    
C36   C38   A    
C11   C13   A    
C30   C31   A    
C57   C58   A    
C38   C39   A    
C28   C37   A    
C68   C71   S    
C48   C49   A    
C45   C61   S    
C62   C71   T    
C2    C3    A    
C56   C62   S    
S3    O37   S    
C37   C41   A    
C69   C70   S    
Cr2   O21   S    
C31   S2    S    
C90   O18   A    
C21   H1    S    
C34   C73   S    
C7    C67   T    
C63   C64   A    
C63   H17   S    
C27   C43   A    
C20   H2    S    
C20   C21   A    
Cr5   O19   S    
C65   C66   A    
O30   H29   S    
Cr4   O14   S    
O27   H28   S    
C66   O41   S    
C70   C72   T    
C51   C60   A    
C21   C22   A    
C5    C89   A    
C9    O43   S    
C85   O10   A    
C27   C28   A    
