data_mof_unit_16984.cif
_audit_creation_date              2012-12-11T19:41:48-0500
_audit_creation_method            fapswitch 2.2
_symmetry_space_group_name_H-M    P1
_symmetry_Int_Tables_number       1
_space_group_crystal_system       triclinic
_cell_length_a                    8.590805
_cell_length_b                    15.425354
_cell_length_c                    27.105892
_cell_angle_alpha                 100.039947
_cell_angle_beta                  93.203294
_cell_angle_gamma                 81.213972
_cell_volume                      3493.88087647

loop_
_atom_site_label
_atom_site_type_symbol
_atom_type_description
_atom_site_fract_x
_atom_site_fract_y
_atom_site_fract_z
_atom_type_partial_charge
Ba1   Ba    Ba6+2 0.860050 0.456430 0.522530 1.815115
Ba2   Ba    Ba6+2 0.329780 0.543490 0.477460 1.770345
C1    C     C_3   0.725463 0.161721 0.702832 0.704909
C2    C     C_R   0.874876 0.563885 0.176859 0.594892
C3    C     C_2   0.758596 0.536635 0.273199 -0.048705
C4    C     C_3   0.152443 0.253179 0.658647 0.621269
C5    C     C_3   0.736236 0.573065 0.328055 -0.078538
C6    C     C_1   0.992837 0.486174 0.343859 0.065045
C7    C     C_2   0.032404 0.484029 0.296537 -0.076663
C8    C     C_2   0.906913 0.505448 0.257050 0.176447
C9    C     C_R   0.002824 0.484117 0.100541 -0.139502
C10   C     C_R   0.077068 0.418002 0.127787 -0.127124
C11   C     C_R   0.173024 0.343358 0.101080 0.450169
C12   C     C_3   0.708974 0.213500 0.658101 0.774581
C13   C     C_R   0.894126 0.553791 0.124802 -0.019156
C14   C     C_2   0.855782 0.528132 0.361611 -0.243926
C15   C     C_2   0.329646 0.470314 0.639057 -0.359999
C16   C     C_3   0.125589 0.210600 0.704731 0.357836
C17   C     C_R   0.186528 0.413669 0.974017 -0.000407
C18   C     C_R   0.990802 0.546874 0.971183 -0.006469
C19   C     C_R   0.104163 0.478219 0.946951 0.026947
C20   C     C_R   0.319984 0.359864 0.951664 -0.136403
C21   C     C_R   0.353962 0.356204 0.901555 0.454965
C22   C     C_R   0.259608 0.412339 0.871939 -0.085186
C23   C     C_3   0.450572 0.716497 0.634018 0.386343
C24   C     C_R   0.140453 0.476271 0.895680 -0.135769
C25   C     C_R   0.055326 0.537584 0.867949 -0.091780
C26   C     C_R   0.081647 0.530650 0.816154 0.717892
C27   C     C_R   0.284293 0.408879 0.820092 0.685699
C28   C     C_3   0.160600 0.246182 0.391302 0.356183
C29   C     C_2   0.411270 0.443334 0.726812 0.358810
C30   C     C_3   0.437883 0.414803 0.670647 -0.073463
C31   C     C_1   0.202332 0.520947 0.658030 0.068916
C32   C     C_2   0.174384 0.537931 0.707482 0.363792
C33   C     C_2   0.262661 0.478324 0.742267 0.105779
C34   C     C_3   0.448064 0.760009 0.690176 0.347118
C35   C     C_R   0.143231 0.410240 0.023968 -0.026312
C36   C     C_R   0.033969 0.480457 0.048734 0.005016
C37   C     C_R   0.948630 0.544722 0.021406 0.080823
C38   C     C_R   0.196939 0.336752 0.049449 0.082152
C39   C     C_R   0.796789 0.608266 0.095923 -0.056999
C40   C     C_3   0.261974 0.161030 0.365634 0.603830
C41   C     C_R   0.935065 0.618632 0.945029 0.387642
C42   C     C_R   0.953937 0.609169 0.893384 0.007247
C43   C     C_R   0.813690 0.598225 0.044170 0.169684
C44   C     C_R   0.829705 0.830172 0.465426 -0.043816
C45   C     C_3   0.989136 0.787039 0.349709 0.381382
C46   C     C_R   0.768569 0.922338 0.470333 -0.017121
C47   C     C_R   0.644886 0.109417 0.478796 0.029006
C48   C     C_R   0.782870 0.070152 0.451638 0.168974
C49   C     C_R   0.843933 0.980118 0.449493 -0.014835
C50   C     C_R   0.588044 0.204179 0.488633 0.149730
C51   C     C_R   0.451818 0.233733 0.516523 -0.047428
C52   C     C_3   0.947368 0.748409 0.630794 0.743128
C53   C     C_R   0.602421 0.805574 0.508887 0.078268
C54   C     C_R   0.545334 0.898881 0.516279 -0.147592
C55   C     C_R   0.623455 0.956563 0.493904 -0.001703
C56   C     C_3   0.020083 0.828826 0.304414 0.276301
C57   C     C_R   0.406442 0.937029 0.541505 0.400701
C58   C     C_R   0.325913 0.017367 0.532688 0.406055
C59   C     C_R   0.407505 0.080970 0.517586 -0.062740
C60   C     C_R   0.560186 0.049703 0.497655 0.007150
C61   C     C_R   0.350899 0.174108 0.525969 0.072175
C62   C     C_R   0.734759 0.772842 0.479668 -0.097346
C63   C     C_3   0.992564 0.843888 0.644590 0.343030
C64   C     C_3   0.686739 0.281573 0.354293 0.665956
C65   C     C_3   0.771156 0.205661 0.315373 -0.000660
C66   C     C_3   0.532734 0.762222 0.341785 0.272234
C67   C     C_3   0.451147 0.850456 0.328599 -0.058610
C68   C     C_R   0.042695 0.425812 0.179737 0.662705
Cl1   Cl    Cl    0.828825 0.151340 0.609579 -0.581182
Cl2   Cl    Cl    0.662485 0.230372 0.759742 -0.369014
Cl3   Cl    Cl    0.304280 0.171864 0.735088 -0.397063
Cl4   Cl    Cl    0.994991 0.946721 0.319025 -0.599480
Cl5   Cl    Cl    0.032408 0.357037 0.658454 -0.656614
Cl6   Cl    Cl    0.260762 0.251647 0.129529 -0.467642
Cl7   Cl    Cl    0.574140 0.450893 0.769816 -0.493975
Cl8   Cl    Cl    0.526512 0.284973 0.880250 -0.429012
Cl9   Cl    Cl    0.886289 0.729565 0.975786 -0.566011
Cl10  Cl    Cl    0.152942 0.651461 0.734389 -0.537594
Cl11  Cl    Cl    0.120314 0.020142 0.533447 -0.552930
Cl12  Cl    Cl    0.266996 0.070920 0.398991 -0.766043
Cl13  Cl    Cl    0.337561 0.902635 0.593088 -0.553539
Cl14  Cl    Cl    0.195056 0.127456 0.302734 -0.509177
Cl15  Cl    Cl    0.819781 0.731073 0.676600 -0.527512
Cl16  Cl    Cl    0.055279 0.870538 0.708970 -0.410143
Cl17  Cl    Cl    0.519751 0.333082 0.322573 -0.631185
Cl18  Cl    Cl    0.521551 0.211048 0.630096 -0.764397
Cl19  Cl    Cl    0.626646 0.066406 0.693342 -0.401659
Cl20  Cl    Cl    0.471633 0.874662 0.702067 -0.328951
H1    H     H_    0.384737 0.174013 0.364001 0.064657
H2    H     H_    0.141462 0.804272 0.291350 0.064690
H3    H     H_    0.936001 0.810268 0.273095 0.068515
H4    H     H_    0.640965 0.742093 0.319462 0.022958
H5    H     H_    0.564858 0.772633 0.382538 -0.003178
H6    H     H_    0.346160 0.874994 0.352047 0.195572
H7    H     H_    0.411998 0.840145 0.288477 0.149062
H8    H     H_    0.155200 0.468506 0.286564 0.163143
H9    H     H_    0.405240 0.322697 0.973458 0.114459
H10   H     H_    0.661053 0.549143 0.246961 0.123229
H11   H     H_    0.697979 0.654017 0.112788 0.130927
H12   H     H_    0.092439 0.846492 0.621412 0.119833
H13   H     H_    0.268284 0.273228 0.662948 0.048789
H14   H     H_    0.902933 0.663339 0.874187 0.186542
H15   H     H_    0.824987 0.527999 0.399716 0.070993
H16   H     H_    0.369471 0.477139 0.602878 0.100620
H17   H     H_    0.951346 0.955807 0.429583 0.160724
H18   H     H_    0.073740 0.149361 0.691060 0.130811
H19   H     H_    0.039371 0.232763 0.394836 0.053924
H20   H     H_    0.794358 0.789870 0.577866 0.140243
H21   H     H_    0.964625 0.736856 0.555442 0.109060
H22   H     H_    0.901328 0.974182 0.644226 0.277052
H23   H     H_    0.848904 0.135165 0.709830 -0.023283
H24   H     H_    0.768675 0.908397 0.654230 0.297742
H25   H     H_    0.830078 0.363486 0.340224 0.108920
H26   H     H_    0.724783 0.401927 0.391872 0.164845
H27   H     H_    0.646726 0.107692 0.328642 0.208673
H28   H     H_    0.573307 0.158642 0.280121 0.269451
H29   H     H_    0.480412 0.599122 0.662034 0.095739
H30   H     H_    0.623722 0.607722 0.625596 0.250426
H31   H     H_    0.942142 0.674843 0.302714 0.131638
H32   H     H_    0.127340 0.667300 0.326754 0.210553
H33   H     H_    0.504972 0.972461 0.322945 0.261489
H34   H     H_    0.883706 0.176951 0.331601 0.136375
H35   H     H_    0.576932 0.935111 0.375358 0.188547
H36   H     H_    0.201951 0.239092 0.986219 0.221021
H37   H     H_    0.372155 0.235385 0.024116 0.230054
H38   H     H_    0.590227 0.593933 0.017847 0.176676
H39   H     H_    0.641456 0.696626 0.029499 0.249000
H40   H     H_    0.861221 0.086097 0.386303 0.222525
H41   H     H_    0.978975 0.114159 0.436218 0.262776
H42   H     H_    0.397782 0.330578 0.574965 0.160791
H43   H     H_    0.325372 0.359219 0.520045 0.170851
H44   H     H_    0.077998 0.323862 0.757073 0.215693
H45   H     H_    0.801130 0.232873 0.282280 0.143838
H46   H     H_    0.009106 0.235285 0.770836 0.246482
H47   H     H_    0.867618 0.653441 0.484135 0.195146
H48   H     H_    0.793509 0.670120 0.425838 0.126463
H49   H     H_    0.318484 0.309912 0.437309 0.158385
H50   H     H_    0.142088 0.309339 0.463697 0.193561
H51   H     H_    0.329385 0.728730 0.618734 0.085359
H52   H     H_    0.334523 0.755008 0.705442 0.113863
H53   H     H_    0.539870 0.724414 0.712755 0.111511
H54   H     H_    0.865211 0.811824 0.360638 -0.017520
N1    N     N_R   0.943546 0.498530 0.203904 -0.435093
N2    N     N_3   0.249207 0.248849 0.022786 -0.415290
N3    N     N_3   0.681132 0.630281 0.014369 -0.443417
N4    N     N_3   0.862039 0.118326 0.423355 -0.466982
N5    N     N_3   0.421417 0.326093 0.537521 -0.465471
N6    N     N_3   0.022564 0.269376 0.741570 -0.434205
N7    N     N_3   0.770359 0.679333 0.463774 -0.462744
N8    N     N_3   0.229638 0.272152 0.440495 -0.554297
N9    N     N_R   0.210925 0.474924 0.793737 -0.434581
N10   N     N_3   0.877527 0.734941 0.580567 -0.494069
N11   N     N_3   0.864817 0.911899 0.633186 -0.479527
N12   N     N_3   0.791994 0.345634 0.372321 -0.504028
N13   N     N_3   0.677179 0.133855 0.298075 -0.405284
N14   N     N_3   0.501865 0.620577 0.628963 -0.520474
N15   N     N_3   0.009531 0.690367 0.335419 -0.526009
N16   N     N_3   0.560056 0.915893 0.336724 -0.488176
O1    O     O_2   0.906480 0.548660 0.619050 -0.412048
O2    O     O_2   0.151892 0.822143 0.484230 -0.410471
O3    O     O_3   0.095211 0.811333 0.389476 -0.555671
O4    O     O_3   0.138490 0.548590 0.558870 -0.499680
O5    O     O_3   0.572560 0.389960 0.472890 -0.476985
O6    O     O_2   0.345660 0.723580 0.528500 -0.443278
O7    O     O_3   0.550248 0.755201 0.607608 -0.558584
O8    O     O_2   0.424478 0.528895 0.325142 -0.418915
O9    O     O_3   0.431588 0.697311 0.329891 -0.599552
O10   O     O_2   0.098600 0.367272 0.203243 -0.479518
O11   O     O_2   0.365004 0.343869 0.797698 -0.421680
O12   O     O_3   0.634642 0.244584 0.393116 -0.653273
O13   O     O_2   0.797776 0.631954 0.198198 -0.599908
O14   O     O_2   0.984139 0.571472 0.791110 -0.460768
O15   O     O_3   0.686300 0.382310 0.585700 -0.415863
O16   O     O_2   0.731056 0.471021 0.675581 -0.359250
O17   O     O_3   0.085850 0.689406 0.631613 -0.654947
O18   O     O_3   0.756684 0.299300 0.674169 -0.529896
O19   O     O_2   0.844040 0.276390 0.471470 -0.458821
O20   O     O_3   0.101510 0.335500 0.560330 -0.468741
O21   O     O_2   0.023311 0.187622 0.523823 -0.358395
O22   O     O_3   0.135378 0.189145 0.614791 -0.509888
O23   O     O_2   0.283210 0.451310 0.380920 -0.385935
O24   O     O_3   0.051220 0.451340 0.441120 -0.531289
O25   O     O_3   0.503410 0.617620 0.414290 -0.453072
O26   O     O_3   0.158778 0.310798 0.360469 -0.577008
O27   O     O_3   0.617150 0.609960 0.527100 -0.452499
O28   O     O_3   0.088210 0.664420 0.439670 -0.476450
P1    P     P_3+3 0.071950 0.575820 0.612140 1.116491
P2    P     P_3+3 0.664370 0.290050 0.457240 1.043905
P3    P     P_3+3 0.158965 0.222746 0.556977 1.146337
P4    P     P_3+3 0.117760 0.424110 0.387850 1.040647
P5    P     P_3+3 0.036338 0.781341 0.444442 1.014337
P6    P     P_3+3 0.648746 0.391398 0.649957 1.194703
P7    P     P_3+3 0.527504 0.723526 0.542096 1.075410
P8    P     P_3+3 0.526957 0.599854 0.349416 1.005121

loop_
_geom_bond_atom_site_label_1
_geom_bond_atom_site_label_2
_ccdc_geom_bond_type
C53   P7    S    
C53   C54   A    
C7    H8    S    
H25   N12   S    
C51   C61   A    
C12   Cl1   S    
C40   Cl12  S    
C19   C24   A    
C67   H6    S    
C65   H34   S    
C42   H14   S    
H35   N16   S    
C63   Cl16  S    
C52   C63   S    
C45   N15   S    
C23   O7    S    
O18   P6    S    
C24   C25   A    
C4    O22   S    
C28   O26   S    
C64   O12   S    
C17   C19   A    
C34   H53   S    
C57   Cl13  S    
C32   C33   S    
C35   C38   A    
H26   N12   S    
C36   C37   A    
Ba1   O20   S    
H33   N16   S    
O3    P5    S    
C41   Cl9   S    
H44   N6    S    
H49   N8    S    
C67   N16   S    
C54   C55   A    
C31   P1    S    
Ba1   Ba2   S    
C66   O9    S    
C59   C61   A    
C34   H52   S    
Ba2   O27   S    
C11   C38   A    
C10   C68   A    
C17   C35   A    
C32   Cl10  S    
C22   C27   A    
C9    C13   A    
C25   C42   A    
C46   C49   A    
Ba1   O4    S    
C39   H11   S    
C66   C67   S    
H22   N11   S    
C21   C22   A    
C3    H10   S    
C20   H9    S    
C7    C8    S    
Ba2   O6    S    
O15   P6    S    
H47   N7    S    
C37   C43   A    
C45   O3    S    
Ba1   P2    S    
C64   C65   S    
Ba1   O1    S    
C57   C58   A    
C6    C14   D    
O23   P4    D    
H30   N14   S    
H42   N5    S    
C59   C60   A    
C15   C31   D    
C63   H12   S    
C34   Cl20  S    
Ba1   O24   S    
C29   Cl7   S    
O9    P8    S    
Ba2   O28   S    
Ba1   O27   S    
H36   N2    S    
C4    C16   S    
C44   C46   A    
C66   H5    S    
O17   P1    S    
C28   H19   S    
H40   N4    S    
C4    Cl5   S    
C17   C20   A    
H43   N5    S    
O6    P7    D    
C13   C39   A    
O1    P1    D    
C1    H23   S    
Ba2   O4    S    
C64   Cl17  S    
C51   N5    S    
C18   C37   A    
C6    C7    D    
Ba2   O24   S    
C8    N1    S    
O12   P2    S    
H27   N13   S    
C45   H54   S    
C66   H4    S    
C44   C62   A    
C58   C59   A    
C9    C36   A    
C65   H45   S    
C41   C42   A    
C35   C36   A    
H20   N10   S    
C58   Cl11  S    
C28   N8    S    
C29   C30   S    
C11   Cl6   S    
Ba1   O5    S    
H32   N15   S    
C47   C50   A    
C53   C62   A    
C18   C19   A    
O24   P4    S    
C48   C49   A    
C40   Cl14  S    
H41   N4    S    
C65   N13   S    
C68   N1    Am   
C50   P2    S    
C4    H13   S    
C27   O11   D    
Ba2   O5    S    
C12   O18   S    
C1    C12   S    
C14   H15   S    
O21   P3    D    
C30   P6    S    
C5    C14   S    
O28   P5    S    
C16   Cl3   S    
C2    O13   D    
H31   N15   S    
C26   N9    Am   
C29   C33   D    
O22   P3    S    
C55   C60   A    
O25   P8    S    
O4    P1    S    
H24   N11   S    
C23   N14   S    
C18   C41   A    
C50   C51   A    
C56   Cl4   S    
C44   P5    S    
C3    C5    S    
H37   N2    S    
C48   N4    S    
H50   N8    S    
Ba1   O15   S    
C47   C60   A    
O27   P7    S    
C43   N3    S    
O7    P7    S    
C56   H3    S    
C23   H51   S    
C33   N9    S    
Ba2   P4    S    
O20   P3    S    
C52   N10   S    
C52   Cl15  S    
H46   N6    S    
C9    C10   A    
C54   C57   A    
H38   N3    S    
Ba2   O25   S    
H48   N7    S    
C52   O17   S    
C38   N2    S    
C1    Cl19  S    
C2    C13   A    
C1    Cl2   S    
C68   O10   D    
C27   N9    Am   
C12   Cl18  S    
C3    C8    D    
C63   N11   S    
C15   H16   S    
C45   C56   S    
C64   N12   S    
Ba1   O19   S    
C22   C24   A    
C26   O14   D    
O19   P2    D    
C6    P4    S    
H29   N14   S    
C61   P3    S    
C2    N1    Am   
O2    P5    D    
C31   C32   D    
Ba2   O23   S    
C21   Cl8   S    
O26   P4    S    
C62   N7    S    
H21   N10   S    
C16   H18   S    
H39   N3    S    
O5    P2    S    
C23   C34   S    
C46   C55   A    
C10   C11   A    
C49   H17   S    
C47   C48   A    
O8    P8    D    
C25   C26   A    
C15   C30   S    
C39   C43   A    
C20   C21   A    
C28   C40   S    
H28   N13   S    
O16   P6    D    
C5    P8    S    
C16   N6    S    
C56   H2    S    
C40   H1    S    
Ba1   P1    S    
C67   H7    S    
