data_mof_unit_20888.cif
_audit_creation_date              2013-03-05T15:49:57-0500
_audit_creation_method            fapswitch 2.2
_symmetry_space_group_name_H-M    P1
_symmetry_Int_Tables_number       1
_space_group_crystal_system       triclinic
_cell_length_a                    6.92972
_cell_length_b                    19.866731
_cell_length_c                    23.778152
_cell_angle_alpha                 93.286981
_cell_angle_beta                  91.218005
_cell_angle_gamma                 88.894791
_cell_volume                      3266.89985565

loop_
_atom_site_label
_atom_site_type_symbol
_atom_site_description
_atom_site_fract_x
_atom_site_fract_y
_atom_site_fract_z
_atom_type_partial_charge
O1    O     O_R   0.620100 0.812200 0.810870 -0.607242
O2    O     O_R   0.379900 0.187800 0.189130 -0.606954
O3    O     O_R   0.296960 0.671650 0.794750 -0.576984
O4    O     O_R   0.703040 0.328350 0.205250 -0.577686
O5    O     O_R   0.120160 0.687800 0.689130 -0.560151
O6    O     O_R   0.879840 0.312200 0.310870 -0.550944
C1    C     C_R   0.467610 0.646660 0.804053 1.111202
C2    C     C_R   0.532455 0.352979 0.195444 1.103116
O7    O     O_R   0.290810 0.810670 0.817290 -0.597215
O8    O     O_R   0.709190 0.189330 0.182710 -0.598359
O9    O     O_R   0.113980 0.827820 0.711840 -0.584810
O10   O     O_R   0.886020 0.172180 0.288160 -0.555332
C3    C     C_R   0.459680 0.831875 0.834198 0.970602
C4    C     C_R   0.540306 0.168169 0.165767 0.976240
O11   O     O_R   0.626290 0.672180 0.788160 -0.592129
O12   O     O_R   0.373710 0.327820 0.211840 -0.585361
O13   O     O_3   0.451520 0.755460 0.715370 -0.231492
O14   O     O_3   0.548480 0.244540 0.284630 -0.228441
V1    V     V_3+5 0.179200 0.748980 0.756420 1.267893
V2    V     V_3+5 0.820800 0.251020 0.243580 1.284356
O15   O     O_R   0.783880 0.828350 0.705250 -0.602097
O16   O     O_R   0.216120 0.171650 0.294750 -0.602371
C5    C     C_R   0.950255 0.852297 0.693750 1.070522
C6    C     C_R   0.050385 0.147046 0.305741 1.033417
O17   O     O_R   0.790030 0.689320 0.682700 -0.546719
O18   O     O_R   0.209970 0.310680 0.317300 -0.579672
C7    C     C_R   0.958924 0.668418 0.665367 1.130032
C8    C     C_R   0.041118 0.330571 0.334891 1.122614
V3    V     V_3+5 0.678400 0.751010 0.743570 1.271471
V4    V     V_3+5 0.321600 0.248990 0.256430 1.271287
O19   O     O_3   0.955950 0.744540 0.784620 -0.289454
O20   O     O_3   0.044050 0.255460 0.215380 -0.287030
C9    C     C_R   0.152702 0.433390 0.389840 0.501169
C10   C     C_R   0.843948 0.563783 0.610538 0.439625
C11   C     C_R   0.033441 0.377109 0.386020 -0.456836
C12   C     C_R   0.971958 0.618253 0.616089 -0.449942
C13   C     C_R   0.911806 0.364463 0.430929 0.425711
C14   C     C_R   0.122175 0.622470 0.576952 0.490087
C15   C     C_R   0.903863 0.410466 0.479409 -0.009030
C16   C     C_R   0.147091 0.571406 0.532676 -0.044966
C17   C     C_R   0.029853 0.466623 0.483000 -0.059668
C18   C     C_R   0.019288 0.515775 0.528977 -0.062773
C19   C     C_R   0.166208 0.474017 0.440398 -0.121483
C20   C     C_R   0.879724 0.509248 0.570925 -0.128873
C21   C     C_R   0.781809 0.401128 0.525611 0.047033
C22   C     C_R   0.301080 0.571605 0.493699 0.054569
C23   C     C_R   0.781164 0.447722 0.572271 0.451522
C24   C     C_R   0.314725 0.521034 0.450057 0.426911
C25   C     C_R   0.950427 0.914901 0.662157 -0.332668
C26   C     C_R   0.061609 0.084317 0.337588 -0.302277
C27   C     C_R   0.869063 0.034375 0.661489 0.510568
C28   C     C_R   0.245415 0.980437 0.349486 0.553027
C29   C     C_R   0.885913 0.974632 0.689487 -0.284682
C30   C     C_R   0.185874 0.033258 0.316880 -0.255441
C31   C     C_R   0.992834 0.914828 0.604347 0.448357
C32   C     C_R   0.986306 0.079475 0.391932 0.464235
C33   C     C_R   0.006988 0.977116 0.577071 -0.094704
C34   C     C_R   0.072598 0.033289 0.430068 -0.111477
C35   C     C_R   0.940066 0.037841 0.605817 -0.114843
C36   C     C_R   0.201750 0.982016 0.407855 -0.111267
C37   C     C_R   0.084132 0.980635 0.521769 0.021677
C38   C     C_R   0.038836 0.037196 0.489697 0.004525
C39   C     C_R   0.997418 0.098966 0.520455 0.176333
C40   C     C_R   0.232569 0.935995 0.501727 0.159331
C41   C     C_R   0.953256 0.099518 0.578298 0.058269
C42   C     C_R   0.290489 0.936462 0.445030 0.103306
H1    H     H_    0.237539 0.034548 0.274216 0.189864
H2    H     H_    0.837659 0.973891 0.732537 0.197913
C43   C     C_R   0.481611 0.585828 0.836254 -0.321742
C44   C     C_R   0.519478 0.413517 0.162763 -0.315809
C45   C     C_R   0.492856 0.463862 0.834603 0.590639
C46   C     C_R   0.517161 0.535428 0.163936 0.584848
C47   C     C_R   0.505148 0.523599 0.807043 -0.296277
C48   C     C_R   0.505065 0.476051 0.191831 -0.269364
C49   C     C_R   0.466298 0.589386 0.895196 0.405774
C50   C     C_R   0.530928 0.409425 0.103681 0.403400
C51   C     C_R   0.484972 0.529227 0.925145 -0.055578
C52   C     C_R   0.515306 0.469553 0.073425 -0.053845
C53   C     C_R   0.467501 0.466095 0.893847 -0.224984
C54   C     C_R   0.537304 0.532783 0.104514 -0.226471
C55   C     C_R   0.514081 0.529215 0.984928 0.055320
C56   C     C_R   0.485957 0.469486 0.013548 0.056014
C57   C     C_R   0.415563 0.413096 0.981860 -0.192969
C58   C     C_R   0.585613 0.585578 0.016268 -0.193091
C59   C     C_R   0.416776 0.409179 0.923203 0.532143
C60   C     C_R   0.588032 0.589461 0.074849 0.533915
H3    H     H_    0.494223 0.478730 0.237213 0.234291
H4    H     H_    0.523999 0.521409 0.761841 0.231849
H5    H     H_    0.353664 0.371702 0.002274 0.211323
H6    H     H_    0.646218 0.626966 0.995480 0.209537
C61   C     C_R   0.658056 0.063627 0.112376 -0.137323
C62   C     C_R   0.342171 0.936558 0.887460 -0.142977
C63   C     C_R   0.529678 0.118926 0.116462 -0.184706
C64   C     C_R   0.470344 0.881192 0.883444 -0.181767
C65   C     C_R   0.389518 0.126632 0.073912 -0.110661
C66   C     C_R   0.610537 0.873517 0.925981 -0.112177
C67   C     C_R   0.376077 0.079828 0.027023 0.095640
C68   C     C_R   0.624165 0.920385 0.972811 0.096010
C69   C     C_R   0.505627 0.023722 0.023363 -0.044645
C70   C     C_R   0.494678 0.976510 0.976450 -0.044460
C71   C     C_R   0.647548 0.015364 0.066409 0.023316
C72   C     C_R   0.352821 0.984879 0.933387 0.025672
C73   C     C_R   0.236963 0.088711 0.983561 0.024327
C74   C     C_R   0.763453 0.911551 0.016228 0.022956
C75   C     C_R   0.224309 0.041033 0.937250 0.382210
C76   C     C_R   0.776266 0.959273 0.062496 0.384353
H7    H     H_    0.764527 0.058554 0.145873 0.179972
H8    H     H_    0.235713 0.941618 0.853957 0.177139
H9    H     H_    0.292977 0.170125 0.077399 0.158674
H10   H     H_    0.706986 0.829997 0.922524 0.158287
Cl1   Cl    Cl    0.247853 0.460583 0.326495 -0.559038
Cl2   Cl    Cl    0.621499 0.569757 0.646529 -0.585175
Cl3   Cl    Cl    0.322036 0.334678 0.890387 -0.474732
Cl4   Cl    Cl    0.687140 0.663674 0.106927 -0.465697
Cl5   Cl    Cl    0.606726 0.330713 0.071423 -0.687272
Cl6   Cl    Cl    0.384582 0.667182 0.927802 -0.683004
Cl7   Cl    Cl    0.532500 0.389086 0.792495 -0.413425
Cl8   Cl    Cl    0.484626 0.610455 0.206287 -0.408303
N1    N     N_2   0.113679 0.147073 0.985733 -0.097566
H11   H     H_    0.093439 0.169066 0.947767 0.270213
C77   C     C_3   0.935313 0.139219 0.014878 -0.751432
H12   H     H_    0.843505 0.101582 0.991311 0.263069
H13   H     H_    0.855485 0.188230 0.018247 0.280984
H14   H     H_    0.965423 0.122833 0.058103 0.235162
N2    N     N_2   0.886752 0.853191 0.014059 -0.097452
H15   H     H_    0.907238 0.831260 0.052043 0.271460
C78   C     C_3   0.064919 0.860990 0.984801 -0.750671
H16   H     H_    0.156906 0.898632 0.008293 0.262713
H17   H     H_    0.034542 0.877338 0.941578 0.235447
H18   H     H_    0.144682 0.811967 0.981421 0.281030
Cl9   Cl    Cl    0.042117 0.051897 0.884929 -0.617932
Cl10  Cl    Cl    0.959029 0.948568 0.114668 -0.607015
Cl11  Cl    Cl    0.774106 0.289979 0.423871 -0.615941
Cl12  Cl    Cl    0.261769 0.696893 0.581697 -0.561379
N3    N     N_2   0.661244 0.344017 0.526661 -0.067237
H19   H     H_    0.701990 0.309770 0.555896 0.207022
C79   C     C_3   0.454789 0.357091 0.522387 -0.650067
H20   H     H_    0.396051 0.330425 0.483689 0.241023
H21   H     H_    0.420383 0.411751 0.520340 0.226297
H22   H     H_    0.381763 0.338392 0.559459 0.235678
N4    N     N_2   0.450542 0.619867 0.499847 -0.070399
H23   H     H_    0.586950 0.599337 0.505418 0.218493
C80   C     C_3   0.442789 0.671527 0.459150 -0.587629
H24   H     H_    0.551066 0.710529 0.471181 0.233307
H25   H     H_    0.297615 0.696272 0.458381 0.250831
H26   H     H_    0.475337 0.649760 0.416304 0.267730
Cl13  Cl    Cl    0.683791 0.420481 0.635465 -0.531067
Cl14  Cl    Cl    0.538445 0.509926 0.415227 -0.603063
N5    N     N_2   0.943582 0.163478 0.608429 -0.134615
H27   H     H_    0.808977 0.181659 0.619771 0.230162
C81   C     C_3   0.104887 0.180338 0.645986 -0.628870
H28   H     H_    0.093205 0.234281 0.660691 0.262923
H29   H     H_    0.243337 0.172078 0.623782 0.220955
H30   H     H_    0.106562 0.149046 0.683137 0.281546
N6    N     N_2   0.449315 0.894723 0.426872 -0.078976
H31   H     H_    0.441419 0.844121 0.433814 0.196037
C82   C     C_3   0.639369 0.923395 0.434921 -0.732504
H32   H     H_    0.724334 0.912357 0.396348 0.285099
H33   H     H_    0.716212 0.900435 0.470723 0.244663
H34   H     H_    0.631328 0.979037 0.443245 0.250681
Cl15  Cl    Cl    0.762016 0.120120 0.406017 -0.625897
Cl16  Cl    Cl    0.980652 0.836821 0.564691 -0.661864
Cl17  Cl    Cl    0.737245 0.099463 0.697821 -0.594719
Cl18  Cl    Cl    0.372510 0.914315 0.312746 -0.518851
N7    N     N_2   0.026742 0.161740 0.495603 -0.083369
H35   H     H_    0.943446 0.201805 0.511278 0.225417
C83   C     C_3   0.225834 0.179377 0.487797 -0.791754
H36   H     H_    0.229976 0.223238 0.460990 0.254051
H37   H     H_    0.307847 0.137087 0.466411 0.267856
H38   H     H_    0.296732 0.193177 0.528987 0.235729
N8    N     N_2   0.345074 0.898850 0.540971 -0.078623
H39   H     H_    0.406967 0.854168 0.525643 0.224142
C84   C     C_3   0.473914 0.938694 0.577634 -0.803807
H40   H     H_    0.549346 0.905522 0.607378 0.268053
H41   H     H_    0.392685 0.978111 0.602777 0.250527
H42   H     H_    0.582873 0.963293 0.552581 0.236869

loop_
_geom_bond_atom_site_label_1
_geom_bond_atom_site_label_2
_geom_bond_distance
_ccdc_geom_bond_type
C34   C38   1.439403 A    
C80   H26   1.109640 S    
V4    O20   2.143261 S    
N8    H39   1.029391 S    
C39   C41   1.414752 A    
N7    H35   1.031051 S    
N6    C82   1.449605 S    
O13   V3    1.698799 S    
C17   C18   1.425599 A    
C62   C64   1.400625 A    
O4    C2    1.292365 A    
V1    O19   1.704977 S    
C74   C76   1.412986 A    
C55   C56   1.419975 A    
N3    H19   1.031672 S    
C75   Cl9   1.772543 S    
C84   H40   1.110030 S    
C16   C22   1.428400 A    
C79   H21   1.110872 S    
O9    V1    1.980890 S    
C82   H32   1.109455 S    
C18   C20   1.416935 A    
C11   C13   1.411068 A    
C58   C60   1.390423 A    
O3    C1    1.293315 A    
N5    C81   1.448058 S    
C42   N6    1.424540 S    
C9    C11   1.400800 A    
C52   C54   1.429616 A    
C5    C25   1.489435 S    
O12   V4    1.983868 S    
C80   H24   1.110448 S    
C50   Cl5   1.776921 S    
C10   Cl2   1.777669 S    
C72   C75   1.414029 A    
N3    C79   1.451602 S    
O7    V1    1.995164 S    
C2    O12   1.293727 A    
C81   H30   1.108710 S    
C29   H2    1.084594 S    
O7    C3    1.299284 A    
C77   H14   1.110197 S    
C54   C60   1.416313 A    
C28   C36   1.425235 A    
C1    O11   1.292335 A    
O5    C7    1.296437 A    
C62   H8    1.081825 S    
O6    C8    1.293519 A    
C74   N2    1.426097 S    
C8    C11   1.485813 S    
O8    V2    1.995165 S    
C66   C68   1.412756 A    
C44   C48   1.389548 A    
C81   H28   1.110039 S    
C43   C47   1.391415 A    
O14   V4    1.698799 S    
C48   H3    1.081482 S    
C22   N4    1.424507 S    
C19   C24   1.409577 A    
C4    C63   1.484769 S    
C10   C12   1.411033 A    
C20   C23   1.413930 A    
C62   C72   1.413756 A    
C15   C21   1.423234 A    
C51   C53   1.427071 A    
C36   C42   1.423274 A    
N7    C83   1.448333 S    
C6    C26   1.494833 S    
C17   C19   1.415524 A    
C58   H6    1.079601 S    
C61   C71   1.413661 A    
C45   C53   1.421390 A    
C67   C69   1.417582 A    
C28   C30   1.391258 A    
O11   V3    1.983868 S    
C83   H38   1.108947 S    
C23   Cl13  1.776674 S    
C21   C23   1.403610 A    
O15   C5    1.296090 A    
O17   V3    2.000739 S    
C57   H5    1.078948 S    
C79   H22   1.111261 S    
C22   C24   1.405759 A    
C21   N3    1.423626 S    
C45   Cl7   1.763573 S    
C9    C19   1.411488 A    
C61   H7    1.081800 S    
C10   C20   1.416012 A    
C83   H37   1.110102 S    
C65   H9    1.082998 S    
C83   H36   1.109875 S    
C45   C47   1.393084 A    
C30   H1    1.084785 S    
C25   C31   1.411680 A    
O15   V3    1.989354 S    
C32   Cl15  1.767100 S    
C26   C32   1.412877 A    
C46   C54   1.420638 A    
C27   C29   1.395528 A    
C40   C42   1.415370 A    
C37   C40   1.417361 A    
C76   Cl10  1.772378 S    
C78   H17   1.110205 S    
C47   H4    1.083779 S    
C38   C39   1.419724 A    
C61   C63   1.400550 A    
N8    C84   1.448713 S    
C52   C56   1.433849 A    
C69   C70   1.417410 A    
C51   C55   1.431538 A    
V3    O19   2.143262 S    
O3    V1    1.984288 S    
O10   V2    1.980892 S    
C70   C72   1.418759 A    
C73   C75   1.413138 A    
C26   C30   1.392827 A    
C64   C66   1.400099 A    
C49   C51   1.428294 A    
C77   H12   1.110420 S    
C67   C73   1.414384 A    
N1    C77   1.445211 S    
C28   Cl18  1.766627 S    
C9    Cl1   1.773295 S    
C46   C48   1.390830 A    
C27   Cl17  1.764270 S    
C69   C71   1.418742 A    
O18   V4    2.000739 S    
C82   H34   1.112328 S    
C68   C70   1.417587 A    
C59   Cl3   1.764610 S    
C31   C33   1.435614 A    
C44   C50   1.406399 A    
N2    H15   1.031035 S    
O16   C6    1.294351 A    
O1    C3    1.296484 A    
C78   H16   1.110394 S    
C53   C59   1.416225 A    
C55   C58   1.401750 A    
V2    O20   1.704978 S    
C84   H42   1.109314 S    
C71   C76   1.413994 A    
C80   H25   1.111416 S    
C14   Cl12  1.779321 S    
O16   V4    1.989352 S    
C57   C59   1.392641 A    
C2    C44   1.469175 S    
C73   N1    1.426074 S    
C31   Cl16  1.769770 S    
C50   C52   1.430554 A    
C16   C18   1.427205 A    
C1    C43   1.467885 S    
N1    H11   1.031037 S    
C65   C67   1.412937 A    
C33   C37   1.435866 A    
O5    V1    1.993277 S    
C7    C12   1.497164 S    
O17   C7    1.301632 A    
O6    V2    1.993276 S    
C79   H20   1.108857 S    
O10   C6    1.305061 A    
O18   C8    1.297787 A    
O2    V4    1.996831 S    
C3    C64   1.484632 S    
C60   Cl4   1.764977 S    
C40   N8    1.431441 S    
N4    C80   1.449892 S    
C78   H18   1.110249 S    
C13   C15   1.430779 A    
N5    H27   1.029458 S    
C35   C41   1.427135 A    
C12   C14   1.417780 A    
C14   C16   1.430336 A    
C84   H41   1.109556 S    
O1    V3    1.996832 S    
C63   C65   1.400260 A    
C66   H10   1.082999 S    
C68   C74   1.414275 A    
C24   Cl14  1.777217 S    
O9    C5    1.300272 A    
O13   V1    2.152341 S    
C32   C34   1.439787 A    
C43   C49   1.405414 A    
O14   V2    2.152342 S    
C81   H29   1.109810 S    
C41   N5    1.423657 S    
C37   C38   1.420307 A    
O2    C4    1.296526 A    
C13   Cl11  1.774141 S    
C77   H13   1.110246 S    
C25   C29   1.390618 A    
C33   C35   1.426536 A    
O4    V2    1.984287 S    
C39   N7    1.430098 S    
C27   C35   1.427835 A    
C15   C17   1.427486 A    
C82   H33   1.110062 S    
C56   C57   1.403353 A    
C46   Cl8   1.763857 S    
N6    H31   1.030727 S    
N2    C78   1.445200 S    
C49   Cl6   1.777079 S    
N4    H23   1.031230 S    
C34   C36   1.428576 A    
O8    C4    1.299312 A    
