data_mof_unit_33411.cif
_audit_creation_date              2012-12-10T20:42:38-0500
_audit_creation_method            fapswitch 2.2
_symmetry_space_group_name_H-M    P1
_symmetry_Int_Tables_number       1
_space_group_crystal_system       triclinic
_cell_length_a                    8.903933
_cell_length_b                    10.671838
_cell_length_c                    9.88715
_cell_angle_alpha                 90.112949
_cell_angle_beta                  89.83392
_cell_angle_gamma                 90.111376
_cell_volume                      939.482611292

loop_
_atom_site_label
_atom_site_type_symbol
_atom_type_description
_atom_site_fract_x
_atom_site_fract_y
_atom_site_fract_z
_atom_type_partial_charge
C1    C     C_R   0.507964 0.260036 0.499708 0.878824
C2    C     C_R   0.580306 0.932856 0.384784 -0.264940
C3    C     C_R   0.531572 0.870989 0.501828 -0.129852
C4    C     C_R   0.517336 0.936546 0.622551 0.126801
C5    C     C_3   0.397516 0.930665 0.728489 -0.470982
C6    C     C_3   0.399646 0.072703 0.727819 -0.483810
C7    C     C_R   0.435509 0.403557 0.071603 0.197851
C8    C     C_R   0.576672 0.588412 0.071837 -0.118058
C9    C     C_R   0.577250 0.588082 0.927986 -0.131737
C10   C     C_R   0.431485 0.405540 0.929545 0.164546
C11   C     C_3   0.268182 0.367092 0.930763 -0.156087
C12   C     C_R   0.218789 0.499896 0.500096 0.936410
C13   C     C_3   0.277419 0.360055 0.084075 -0.466823
C14   C     C_R   0.505154 0.739915 0.500187 0.885667
C15   C     C_R   0.781237 0.500002 0.499893 0.924151
C16   C     C_1   0.065439 0.499876 0.500121 -0.228545
C17   C     C_1   0.934599 0.499909 0.499815 -0.204030
C18   C     C_R   0.519296 0.064058 0.621715 0.107611
C19   C     C_R   0.536495 0.128553 0.500302 -0.134225
C20   C     C_R   0.584716 0.063428 0.383031 0.090683
H1    H     H_    0.246617 0.274689 0.882368 0.155218
H2    H     H_    0.204678 0.428417 0.138235 0.233557
H3    H     H_    0.270743 0.262643 0.123276 0.179660
H4    H     H_    0.606777 0.880695 0.293655 0.160898
H5    H     H_    0.290636 0.889935 0.690250 0.200110
H6    H     H_    0.439204 0.889740 0.824621 0.201617
H7    H     H_    0.293855 0.114746 0.689393 0.195168
H8    H     H_    0.442806 0.113675 0.823621 0.201944
H9    H     H_    0.636149 0.661325 0.125898 0.140150
H10   H     H_    0.637427 0.660562 0.873863 0.148138
N1    N     N_R   0.499010 0.499140 0.142800 -0.103058
N2    N     N_R   0.499010 0.499180 0.857150 -0.112377
O1    O     O_R   0.500020 0.316790 0.614690 -0.620883
O2    O     O_R   0.500000 0.316760 0.385350 -0.595408
O3    O     O_R   0.285350 0.500020 0.614650 -0.631797
O4    O     O_R   0.285340 0.499980 0.385310 -0.614729
O5    O     O_R   0.500000 0.683240 0.614650 -0.623251
O6    O     O_R   0.499980 0.683210 0.385310 -0.626080
O7    O     O_R   0.714660 0.500020 0.614690 -0.615370
O8    O     O_R   0.714650 0.499980 0.385350 -0.616953
Zn1   Zn    Zn3+2 0.500010 0.500020 0.653130 0.931635
Zn2   Zn    Zn3+2 0.499990 0.499980 0.346870 0.948066
N3    N     N_3   0.629325 0.128613 0.262163 -0.424936
H11   H     H_    0.730438 0.174587 0.283138 0.186299
H12   H     H_    0.651892 0.065351 0.183829 0.167889
N4    N     N_3   0.162100 0.464900 0.889709 -0.425470
H13   H     H_    0.108798 0.436175 0.800904 0.214486
H14   H     H_    0.216533 0.550001 0.870872 0.222017

loop_
_geom_bond_atom_site_label_1
_geom_bond_atom_site_label_2
_ccdc_geom_bond_type
C13   H2    S    
C7    C10   A    
N2    Zn1   S    
N1    Zn2   S    
C14   O6    A    
C11   C13   S    
O4    Zn2   S    
C6    H7    S    
O2    Zn2   S    
N3    H11   S    
O1    Zn1   S    
C19   C20   A    
O8    Zn2   S    
C2    C3    A    
C1    O1    A    
O7    Zn1   S    
C12   O3    A    
C2    H4    S    
N3    H12   S    
C15   O7    A    
C16   C17   T    
C3    C14   S    
C9    H10   S    
O3    Zn1   S    
C8    H9    S    
C1    O2    A    
O6    Zn2   S    
O5    Zn1   S    
C5    C6    S    
C6    C18   S    
N4    H14   S    
C15   O8    A    
C1    C19   S    
C12   O4    A    
C10   C11   S    
C2    C20   A    
C5    H6    S    
C10   N2    A    
C7    C13   S    
C20   N3    S    
C7    N1    A    
C13   H3    S    
C18   C19   A    
C15   C17   S    
N4    H13   S    
C8    C9    A    
C11   N4    S    
C9    N2    A    
C8    N1    A    
C4    C18   A    
C11   H1    S    
C6    H8    S    
C3    C4    A    
C12   C16   S    
C4    C5    S    
C14   O5    A    
C5    H5    S    
