data_mof_unit_39016.cif
_audit_creation_date              2012-12-10T19:50:40-0500
_audit_creation_method            fapswitch 2.2
_symmetry_space_group_name_H-M    P1
_symmetry_Int_Tables_number       1
_space_group_crystal_system       triclinic
_cell_length_a                    18.319771
_cell_length_b                    18.284971
_cell_length_c                    18.248192
_cell_angle_alpha                 119.869652
_cell_angle_beta                  90.445595
_cell_angle_gamma                 119.538195
_cell_volume                      4344.05316583

loop_
_atom_site_label
_atom_site_type_symbol
_atom_type_description
_atom_site_fract_x
_atom_site_fract_y
_atom_site_fract_z
_atom_type_partial_charge
C1    C     C_R   0.639271 0.780322 0.638673 0.879873
C2    C     C_R   0.196674 0.948359 0.157014 0.447777
C3    C     C_R   0.184903 0.891480 0.193910 -0.173473
C4    C     C_R   0.360772 0.220383 0.359983 0.863150
C5    C     C_R   0.226324 0.948547 0.285907 -0.071992
C6    C     C_3   0.240886 0.940973 0.361911 0.245536
C7    C     C_3   0.311422 0.058663 0.418877 0.220261
C8    C     C_R   0.785115 0.564159 0.339106 0.108673
C9    C     C_R   0.693293 0.500542 0.302862 -0.075737
C10   C     C_R   0.654976 0.436274 0.208465 -0.139657
C11   C     C_R   0.709712 0.436507 0.154901 -0.199792
C12   C     C_3   0.835620 0.569360 0.767166 -0.106965
C13   C     C_R   0.803530 0.500906 0.194926 -0.082381
C14   C     C_R   0.837844 0.564251 0.288073 0.111406
C15   C     C_3   0.920318 0.638548 0.367943 -0.330346
C16   C     C_R   0.359916 0.500005 0.639784 0.909580
C17   C     C_3   0.859703 0.638449 0.425501 -0.479985
C18   C     C_R   0.784974 0.945635 0.729875 0.105160
C19   C     C_R   0.692616 0.892877 0.699418 -0.270674
C20   C     C_R   0.654506 0.949893 0.737161 0.244370
C21   C     C_R   0.711660 0.055708 0.808251 0.324941
C22   C     C_R   0.803589 0.108905 0.819182 -0.259262
C23   C     C_3   0.766182 0.593723 0.792667 -0.150308
C24   C     C_R   0.838885 0.051382 0.784707 0.074971
C25   C     C_3   0.905082 0.058448 0.737112 -0.360225
C26   C     C_3   0.846306 0.941691 0.676552 -0.445273
C27   C     C_R   0.244819 0.522453 0.331925 -0.104064
C28   C     C_R   0.639311 0.500006 0.359802 0.828380
C29   C     C_R   0.305497 0.499638 0.301178 -0.227567
C30   C     C_R   0.307946 0.470174 0.213393 0.363076
C31   C     C_R   0.250672 0.467467 0.160593 -0.238579
C32   C     C_R   0.197821 0.501482 0.196076 -0.146973
C33   C     C_R   0.194828 0.528292 0.281289 -0.013277
C34   C     C_3   0.732742 0.524720 0.827122 -0.161936
C35   C     C_3   0.213862 0.627058 0.360813 0.197356
C36   C     C_3   0.261915 0.614596 0.418346 0.190915
C37   C     C_R   0.286504 0.573665 0.734473 0.060568
C38   C     C_R   0.297988 0.494359 0.689082 -0.091551
C39   C     C_R   0.242327 0.404585 0.685105 -0.259910
C40   C     C_R   0.360848 0.501646 0.358470 0.866920
C41   C     C_R   0.184199 0.399685 0.735043 0.456341
C42   C     C_R   0.185053 0.488841 0.792949 -0.188290
C43   C     C_R   0.230913 0.570497 0.784597 -0.007176
C44   C     C_3   0.288350 0.684268 0.853204 -0.482484
C45   C     C_3   0.664289 0.430297 0.732555 -0.075804
C46   C     C_3   0.350714 0.688310 0.798101 0.265273
C47   C     C_R   0.860167 0.500073 0.140014 0.809418
C48   C     C_R   0.137744 0.497395 0.857602 0.856249
C49   C     C_R   0.136399 0.779803 0.139628 0.863465
C50   C     C_R   0.860035 0.220129 0.863492 0.896733
C51   C     C_R   0.142020 0.501038 0.141215 0.827546
C52   C     C_R   0.641475 0.499728 0.641556 0.825392
C53   C     C_R   0.858471 0.500107 0.858322 0.801436
C54   C     C_3   0.767160 0.474934 0.672598 -0.173568
C55   C     C_3   0.733728 0.405933 0.707061 -0.143227
C56   C     C_3   0.698592 0.499359 0.698925 0.006385
C57   C     C_3   0.801322 0.500315 0.800814 0.010022
C58   C     C_R   0.285885 0.051729 0.336788 -0.008789
C59   C     C_R   0.302590 0.109510 0.303347 -0.100013
C60   C     C_R   0.256292 0.056540 0.212376 -0.251801
H1    H     H_    0.266773 0.893625 0.349417 0.153809
H2    H     H_    0.265702 0.099642 0.184643 0.225945
H3    H     H_    0.721198 0.328810 0.672708 0.171781
H4    H     H_    0.297042 0.105969 0.475969 0.158300
H5    H     H_    0.504128 0.052557 0.375471 0.390809
H6    H     H_    0.583367 0.385400 0.175995 0.218716
H7    H     H_    0.678422 0.385686 0.082654 0.209621
H8    H     H_    0.858984 0.603085 0.460688 0.231122
H9    H     H_    0.866809 0.712763 0.466974 0.220446
H10   H     H_    0.559730 0.874885 0.560233 0.333988
H11   H     H_    0.727713 0.235402 0.033668 0.375818
H12   H     H_    0.953180 0.602592 0.370676 0.277483
H13   H     H_    0.907071 0.093548 0.701403 0.248015
H14   H     H_    0.970565 0.090600 0.780275 0.218339
H15   H     H_    0.815441 0.909588 0.605803 0.204833
H16   H     H_    0.500530 0.603397 0.269726 0.334292
H17   H     H_    0.251364 0.445101 0.093482 0.222448
H18   H     H_    0.261258 0.693485 0.358648 0.086941
H19   H     H_    0.005886 0.477347 0.256227 0.350641
H20   H     H_    0.333844 0.678598 0.453458 0.142475
H21   H     H_    0.906740 0.626594 0.782134 0.180480
H22   H     H_    0.094825 0.425393 0.388914 0.360920
H23   H     H_    0.963538 0.713655 0.377846 0.257469
H24   H     H_    0.118849 0.216798 0.791108 0.376885
H25   H     H_    0.354138 0.728797 0.767379 0.181514
H26   H     H_    0.417548 0.655667 0.924586 0.356135
H27   H     H_    0.719472 0.545197 0.891413 0.171099
H28   H     H_    0.593177 0.373026 0.717565 0.197634
H29   H     H_    0.132763 0.789932 0.913538 0.382645
H30   H     H_    0.111976 0.878609 0.498673 0.385688
H31   H     H_    0.780410 0.454451 0.608297 0.164765
H32   H     H_    0.877971 0.906526 0.684833 0.225577
H33   H     H_    0.245043 0.338811 0.643971 0.216800
H34   H     H_    0.254968 0.720894 0.852460 0.233239
H35   H     H_    0.316038 0.705901 0.920650 0.212224
H36   H     H_    0.778662 0.670819 0.826995 0.173446
O1    O     O_3   0.500000 0.500000 0.500000 -0.539367
O2    O     O_R   0.945260 0.268310 0.884540 -0.620814
O3    O     O_R   0.117230 0.560570 0.177940 -0.624497
O4    O     O_R   0.676910 0.731570 0.616180 -0.651086
O5    O     O_R   0.821960 0.439250 0.882690 -0.629891
O6    O     O_R   0.117230 0.439140 0.056500 -0.637044
O7    O     O_R   0.943400 0.560680 0.882690 -0.622466
O8    O     O_R   0.115380 0.731510 0.054650 -0.576846
O9    O     O_R   0.823040 0.268340 0.883770 -0.580345
O10   O     O_R   0.945260 0.560610 0.176860 -0.595345
O11   O     O_R   0.116150 0.439180 0.884540 -0.564650
O12   O     O_R   0.384580 0.439270 0.616180 -0.649358
O13   O     O_R   0.384580 0.268400 0.445300 -0.621021
O14   O     O_R   0.383810 0.560730 0.615410 -0.577363
O15   O     O_R   0.554700 0.439300 0.323100 -0.603390
O16   O     O_R   0.382730 0.560770 0.443450 -0.607014
O17   O     O_R   0.678000 0.560660 0.617260 -0.645338
O18   O     O_R   0.382730 0.439340 0.322020 -0.571386
O19   O     O_R   0.556550 0.439230 0.617260 -0.604611
O20   O     O_2   0.487783 0.207359 0.493394 -0.295044
O21   O     O_2   0.433647 0.065976 0.509952 -0.249951
O22   O     O_3   0.442071 0.029702 0.354173 -0.564750
O23   O     O_R   0.676910 0.560700 0.445300 -0.653568
O24   O     O_2   0.480254 0.831764 0.712235 -0.178245
O25   O     O_2   0.528747 0.982370 0.712232 -0.193666
O26   O     O_3   0.514296 0.827936 0.572974 -0.548789
O27   O     O_2   0.646193 0.170889 0.870125 -0.229076
O28   O     O_2   0.591654 0.035482 0.894912 -0.188375
O29   O     O_3   0.751806 0.199993 0.992462 -0.567601
O30   O     O_2   0.359238 0.342563 0.140408 -0.203294
O31   O     O_2   0.392416 0.453869 0.090702 -0.269051
O32   O     O_3   0.488735 0.536030 0.249204 -0.543295
O33   O     O_2   0.123865 0.679998 0.471804 -0.169971
O34   O     O_R   0.554700 0.731600 0.615410 -0.545476
O35   O     O_2   0.103055 0.674308 0.337157 -0.254058
O36   O     O_3   0.025155 0.500087 0.318897 -0.528518
O37   O     O_2   0.251016 0.537615 0.515219 -0.298325
O38   O     O_2   0.226106 0.672308 0.573713 -0.175228
O39   O     O_3   0.100120 0.487585 0.438083 -0.435183
O40   O     O_2   0.020198 0.258338 0.713369 -0.333567
O41   O     O_2   0.106490 0.195208 0.637257 -0.275285
O42   O     O_3   0.150789 0.288865 0.810143 -0.506435
O43   O     O_2   0.515991 0.737455 0.799334 -0.252151
O44   O     O_2   0.500817 0.835631 0.942726 -0.224848
O45   O     O_R   0.383810 0.268430 0.323100 -0.644535
O46   O     O_3   0.447541 0.648061 0.879002 -0.529056
O47   O     O_2   0.039249 0.813715 0.023508 -0.303417
O48   O     O_2   0.144728 0.971610 0.035442 -0.264275
O49   O     O_3   0.176924 0.832568 0.973778 -0.518409
O50   O     O_2   0.128083 0.988103 0.432590 -0.289153
O51   O     O_2   0.065196 0.806427 0.320216 -0.270598
O52   O     O_3   0.165267 0.894271 0.479832 -0.470310
O53   O     O_3   0.999960 0.499910 0.999960 -0.538615
O54   O     O_R   0.823040 0.439210 0.054650 -0.630825
O55   O     O_R   0.115380 0.560640 0.883770 -0.640427
O56   O     O_R   0.116150 0.731480 0.176860 -0.602671
S1    S     S_3+6 0.422666 0.093520 0.447548 0.024578
S2    S     S_3+6 0.145571 0.906521 0.397806 0.055380
S3    S     S_3+6 0.541876 0.898717 0.685375 0.130438
S4    S     S_3+6 0.671496 0.115131 0.891353 0.117367
S5    S     S_3+6 0.387143 0.448040 0.170013 0.068265
S6    S     S_3+6 0.115196 0.622605 0.374511 0.098036
S7    S     S_3+6 0.210200 0.578771 0.489432 0.135913
S8    S     S_3+6 0.111724 0.280926 0.720898 0.041439
S9    S     S_3+6 0.457746 0.730766 0.856486 0.071947
S10   S     S_3+6 0.136140 0.891246 0.045553 0.060895
Zn1   Zn    Zn3+2 0.457170 0.413230 0.543930 1.048895
Zn2   Zn    Zn3+2 0.456070 0.586770 0.542830 1.121088
Zn3   Zn    Zn3+2 0.456070 0.413270 0.369320 1.065721
Zn4   Zn    Zn3+2 0.630690 0.586730 0.543930 0.986153
Zn5   Zn    Zn3+2 0.042790 0.586680 0.956030 1.034468
Zn6   Zn    Zn3+2 0.043880 0.586640 0.130630 1.058631
Zn7   Zn    Zn3+2 0.043880 0.413140 0.957130 1.046095
Zn8   Zn    Zn3+2 0.869270 0.413190 0.956030 1.050126

loop_
_geom_bond_atom_site_label_1
_geom_bond_atom_site_label_2
_ccdc_geom_bond_type
C30   S5    S    
C4    O13   A    
C17   H9    S    
C20   S3    S    
C27   C29   A    
O26   S3    S    
C35   C36   S    
O53   Zn5   S    
C2    S10   S    
C49   O8    A    
C3    C49   S    
C16   O14   A    
C23   C56   S    
C39   C41   A    
O54   Zn8   S    
C52   O17   A    
C27   C33   A    
C51   O6    A    
H29   O49   S    
C15   H12   S    
C12   C23   S    
C29   C30   A    
C5    C58   A    
O53   Zn7   S    
C5    C6    S    
C6    H1    S    
O4    Zn4   S    
C18   C19   A    
C30   C31   A    
C2    C60   A    
O30   S5    D    
C48   O11   A    
O49   S10   S    
C26   H32   S    
O1    Zn4   S    
C23   H36   S    
C29   C40   S    
O22   S1    S    
C60   H2    S    
C25   H14   S    
C41   C42   A    
H22   O39   S    
O51   S2    D    
C39   H33   S    
H30   O52   S    
C36   S7    S    
O2    Zn7   S    
C40   O18   A    
C19   C20   A    
C45   C56   S    
C11   H7    S    
C8    C9    A    
O1    Zn1   S    
C46   S9    S    
C18   C26   S    
C50   O9    A    
H5    O22   S    
O15   Zn3   S    
O25   S3    D    
C9    C10   A    
O31   S5    D    
C7    C58   S    
C25   H13   S    
O55   Zn5   S    
C49   O56   A    
O29   S4    S    
C22   C50   S    
C46   H25   S    
O1    Zn2   S    
O6    Zn7   S    
O38   S7    D    
H24   O42   S    
C59   C60   A    
C13   C14   A    
O53   Zn6   S    
O52   S2    S    
O46   S9    S    
C1    O4    A    
O33   S6    D    
O56   Zn6   S    
C44   C46   S    
O32   S5    S    
C31   H17   S    
O27   S4    D    
C10   H6    S    
C28   O15   A    
C51   O3    A    
O16   Zn2   S    
O12   Zn1   S    
C54   C56   S    
C1    C19   S    
C50   O2    A    
O9    Zn8   S    
O53   Zn8   S    
O43   S9    D    
C45   H28   S    
O39   S7    S    
C24   C25   S    
C17   H8    S    
C40   O16   A    
C1    O34   A    
O13   Zn1   S    
C53   O5    A    
C4    O45   A    
C13   C47   S    
O14   Zn2   S    
C15   H23   S    
C58   C59   A    
O24   S3    D    
O36   S6    S    
C55   H3    S    
O37   S7    D    
O10   Zn6   S    
C37   C43   A    
O35   S6    D    
C43   C44   S    
C32   C51   S    
C37   C38   A    
C34   C57   S    
C41   S8    S    
H10   O26   S    
C31   C32   A    
O50   S2    D    
C47   O54   A    
C47   O10   A    
C26   H15   S    
O5    Zn8   S    
C34   C45   S    
C42   C48   S    
O7    Zn5   S    
O23   Zn4   S    
O20   S1    D    
C6    S2    S    
C12   C57   S    
O28   S4    D    
C36   H20   S    
H16   O32   S    
C18   C24   A    
C42   C43   A    
O17   Zn4   S    
H26   O46   S    
O18   Zn3   S    
O3    Zn6   S    
O11   Zn7   S    
C52   O19   A    
O34   Zn2   S    
C15   C17   S    
C54   C55   S    
C23   C34   S    
C8    C14   A    
O47   S10   D    
O41   S8    D    
O48   S10   D    
C3    C5    A    
C28   O23   A    
C53   C57   S    
C6    C7    S    
C27   C36   S    
C35   H18   S    
O45   Zn3   S    
C8    C17   S    
C32   C33   A    
C55   C57   S    
C2    C3    A    
O44   S9    D    
C35   S6    S    
C54   H31   S    
C44   H35   S    
C25   C26   S    
O8    Zn5   S    
O21   S1    D    
C11   C13   A    
C38   C39   A    
C7    S1    S    
C53   O7    A    
O1    Zn3   S    
H19   O36   S    
C4    C59   S    
C33   C35   S    
C21   S4    S    
C12   H21   S    
C22   C24   A    
C34   H27   S    
O19   Zn1   S    
C7    H4    S    
C44   H34   S    
C10   C11   A    
C16   O12   A    
O40   S8    D    
O42   S8    S    
C20   C21   A    
C45   C55   S    
C48   O55   A    
C14   C15   S    
H11   O29   S    
C37   C46   S    
C21   C22   A    
C12   C54   S    
C52   C56   S    
C9    C28   S    
C16   C38   S    
