data_mof_unit_37833.cif
_audit_creation_date              2012-12-10T18:06:39-0500
_audit_creation_method            fapswitch 2.2
_symmetry_space_group_name_H-M    P1
_symmetry_Int_Tables_number       1
_space_group_crystal_system       triclinic
_cell_length_a                    12.595339
_cell_length_b                    13.145044
_cell_length_c                    15.464027
_cell_angle_alpha                 83.213644
_cell_angle_beta                  98.623114
_cell_angle_gamma                 96.802682
_cell_volume                      2500.37768507

loop_
_atom_site_label
_atom_site_type_symbol
_atom_type_description
_atom_site_fract_x
_atom_site_fract_y
_atom_site_fract_z
_atom_type_partial_charge
C1    C     C_R   0.442024 0.308659 0.506857 0.852354
C2    C     C_R   0.420784 0.450110 0.103926 0.092276
C3    C     C_R   0.315039 0.473600 0.068374 0.181406
C4    C     C_R   0.489924 0.420360 0.049357 0.077274
C5    C     C_R   0.459965 0.434038 0.957554 0.101862
C6    C     C_R   0.351986 0.451717 0.923837 -0.233497
C7    C     C_R   0.280115 0.469277 0.979044 -0.248825
C8    C     C_R   0.588690 0.379699 0.083138 -0.259704
C9    C     C_R   0.661393 0.364566 0.027682 -0.189176
C10   C     C_R   0.640145 0.393599 0.937353 0.075716
C11   C     C_R   0.539413 0.430712 0.902545 0.028644
C12   C     C_R   0.434545 0.509730 0.336304 0.859279
C13   C     C_R   0.718434 0.388072 0.881734 0.485134
C14   C     C_R   0.693180 0.418549 0.791060 -0.323929
C15   C     C_R   0.522767 0.469567 0.814528 -0.269586
C16   C     C_R   0.644728 0.943547 0.369510 -0.200850
C17   C     C_R   0.582853 0.801273 0.469419 -0.053315
C18   C     C_R   0.330817 0.158746 0.568608 -0.187360
C19   C     C_R   0.310298 0.053031 0.587121 -0.147242
C20   C     C_R   0.368802 0.987448 0.553275 -0.187395
C21   C     C_R   0.445753 0.027262 0.496388 0.087551
C22   C     C_R   0.453463 0.133045 0.467167 0.092469
C23   C     C_R   0.556103 0.691649 0.489044 0.860375
C24   C     C_R   0.515376 0.965763 0.467513 0.082871
C25   C     C_R   0.578275 0.006067 0.399930 0.179608
C26   C     C_R   0.572189 0.107338 0.362711 -0.253718
C27   C     C_R   0.510302 0.170202 0.395813 -0.205674
C28   C     C_R   0.525416 0.865447 0.505283 -0.254445
C29   C     C_R   0.645530 0.840456 0.403166 -0.192222
C30   C     C_R   0.405005 0.199226 0.511027 -0.113673
C31   C     C_R   0.138223 0.640930 0.622689 -0.311223
C32   C     C_R   0.757688 0.380950 0.395451 0.025962
C33   C     C_R   0.853098 0.355084 0.373630 -0.251105
C34   C     C_R   0.563892 0.485022 0.664055 0.891588
C35   C     C_R   0.950813 0.399701 0.413837 -0.193115
C36   C     C_R   0.952890 0.471024 0.476092 0.016099
C37   C     C_R   0.853380 0.494357 0.496119 0.233213
C38   C     C_R   0.049011 0.520333 0.518676 -0.009472
C39   C     C_R   0.043904 0.591588 0.580126 0.189826
C40   C     C_R   0.944807 0.612853 0.598496 -0.308132
C41   C     C_R   0.850837 0.564807 0.556859 -0.210772
C42   C     C_R   0.150903 0.502296 0.502614 -0.054852
C43   C     C_R   0.236532 0.619643 0.603664 0.012516
C44   C     C_R   0.391477 0.499645 0.244272 -0.057818
C45   C     C_R   0.596395 0.460649 0.758243 -0.115819
C46   C     C_R   0.246877 0.504169 0.122259 -0.204916
C47   C     C_R   0.284887 0.516900 0.210102 -0.193480
C48   C     C_R   0.457772 0.465795 0.191339 -0.272846
H1    H     H_    0.198709 0.484664 0.951158 0.137984
H2    H     H_    0.690087 0.790543 0.374460 0.161248
H3    H     H_    0.616608 0.138506 0.309008 0.140056
H4    H     H_    0.692287 0.973179 0.317429 0.138830
H5    H     H_    0.485483 0.833455 0.560930 0.140175
H6    H     H_    0.291219 0.208831 0.601494 0.159666
H7    H     H_    0.350199 0.906110 0.570933 0.130693
H8    H     H_    0.252194 0.021896 0.630842 0.141891
H9    H     H_    0.506126 0.247871 0.364298 0.153871
H10   H     H_    0.310951 0.656792 0.635585 0.125438
H11   H     H_    0.452328 0.508571 0.788646 0.169000
H12   H     H_    0.939835 0.666925 0.645186 0.156506
H13   H     H_    0.135841 0.695177 0.669810 0.141168
H14   H     H_    0.163558 0.449994 0.457507 0.125401
H15   H     H_    0.681255 0.347359 0.364132 0.124363
H16   H     H_    0.022566 0.377102 0.394530 0.137599
H17   H     H_    0.851355 0.300954 0.325699 0.145941
H18   H     H_    0.777258 0.584848 0.573166 0.216128
H19   H     H_    0.747818 0.408621 0.745823 0.174198
H20   H     H_    0.736267 0.333826 0.056565 0.187305
H21   H     H_    0.165241 0.520458 0.095957 0.133720
H22   H     H_    0.231598 0.541281 0.250730 0.159910
H23   H     H_    0.540396 0.456267 0.218252 0.160444
H24   H     H_    0.320636 0.450511 0.854990 0.151529
H25   H     H_    0.610506 0.356567 0.152283 0.139569
N1    N     N_R   0.239390 0.551900 0.544730 -0.101162
N2    N     N_R   0.759950 0.448600 0.455730 -0.129518
O1    O     O_R   0.374950 0.371210 0.521360 -0.615640
O2    O     O_R   0.542050 0.338030 0.492790 -0.608331
O3    O     O_R   0.368720 0.526070 0.390200 -0.613538
O4    O     O_R   0.535820 0.492890 0.361630 -0.628366
O5    O     O_R   0.457950 0.661970 0.507210 -0.608657
O6    O     O_R   0.625050 0.628790 0.478640 -0.634661
O7    O     O_R   0.464180 0.507110 0.638370 -0.619364
O8    O     O_R   0.631280 0.473930 0.609800 -0.633466
Zn1   Zn    Zn3+2 0.388420 0.522150 0.519080 0.936323
Zn2   Zn    Zn3+2 0.611580 0.477850 0.480920 0.925517
O9    O     O_3   0.812810 0.343468 0.916842 -0.660904
C49   C     C_3   0.905542 0.392672 0.881420 0.069458
H26   H     H_    0.970434 0.405957 0.937276 0.154508
H27   H     H_    0.894533 0.470385 0.845735 0.124222
C50   C     C_3   0.944252 0.321730 0.823315 -0.329288
H28   H     H_    0.972061 0.252381 0.864819 0.228215
H29   H     H_    0.876830 0.295438 0.773464 0.224706
C51   C     C_3   0.036549 0.375973 0.776109 -0.958800
H30   H     H_    0.010053 0.445073 0.733769 0.275917
H31   H     H_    0.061796 0.322928 0.734015 0.268893
H32   H     H_    0.106843 0.399459 0.824469 0.259441

loop_
_geom_bond_atom_site_label_1
_geom_bond_atom_site_label_2
_ccdc_geom_bond_type
C19   H8    S    
C49   H26   S    
C51   H30   S    
C40   H12   S    
C1    O2    A    
C31   H13   S    
C35   C36   A    
O5    Zn1   S    
O1    Zn1   S    
C32   N2    A    
C33   H17   S    
C6    H24   S    
C26   C27   A    
C17   C23   S    
C31   C43   A    
C36   C37   A    
C38   C42   A    
C3    C7    A    
C38   C39   A    
C12   O4    A    
C17   C29   A    
C18   C19   A    
C1    C30   S    
C46   H21   S    
C43   H10   S    
C11   C15   A    
N2    Zn2   S    
C19   C20   A    
C8    C9    A    
C12   O3    A    
C13   O9    S    
C14   H19   S    
C35   H16   S    
C18   C30   A    
C23   O5    A    
C23   O6    A    
C9    C10   A    
C42   H14   S    
C44   C47   A    
C4    C8    A    
C43   N1    A    
C37   N2    A    
O2    Zn2   S    
C51   H31   S    
C13   C14   A    
C1    O1    A    
C20   H7    S    
C14   C45   A    
C29   H2    S    
C42   N1    A    
C16   H4    S    
C24   C25   A    
C7    H1    S    
C27   H9    S    
C39   C40   A    
O9    C49   S    
C2    C48   A    
C16   C29   A    
C2    C4    A    
C47   H22   S    
C50   H29   S    
C34   C45   S    
C41   H18   S    
C40   C41   A    
O8    Zn2   S    
C51   H32   S    
O7    Zn1   S    
C22   C27   A    
C49   H27   S    
C49   C50   S    
C34   O8    A    
C15   C45   A    
C48   H23   S    
O4    Zn2   S    
C50   C51   S    
C16   C25   A    
C46   C47   A    
C22   C30   A    
C17   C28   A    
C15   H11   S    
C24   C28   A    
C32   H15   S    
N1    Zn1   S    
C4    C5    A    
C10   C13   A    
C28   H5    S    
C5    C11   A    
C6    C7    A    
C3    C46   A    
C32   C33   A    
C36   C38   A    
C2    C3    A    
C25   C26   A    
C9    H20   S    
C12   C44   S    
C26   H3    S    
C50   H28   S    
C5    C6    A    
C8    H25   S    
C33   C35   A    
C31   C39   A    
C37   C41   A    
C10   C11   A    
C18   H6    S    
O3    Zn1   S    
C20   C21   A    
C21   C24   A    
C34   O7    A    
C21   C22   A    
O6    Zn2   S    
C44   C48   A    
