data_mof_unit_12253.cif
_audit_creation_date              2012-12-11T15:41:28-0500
_audit_creation_method            fapswitch 2.2
_symmetry_space_group_name_H-M    P1
_symmetry_Int_Tables_number       1
_space_group_crystal_system       triclinic
_cell_length_a                    14.796455
_cell_length_b                    14.893157
_cell_length_c                    14.932877
_cell_angle_alpha                 109.448144
_cell_angle_beta                  109.340606
_cell_angle_gamma                 109.384737
_cell_volume                      2540.6590653

loop_
_atom_site_label
_atom_site_type_symbol
_atom_type_description
_atom_site_fract_x
_atom_site_fract_y
_atom_site_fract_z
_atom_type_partial_charge
Br1   Br    Br    0.181727 0.956090 0.524607 -0.708433
Br2   Br    Br    0.741420 0.814714 0.378359 -0.681605
C1    C     C_R   0.254761 0.069154 0.977059 -0.133866
C2    C     C_R   0.770614 0.786345 0.259134 0.341336
C3    C     C_R   0.275709 0.182822 0.671447 -0.258075
C4    C     C_R   0.690997 0.689367 0.161142 -0.247517
C5    C     C_R   0.291971 0.276281 0.754912 0.012099
C6    C     C_R   0.704124 0.662639 0.068707 -0.000647
C7    C     C_R   0.209162 0.267321 0.785307 0.123806
C8    C     C_R   0.805450 0.726828 0.078271 0.130670
C9    C     C_R   0.116413 0.163392 0.735479 -0.266563
C10   C     C_R   0.886208 0.823385 0.178168 -0.268291
C11   C     C_R   0.106941 0.068179 0.661660 0.124333
C12   C     C_R   0.806175 0.006429 0.095506 -0.165620
C13   C     C_R   0.866635 0.858114 0.266282 0.098355
C14   C     C_R   0.412513 0.474616 0.827786 -0.232191
C15   C     C_R   0.601708 0.470300 0.937137 -0.227970
C16   C     C_R   0.748678 0.222602 0.314244 -0.120236
C17   C     C_R   0.196274 0.790784 0.699724 -0.178083
C18   C     C_R   0.509756 0.573650 0.910010 0.052895
C19   C     C_R   0.499325 0.376164 0.885113 0.034041
C20   C     C_R   0.606944 0.570391 0.963375 0.043671
C21   C     C_R   0.403102 0.375446 0.820495 0.072834
C22   C     C_R   0.873811 0.528690 0.428412 -0.129719
C23   C     C_R   0.774476 0.325722 0.325147 0.042155
C24   C     C_R   0.963394 0.522283 0.621069 -0.160243
C25   C     C_R   0.965618 0.621619 0.521469 -0.178438
C26   C     C_R   0.871792 0.429173 0.527732 -0.168196
C27   C     C_R   0.017141 0.615520 0.615087 0.127433
C28   C     C_R   0.834475 0.429057 0.428229 0.132379
C29   C     C_R   0.601993 0.946544 0.571769 -0.156386
C30   C     C_R   0.401796 0.842807 0.379336 -0.152706
C31   C     C_R   0.601637 0.946172 0.478931 -0.096529
C32   C     C_R   0.402236 0.843826 0.472549 -0.131796
C33   C     C_R   0.501259 0.903207 0.385286 0.136383
C34   C     C_R   0.132248 0.697355 0.697474 0.053637
C35   C     C_R   0.502075 0.906157 0.571999 0.122245
C36   C     C_R   0.135749 0.070390 0.165388 -0.165229
C37   C     C_R   0.038337 0.163106 0.058716 -0.168906
C38   C     C_R   0.044736 0.075106 0.168576 -0.182865
C39   C     C_R   0.131861 0.162642 0.059295 -0.165787
C40   C     C_R   0.408500 0.905104 0.209176 -0.137987
C41   C     C_R   0.593250 0.026452 0.778037 -0.127785
C42   C     C_R   0.987594 0.108235 0.103315 0.144142
C43   C     C_R   0.171487 0.102981 0.099826 0.144078
C44   C     C_R   0.589905 0.295704 0.989038 -0.126999
C45   C     C_R   0.500247 0.935271 0.302653 0.061487
C46   C     C_R   0.409666 0.684647 0.936150 -0.125366
C47   C     C_R   0.591618 0.996845 0.300157 -0.127804
C48   C     C_R   0.408773 0.933066 0.686161 -0.067053
C49   C     C_R   0.407759 0.206779 0.902737 -0.148066
C50   C     C_R   0.592964 0.780205 0.020534 -0.110550
C51   C     C_R   0.748108 0.314533 0.222092 -0.124812
C52   C     C_R   0.195964 0.699380 0.790801 -0.126807
C53   C     C_R   0.252690 0.976212 0.067618 -0.125783
C54   C     C_R   0.804845 0.097353 0.004714 -0.133537
C55   C     C_R   0.229131 0.055578 0.054640 0.042143
C56   C     C_R   0.501545 0.948793 0.675172 0.028410
C57   C     C_R   0.870568 0.070510 0.067736 0.057007
C58   C     C_3   0.218919 0.363694 0.874209 -0.426947
C59   C     C_3   0.306396 0.400155 0.989279 -0.237124
C60   C     C_3   0.304761 0.487643 0.077342 -0.899551
C61   C     C_3   0.825753 0.702117 0.982110 -0.424863
C62   C     C_3   0.916144 0.670298 0.998708 -0.233450
C63   C     C_3   0.941164 0.651999 0.904830 -0.928268
C64   C     C_3   0.011688 0.957289 0.621594 -0.390474
C65   C     C_3   0.029125 0.919172 0.706646 -0.239053
C66   C     C_3   0.982762 0.955241 0.780609 -0.874339
C67   C     C_R   0.497688 0.296053 0.923641 0.071536
C68   C     C_3   0.949373 0.970510 0.365679 -0.356461
C69   C     C_3   0.901397 0.047678 0.387619 -0.283017
C70   C     C_3   0.990524 0.167976 0.447834 -0.911035
C71   C     C_R   0.503702 0.675286 0.950160 0.062054
C72   C     C_R   0.185973 0.079176 0.626724 0.283273
H1    H     H_    0.246195 0.123360 0.946167 0.100000
H2    H     H_    0.997045 0.516704 0.693936 0.108289
H3    H     H_    0.001038 0.694058 0.515455 0.133958
H4    H     H_    0.838398 0.355322 0.532174 0.107986
H5    H     H_    0.680822 0.988995 0.645444 0.108935
H6    H     H_    0.322920 0.803401 0.306583 0.115271
H7    H     H_    0.680367 0.988772 0.485175 0.126213
H8    H     H_    0.323611 0.805290 0.468117 0.134430
H9    H     H_    0.170345 0.031851 0.205406 0.118557
H10   H     H_    0.000993 0.196789 0.013898 0.105009
H11   H     H_    0.759006 0.200444 0.377221 0.092319
H12   H     H_    0.834314 0.980622 0.153166 0.110599
H13   H     H_    0.168979 0.823445 0.648271 0.135977
H14   H     H_    0.013870 0.043819 0.213785 0.113640
H15   H     H_    0.163088 0.197008 0.015757 0.106311
H16   H     H_    0.324084 0.844734 0.176726 0.088548
H17   H     H_    0.679122 0.059354 0.800490 0.094571
H18   H     H_    0.674293 0.343038 0.010034 0.084614
H19   H     H_    0.324646 0.619803 0.885184 0.090144
H20   H     H_    0.676205 0.020942 0.351102 0.096049
H21   H     H_    0.323604 0.878097 0.623542 0.139009
H22   H     H_    0.322243 0.173110 0.849169 0.124238
H23   H     H_    0.338464 0.189203 0.647921 0.180185
H24   H     H_    0.677039 0.807081 0.040807 0.117116
H25   H     H_    0.757168 0.377250 0.199351 0.096801
H26   H     H_    0.168280 0.647619 0.823222 0.082262
H27   H     H_    0.242018 0.944377 0.120759 0.099473
H28   H     H_    0.831560 0.158673 0.981750 0.082629
H29   H     H_    0.321583 0.560761 0.066661 0.262043
H30   H     H_    0.223296 0.454664 0.073118 0.253780
H31   H     H_    0.369530 0.513252 0.159375 0.265289
H32   H     H_    0.290896 0.328548 0.002207 0.189079
H33   H     H_    0.390250 0.435155 0.999601 0.210054
H34   H     H_    0.615082 0.637214 0.154832 0.175633
H35   H     H_    0.236523 0.433250 0.858252 0.178086
H36   H     H_    0.138269 0.340717 0.872011 0.182061
H37   H     H_    0.866032 0.585003 0.825848 0.268125
H38   H     H_    0.971066 0.728440 0.900189 0.266416
H39   H     H_    0.006402 0.628678 0.918761 0.240886
H40   H     H_    0.993443 0.736211 0.076413 0.198530
H41   H     H_    0.888803 0.593674 0.003395 0.194252
H42   H     H_    0.749554 0.634840 0.904333 0.198663
H43   H     H_    0.850832 0.776299 0.973008 0.194139
H44   H     H_    0.026598 0.045612 0.830604 0.248586
H45   H     H_    0.052723 0.155954 0.757572 0.143841
H46   H     H_    0.893254 0.924476 0.731040 0.264618
H47   H     H_    0.993768 0.921209 0.836750 0.250784
H48   H     H_    0.985764 0.828044 0.663028 0.201925
H49   H     H_    0.117979 0.948460 0.756396 0.201859
H50   H     H_    0.933892 0.960636 0.596348 0.230561
H51   H     H_    0.999862 0.892597 0.547857 0.207507
H52   H     H_    0.057962 0.188312 0.525601 0.275067
H53   H     H_    0.025024 0.184799 0.395820 0.266008
H54   H     H_    0.954361 0.221338 0.467104 0.245831
H55   H     H_    0.835175 0.029647 0.310646 0.199490
H56   H     H_    0.962997 0.873781 0.185267 0.140887
H57   H     H_    0.864555 0.036239 0.439452 0.225314
H58   H     H_    0.979433 0.960236 0.436957 0.221762
H59   H     H_    0.022577 0.009309 0.357828 0.207509
H60   H     H_    0.340070 0.475369 0.779395 0.126060
H61   H     H_    0.677628 0.472098 0.979926 0.127256
H62   H     H_    0.842159 0.533350 0.354663 0.120601
N1    N     N_R   0.293810 0.002730 0.945950 -0.043864
N2    N     N_R   0.443210 0.997250 0.791090 -0.038024
N3    N     N_R   0.443180 0.152110 0.945950 -0.040469
N4    N     N_R   0.556820 0.847890 0.054050 -0.041593
N5    N     N_R   0.706170 0.208950 0.152090 -0.040181
N6    N     N_R   0.293830 0.791050 0.847910 -0.037983
N7    N     N_R   0.293800 0.945910 0.002760 -0.039928
N8    N     N_R   0.706200 0.054090 0.997240 -0.037527
N9    N     N_R   0.706190 0.997270 0.054050 -0.041549
N10   N     N_R   0.706160 0.152130 0.208910 -0.039243
N11   N     N_R   0.293840 0.847870 0.791090 -0.038792
N12   N     N_R   0.443140 0.945920 0.152090 -0.038703
N13   N     N_R   0.556860 0.054080 0.847910 -0.042484
N14   N     N_R   0.556830 0.208940 0.002760 -0.040833
N15   N     N_R   0.443170 0.791060 0.997240 -0.040719
N16   N     N_R   0.556790 0.002750 0.208910 -0.040143
Ni1   Ni    Ni4+2 0.369690 0.999990 0.869700 0.222863
Ni2   Ni    Ni4+2 0.630310 0.000010 0.130300 0.213893
Ni3   Ni    Ni4+2 0.369670 0.869670 0.000000 0.209842
Ni4   Ni    Ni4+2 0.630330 0.130330 0.000000 0.210432

loop_
_geom_bond_atom_site_label_1
_geom_bond_atom_site_label_2
_ccdc_geom_bond_type
C39   H15   S    
C36   H9    S    
C25   C27   A    
C32   C35   A    
C8    C61   S    
C22   C25   A    
C9    H45   S    
C37   C39   A    
C60   H31   S    
C51   H25   S    
C12   C57   A    
C27   C34   S    
C43   C55   S    
C34   C52   A    
C10   H56   S    
C70   H54   S    
Br1   C72   S    
N13   Ni4   S    
C23   C51   A    
C37   H10   S    
C17   H13   S    
C17   C34   A    
C61   H43   S    
C48   H21   S    
C44   H18   S    
N3    Ni1   S    
C42   C57   S    
C30   H6    S    
C50   H24   S    
C3    C72   A    
C63   H37   S    
C44   C67   A    
C58   H35   S    
C41   C56   A    
C66   H44   S    
N7    Ni3   S    
C14   H60   S    
C36   C43   A    
N10   Ni2   S    
C15   H61   S    
C68   H59   S    
C6    C20   S    
C29   C31   A    
C68   C69   S    
C1    N1    A    
N12   Ni3   S    
N15   Ni3   S    
C47   H20   S    
C1    H1    S    
C35   C56   S    
C41   N13   A    
C49   H22   S    
C22   H62   S    
C64   C65   S    
N1    N7    A    
C40   N12   A    
C62   H41   S    
N14   Ni4   S    
C52   H26   S    
C16   C23   A    
N11   Ni1   S    
N6    N11   A    
C60   H30   S    
C11   C64   S    
N2    N13   A    
C16   H11   S    
C62   H40   S    
C46   H19   S    
C70   H53   S    
C65   C66   S    
C48   C56   A    
C30   C33   A    
C53   N7    A    
C12   H12   S    
C2    C4    A    
C50   C71   A    
C3    C5    A    
C4    C6    A    
C25   H3    S    
C17   N11   A    
C29   C35   A    
C19   C67   S    
C58   C59   S    
C40   H16   S    
C30   C32   A    
N8    Ni4   S    
Br2   C2    S    
C15   C19   A    
C63   H38   S    
C41   H17   S    
C69   H55   S    
C24   H2    S    
C12   N9    A    
C10   C13   A    
C14   C18   A    
C68   H58   S    
N1    Ni1   S    
C59   H32   S    
C7    C9    A    
N4    N15   A    
C8    C10   A    
N5    N10   A    
C61   H42   S    
C1    C55   A    
N2    Ni1   S    
C44   N14   A    
N16   Ni2   S    
C14   C21   A    
C19   C21   A    
N6    Ni3   S    
C64   H50   S    
N9    Ni2   S    
C65   H48   S    
C26   H4    S    
C60   H29   S    
C23   C28   S    
C5    C7    A    
C13   C68   S    
C39   C43   A    
C47   N16   A    
C52   N6    A    
C63   H39   S    
C46   C71   A    
N12   N16   A    
C18   C20   A    
N8    N9    A    
C16   N10   A    
C65   H49   S    
C66   H47   S    
C54   C57   A    
N5    Ni4   S    
C29   H5    S    
C37   C42   A    
C45   C47   A    
C32   H8    S    
C53   H27   S    
N3    N14   A    
C24   C26   A    
C15   C20   A    
C64   H51   S    
C7    C58   S    
C62   C63   S    
C38   H14   S    
C2    C13   A    
C53   C55   A    
C54   H28   S    
C69   C70   S    
C66   H46   S    
C36   C38   A    
C9    C11   A    
C31   C33   A    
C5    C21   S    
C26   C28   A    
C50   N4    A    
C18   C71   S    
C3    H23   S    
C51   N5    A    
C40   C45   A    
C59   C60   S    
C59   H33   S    
C22   C28   A    
C58   H36   S    
C69   H57   S    
C61   C62   S    
C54   N8    A    
C38   C42   A    
C11   C72   A    
C24   C27   A    
C6    C8    A    
C46   N15   A    
C70   H52   S    
C4    H34   S    
C48   N2    A    
C49   C67   A    
C33   C45   S    
C31   H7    S    
N4    Ni2   S    
C49   N3    A    
