data_mof_unit_40551.cif
_audit_creation_date              2012-12-11T15:53:57-0500
_audit_creation_method            fapswitch 2.2
_symmetry_space_group_name_H-M    P1
_symmetry_Int_Tables_number       1
_space_group_crystal_system       triclinic
_cell_length_a                    10.760236
_cell_length_b                    10.653792
_cell_length_c                    16.933349
_cell_angle_alpha                 80.813051
_cell_angle_beta                  99.40466
_cell_angle_gamma                 118.395465
_cell_volume                      1677.1615032

loop_
_atom_site_label
_atom_site_type_symbol
_atom_type_description
_atom_site_fract_x
_atom_site_fract_y
_atom_site_fract_z
_atom_type_partial_charge
C1    C     C_R   0.361285 0.228883 0.627192 0.561308
C2    C     C_R   0.419443 0.827861 0.687090 0.241392
C3    C     C_R   0.384432 0.855320 0.755980 -0.142852
C4    C     C_3   0.091046 0.474556 0.777524 -0.187883
C5    C     C_3   0.110996 0.451822 0.694690 0.140155
C6    C     C_R   0.324985 0.699532 0.649494 -0.015408
C7    C     C_1   0.852060 0.670042 0.702195 -0.044076
C8    C     C_1   0.899313 0.703971 0.769113 -0.066563
C9    C     C_1   0.345147 0.187181 0.709672 -0.045478
C10   C     C_1   0.319944 0.159578 0.778147 -0.059582
C11   C     C_1   0.375924 0.636643 0.274415 -0.007536
C12   C     C_R   0.372522 0.655332 0.587387 0.555149
C13   C     C_1   0.347701 0.654966 0.203609 0.018343
C14   C     C_R   0.788069 0.656822 0.143522 0.016944
C15   C     C_R   0.708798 0.518010 0.178235 0.024612
C16   C     C_R   0.679422 0.495711 0.256623 0.003162
C17   C     C_R   0.763390 0.746152 0.260667 -0.158589
C18   C     C_R   0.795813 0.769538 0.180939 -0.153911
C19   C     C_3   0.706225 0.375895 0.181555 -0.267165
C20   C     C_3   0.677221 0.353953 0.269362 -0.284883
C21   C     C_R   0.720195 0.608615 0.302848 0.004223
C22   C     C_R   0.306685 0.133247 0.167580 -0.017378
C23   C     C_R   0.782033 0.621645 0.625845 0.574195
C24   C     C_R   0.254427 0.220065 0.186106 0.020644
C25   C     C_R   0.264657 0.243705 0.264401 0.046838
C26   C     C_R   0.352996 0.068508 0.309084 -0.202245
C27   C     C_R   0.350376 0.051871 0.228909 -0.184444
C28   C     C_3   0.103102 0.194250 0.171718 0.082860
C29   C     C_3   0.119024 0.234714 0.255462 0.177803
C30   C     C_R   0.317193 0.170495 0.325869 -0.022039
C31   C     C_R   0.948408 0.725044 0.851651 0.528206
C32   C     C_R   0.280668 0.752228 0.883362 0.552974
C33   C     C_R   0.283778 0.114106 0.857838 0.537347
C34   C     C_R   0.347783 0.221008 0.402726 0.543753
C35   C     C_R   0.879598 0.688771 0.080569 0.546375
C36   C     C_R   0.316915 0.697365 0.122351 0.576680
C37   C     C_R   0.280188 0.098516 0.087390 0.566533
C38   C     C_R   0.404421 0.624278 0.359336 0.548135
C39   C     C_R   0.702827 0.584559 0.388808 0.552876
C40   C     C_R   0.275538 0.745632 0.797489 -0.068202
C41   C     C_R   0.172343 0.631614 0.754751 -0.045215
C42   C     C_R   0.193714 0.611752 0.680174 0.020853
Cr1   Cr    Cr6+3 0.608440 0.389080 0.519680 1.019057
Cr2   Cr    Cr6+3 0.288640 0.400090 0.490760 0.966089
Cr3   Cr    Cr6+3 0.602940 0.710800 0.489510 1.007597
Cr4   Cr    Cr6+3 0.052530 0.947560 0.964210 1.030749
Cr5   Cr    Cr6+3 0.059970 0.626800 0.992920 1.079407
Cr6   Cr    Cr6+3 0.373320 0.938440 0.995370 1.018576
H1    H     H_    0.614014 0.302392 0.143092 0.157859
H2    H     H_    0.572509 0.271021 0.280059 0.169172
H3    H     H_    0.758589 0.345379 0.315221 0.127649
H4    H     H_    0.391809 0.010999 0.356605 0.150469
H5    H     H_    0.380554 0.974961 0.214908 0.153836
H6    H     H_    0.028726 0.079690 0.166610 0.086899
H7    H     H_    0.045210 0.146473 0.296091 0.063655
H8    H     H_    0.459034 0.951806 0.784182 0.157209
H9    H     H_    0.979054 0.442024 0.786024 0.184666
H10   H     H_    0.148407 0.434882 0.827403 0.133524
H11   H     H_    0.176128 0.394619 0.698181 0.110356
H12   H     H_    0.782483 0.837494 0.290269 0.136330
H13   H     H_    0.839263 0.877104 0.151889 0.135727
H14   H     H_    0.807983 0.381386 0.172307 0.177931
O1    O     O_R   0.754020 0.497590 0.609930 -0.454036
O2    O     O_R   0.295080 0.533620 0.397890 -0.491805
O3    O     O_R   0.485280 0.746620 0.388440 -0.532637
O4    O     O_R   0.720550 0.696220 0.420010 -0.518320
O5    O     O_3   0.500010 0.499990 0.499980 -0.291596
O6    O     O_R   0.163320 0.092900 0.874450 -0.513508
O7    O     O_R   0.934650 0.822080 0.882840 -0.501498
O8    O     O_R   0.915520 0.604140 0.893670 -0.497877
O9    O     O_R   0.191760 0.638110 0.923230 -0.484031
O10   O     O_R   0.406180 0.826930 0.920660 -0.508872
O11   O     O_R   0.358620 0.062870 0.901950 -0.514233
O12   O     O_R   0.481420 0.271390 0.600630 -0.477894
O13   O     O_R   0.163910 0.085460 0.050210 -0.484325
O14   O     O_R   0.935200 0.815170 0.045770 -0.499539
O15   O     O_R   0.916120 0.596690 0.069430 -0.502626
O16   O     O_R   0.192310 0.631200 0.086170 -0.432260
O17   O     O_R   0.406770 0.819480 0.096420 -0.527516
O18   O     O_R   0.359170 0.055960 0.064880 -0.509775
O19   O     O_3   0.161940 0.837600 0.984160 -0.308800
O20   O     O_R   0.263810 0.254550 0.589590 -0.545817
O21   O     O_R   0.300820 0.531200 0.560890 -0.528748
O22   O     O_R   0.491480 0.744020 0.564270 -0.457194
O23   O     O_R   0.726290 0.693800 0.583010 -0.510726
O24   O     O_R   0.747830 0.500190 0.434090 -0.529381
O25   O     O_R   0.475680 0.273800 0.437630 -0.519100
O26   O     O_R   0.257620 0.257160 0.413750 -0.527477
O27   O     O_3   0.555349 0.916639 0.665141 -0.540120
C43   C     C_3   0.651796 0.880513 0.719079 0.009911
H15   H     H_    0.632724 0.770504 0.711889 0.150767
H16   H     H_    0.643283 0.885981 0.783003 0.135486
C44   C     C_3   0.802989 0.985455 0.702104 -0.365114
H17   H     H_    0.825375 0.095073 0.711886 0.171702
H18   H     H_    0.878965 0.957936 0.743810 0.129365
H19   H     H_    0.818278 0.981501 0.639471 0.158618
Br1   Br    Br    0.068099 0.316067 0.082623 -0.442603
O28   O     O_3   0.129373 0.372411 0.254998 -0.514498
C45   C     C_3   0.026035 0.367385 0.298810 0.021182
H20   H     H_    0.044643 0.334225 0.363490 0.149689
H21   H     H_    0.918438 0.288623 0.275465 0.106853
C46   C     C_3   0.033454 0.516700 0.291104 -0.343207
H22   H     H_    0.964704 0.520307 0.331631 0.109153
H23   H     H_    0.139304 0.601550 0.308956 0.169969
H24   H     H_    0.005474 0.549119 0.228177 0.167950
O29   O     O_3   0.979796 0.398316 0.645498 -0.536551
C47   C     C_3   0.979007 0.314770 0.588291 -0.009877
H25   H     H_    0.010523 0.231371 0.617242 0.130716
H26   H     H_    0.050928 0.383751 0.542065 0.173269
C48   C     C_3   0.830583 0.239700 0.544985 -0.351696
H27   H     H_    0.808398 0.317576 0.501936 0.181866
H28   H     H_    0.823253 0.155268 0.510833 0.067785
H29   H     H_    0.748960 0.190469 0.588163 0.204304

loop_
_geom_bond_atom_site_label_1
_geom_bond_atom_site_label_2
_ccdc_geom_bond_type
C28   Br1   S    
C5    C42   S    
C44   H17   S    
C11   C38   S    
C41   C42   A    
C14   C18   A    
C19   C20   S    
Cr2   O21   S    
Cr4   O14   S    
Cr1   O1    S    
C7    C8    T    
C32   O10   A    
Cr2   O2    S    
C15   C19   S    
C26   C27   A    
C16   C21   A    
C29   O28   S    
C1    O12   A    
Cr6   O17   S    
C28   C29   S    
C20   H3    S    
Cr2   O20   S    
C6    C12   S    
C4    C41   S    
C19   H14   S    
C15   C16   A    
Cr6   O19   S    
C12   O22   A    
C46   H24   S    
C48   H27   S    
Cr4   O7    S    
C20   H2    S    
C31   O8    A    
C4    H9    S    
Cr3   O5    S    
C47   H25   S    
C9    C10   T    
Cr1   O12   S    
C23   O1    A    
C37   O13   A    
C44   H18   S    
C47   H26   S    
C2    C6    A    
Cr6   O10   S    
Cr4   O13   S    
C32   O9    A    
C38   O2    A    
C5    O29   S    
C25   C29   S    
C37   O18   A    
C35   O14   A    
C5    H11   S    
C1    C9    S    
C24   C25   A    
C13   C36   S    
C14   C35   S    
C30   C34   S    
Cr5   O19   S    
C29   H7    S    
C1    O20   A    
C22   C37   S    
C35   O15   A    
C17   C21   A    
C12   O21   A    
C2    O27   S    
Cr3   O23   S    
Cr5   O8    S    
Cr4   O6    S    
C26   H4    S    
Cr4   O19   S    
C3    H8    S    
C19   H1    S    
C43   H16   S    
C45   H20   S    
C21   C39   S    
C38   O3    A    
C16   C20   S    
C17   C18   A    
C34   O26   A    
O29   C47   S    
C46   H23   S    
C48   H29   S    
Cr5   O9    S    
C33   O11   A    
C40   C41   A    
C45   H21   S    
C3    C40   A    
C26   C30   A    
C44   H19   S    
C22   C27   A    
C23   O23   A    
C47   C48   S    
C22   C24   A    
Cr3   O22   S    
Cr5   O15   S    
C43   C44   S    
C25   C30   A    
C28   H6    S    
C8    C31   S    
Cr6   O11   S    
C24   C28   S    
C4    C5    S    
C36   O17   A    
C27   H5    S    
C18   H13   S    
C39   O24   A    
Cr1   O25   S    
Cr6   O18   S    
C2    C3    A    
C36   O16   A    
Cr3   O3    S    
C11   C13   T    
C43   H15   S    
C7    C23   S    
C39   O4    A    
C10   C33   S    
C34   O25   A    
C32   C40   S    
C46   H22   S    
C48   H28   S    
Cr1   O24   S    
C17   H12   S    
C31   O7    A    
C45   C46   S    
Cr1   O5    S    
O28   C45   S    
C6    C42   A    
C4    H10   S    
Cr3   O4    S    
C14   C15   A    
Cr2   O5    S    
Cr5   O16   S    
O27   C43   S    
Cr2   O26   S    
C33   O6    A    
