data_mof_unit_35084.cif
_audit_creation_date              2012-12-10T20:45:28-0500
_audit_creation_method            fapswitch 2.2
_symmetry_space_group_name_H-M    P1
_symmetry_Int_Tables_number       1
_space_group_crystal_system       triclinic
_cell_length_a                    10.741818
_cell_length_b                    10.732043
_cell_length_c                    9.834509
_cell_angle_alpha                 89.995919
_cell_angle_beta                  90.439856
_cell_angle_gamma                 89.985889
_cell_volume                      1133.70500488

loop_
_atom_site_label
_atom_site_type_symbol
_atom_type_description
_atom_site_fract_x
_atom_site_fract_y
_atom_site_fract_z
_atom_type_partial_charge
C1    C     C_R   0.499232 0.259808 0.499564 0.917466
C2    C     C_R   0.217919 0.746209 0.043306 -0.105554
C3    C     C_R   0.931962 0.551234 0.390630 -0.251029
C4    C     C_R   0.872620 0.500056 0.503517 -0.077153
C5    C     C_R   0.940830 0.455758 0.616623 -0.013620
C6    C     C_R   0.068208 0.459551 0.611278 -0.258941
C7    C     C_R   0.127738 0.509805 0.498296 -0.078556
C8    C     C_R   0.059913 0.559149 0.387246 -0.002230
C9    C     C_R   0.861145 0.484486 0.852313 -0.122955
C10   C     C_R   0.816450 0.435902 0.974470 -0.167058
C11   C     C_R   0.796654 0.307892 0.987884 -0.096576
C12   C     C_R   0.260138 0.504868 0.499199 0.863918
C13   C     C_R   0.822124 0.228139 0.879254 -0.152018
C14   C     C_R   0.865647 0.276402 0.756251 -0.167903
C15   C     C_R   0.885039 0.405002 0.742113 0.159989
C16   C     C_R   0.467738 0.063721 0.618158 0.047707
C17   C     C_R   0.487477 0.127842 0.496984 -0.245394
C18   C     C_R   0.491241 0.062698 0.372764 0.591891
C19   C     C_R   0.490806 0.934601 0.374098 -0.333499
C20   C     C_R   0.486330 0.871307 0.498249 -0.193864
C21   C     C_R   0.466880 0.936114 0.618748 0.130677
C22   C     C_3   0.538242 0.928867 0.749505 -0.472138
C23   C     C_R   0.498692 0.739915 0.499856 0.907910
C24   C     C_3   0.540517 0.069726 0.748181 -0.429643
C25   C     C_R   0.461169 0.397098 0.071127 0.295902
C26   C     C_R   0.548013 0.597290 0.072447 -0.154104
C27   C     C_R   0.548590 0.596992 0.928369 -0.130903
C28   C     C_R   0.459348 0.398001 0.928237 0.233275
C29   C     C_3   0.331182 0.344575 0.923512 -0.547153
C30   C     C_3   0.335242 0.339478 0.077546 -0.482761
C31   C     C_R   0.740081 0.498104 0.501041 0.868980
C32   C     C_R   0.239822 0.791715 0.174434 -0.129990
C33   C     C_R   0.190135 0.730214 0.287148 -0.094953
C34   C     C_R   0.117162 0.622734 0.268947 0.137911
C35   C     C_R   0.093307 0.579357 0.136431 -0.196324
C36   C     C_R   0.144380 0.640276 0.024276 -0.143218
H1    H     H_    0.257120 0.793610 0.956417 0.125564
H2    H     H_    0.762560 0.270443 0.082773 0.158925
H3    H     H_    0.808801 0.128758 0.890747 0.135768
H4    H     H_    0.885936 0.213721 0.673006 0.122128
H5    H     H_    0.502418 0.885820 0.278602 0.189290
H6    H     H_    0.481287 0.889737 0.833221 0.197265
H7    H     H_    0.631960 0.886256 0.737746 0.194849
H8    H     H_    0.487227 0.111504 0.832873 0.209946
H9    H     H_    0.634950 0.108899 0.733016 0.203512
H10   H     H_    0.585418 0.676440 0.127131 0.149448
H11   H     H_    0.294262 0.875449 0.188341 0.139472
H12   H     H_    0.587156 0.675479 0.874324 0.145168
H13   H     H_    0.261494 0.412021 0.883795 0.213678
H14   H     H_    0.327576 0.251220 0.875246 0.204624
H15   H     H_    0.266010 0.400464 0.127210 0.222563
H16   H     H_    0.338287 0.242835 0.117735 0.247909
H17   H     H_    0.207463 0.766810 0.388175 0.102469
H18   H     H_    0.037198 0.496868 0.120420 0.143059
H19   H     H_    0.126737 0.605496 0.922633 0.133715
H20   H     H_    0.878288 0.589312 0.306400 0.157939
H21   H     H_    0.121003 0.421258 0.695852 0.158852
H22   H     H_    0.877856 0.583690 0.843705 0.118464
H23   H     H_    0.798479 0.497355 0.059300 0.137641
N1    N     N_R   0.499160 0.499140 0.142800 -0.113101
N2    N     N_R   0.499160 0.499180 0.857150 -0.103831
O1    O     O_R   0.500020 0.316790 0.614690 -0.620969
O2    O     O_R   0.500000 0.316760 0.385350 -0.557283
O3    O     O_R   0.316770 0.500030 0.614670 -0.629589
O4    O     O_R   0.316750 0.499990 0.385330 -0.615646
O5    O     O_R   0.500000 0.683240 0.614650 -0.626191
O6    O     O_R   0.499980 0.683210 0.385310 -0.631675
O7    O     O_R   0.683250 0.500010 0.614670 -0.613323
O8    O     O_R   0.683230 0.499970 0.385330 -0.630008
Zn1   Zn    Zn3+2 0.500010 0.500020 0.653130 0.947558
Zn2   Zn    Zn3+2 0.499990 0.499980 0.346870 0.967068
F1    F     F_    0.506335 0.120723 0.251312 -0.693344

loop_
_geom_bond_atom_site_label_1
_geom_bond_atom_site_label_2
_ccdc_geom_bond_type
N2    Zn1   S    
C27   H12   S    
C11   H2    S    
C30   H15   S    
C16   C21   A    
C29   C30   S    
C25   N1    A    
O3    Zn1   S    
C3    H20   S    
O5    Zn1   S    
C1    C17   S    
C35   C36   A    
C2    H1    S    
C20   C23   S    
C10   H23   S    
C28   N2    A    
C33   C34   A    
C9    C15   A    
C7    C8    A    
C16   C24   S    
C36   H19   S    
C29   H13   S    
C13   C14   A    
C32   C33   A    
C35   H18   S    
C33   H17   S    
C11   C13   A    
C6    H21   S    
C26   C27   A    
C22   H6    S    
C12   O3    A    
C24   H9    S    
C1    O2    A    
C23   O5    A    
C2    C32   A    
C28   C29   S    
O2    Zn2   S    
C9    H22   S    
C6    C7    A    
O6    Zn2   S    
C29   H14   S    
C3    C8    A    
C18   F1    S    
C5    C6    A    
C24   H8    S    
C32   H11   S    
C22   C24   S    
C7    C12   S    
C5    C15   S    
C4    C31   S    
C13   H3    S    
C10   C11   A    
C26   H10   S    
C14   H4    S    
C17   C18   A    
C9    C10   A    
C19   H5    S    
C31   O8    A    
C2    C36   A    
C20   C21   A    
O1    Zn1   S    
C1    O1    A    
O7    Zn1   S    
C34   C35   A    
C12   O4    A    
C23   O6    A    
C25   C30   S    
O8    Zn2   S    
C30   H16   S    
C14   C15   A    
C18   C19   A    
C8    C34   S    
C27   N2    A    
N1    Zn2   S    
C21   C22   S    
C26   N1    A    
C31   O7    A    
C22   H7    S    
C3    C4    A    
C19   C20   A    
C16   C17   A    
O4    Zn2   S    
C4    C5    A    
C25   C28   A    
