data_mof_unit_13661.cif
_audit_creation_date              2012-12-11T14:15:22-0500
_audit_creation_method            fapswitch 2.2
_symmetry_space_group_name_H-M    P1
_symmetry_Int_Tables_number       1
_space_group_crystal_system       triclinic
_cell_length_a                    11.145064
_cell_length_b                    12.686862
_cell_length_c                    23.536423
_cell_angle_alpha                 90.791174
_cell_angle_beta                  96.812291
_cell_angle_gamma                 68.838106
_cell_volume                      3080.10626358

loop_
_atom_site_label
_atom_site_type_symbol
_atom_type_description
_atom_site_fract_x
_atom_site_fract_y
_atom_site_fract_z
_atom_type_partial_charge
C1    C     C_R   0.150267 0.616900 0.429200 0.534840
C2    C     C_R   0.755269 0.509873 0.301851 0.205055
C3    C     C_R   0.749430 0.704441 0.312341 -0.004156
C4    C     C_R   0.702554 0.725673 0.254310 0.035627
C5    C     C_R   0.716519 0.632844 0.218513 0.008747
C6    C     C_R   0.721414 0.648461 0.160192 0.237184
C7    C     C_R   0.660471 0.851574 0.172168 -0.021024
C8    C     C_R   0.658778 0.836104 0.230310 0.217755
C9    C     C_1   0.234255 0.164364 0.122389 0.011081
C10   C     C_2   0.170289 0.236203 0.225014 0.020032
C11   C     C_2   0.161036 0.161561 0.263759 0.041744
C12   C     C_R   0.804649 0.575364 0.399885 0.571372
C13   C     C_1   0.134963 0.195799 0.321460 0.020776
C14   C     C_1   0.205456 0.200154 0.168586 0.003687
C15   C     C_1   0.116989 0.229941 0.368972 0.052951
C16   C     C_1   0.171317 0.751090 0.124508 -0.001693
C17   C     C_2   0.155009 0.685823 0.229115 0.247710
C18   C     C_2   0.246696 0.678226 0.273965 0.005940
C19   C     C_1   0.225398 0.653885 0.331318 0.033300
C20   C     C_1   0.163664 0.720655 0.171897 0.012135
C21   C     C_1   0.198116 0.635876 0.377534 0.016577
C22   C     C_1   0.608852 0.765642 0.862371 0.025664
C23   C     C_R   0.101269 0.281626 0.423562 0.558250
C24   C     C_2   0.626061 0.750137 0.752385 0.204368
C25   C     C_2   0.709964 0.657764 0.731651 0.196654
C26   C     C_1   0.707186 0.642644 0.671442 0.045578
C27   C     C_1   0.621178 0.759146 0.812564 0.031247
C28   C     C_1   0.715526 0.627162 0.621651 0.029191
C29   C     C_R   0.199770 0.185608 0.853467 0.015940
C30   C     C_R   0.108774 0.211678 0.638216 0.018597
C31   C     C_R   0.990140 0.184121 0.714581 0.265498
C32   C     C_R   0.999961 0.193454 0.655434 0.002984
C33   C     C_R   0.215097 0.197185 0.678700 0.223532
C34   C     C_R   0.152712 0.618290 0.590202 0.561486
C35   C     C_R   0.197219 0.210885 0.736534 -0.008319
C36   C     C_R   0.087991 0.196652 0.756472 0.030644
C37   C     C_R   0.086578 0.191770 0.817194 -0.025652
C38   C     C_R   0.287228 0.228856 0.833005 0.260775
C39   C     C_R   0.282408 0.245813 0.774390 0.039583
C40   C     C_R   0.127356 0.744343 0.850459 0.040630
C41   C     C_R   0.205164 0.645915 0.646952 0.040173
C42   C     C_R   0.337361 0.591966 0.739282 0.002599
C43   C     C_R   0.319708 0.573711 0.679645 -0.041820
C44   C     C_R   0.125457 0.741659 0.672729 0.229937
C45   C     C_R   0.750093 0.602131 0.565775 0.557065
C46   C     C_R   0.119315 0.737368 0.731617 0.022630
C47   C     C_R   0.228093 0.660937 0.766067 0.012476
C48   C     C_R   0.224714 0.658694 0.825682 0.204289
C49   C     C_R   0.009533 0.805165 0.816372 -0.006129
C50   C     C_R   0.004787 0.801032 0.756024 0.026254
C51   C     C_R   0.265675 0.110454 0.069303 0.551486
C52   C     C_R   0.603098 0.775020 0.080032 0.566108
C53   C     C_R   0.190294 0.788286 0.070000 0.545639
C54   C     C_R   0.240838 0.116687 0.907560 0.573002
C55   C     C_R   0.573892 0.776671 0.918581 0.552948
C56   C     C_R   0.100218 0.275223 0.584433 0.561667
C57   C     C_R   0.163636 0.785782 0.906706 0.562350
C58   C     C_R   0.677991 0.757939 0.136461 0.025660
C59   C     C_R   0.768544 0.597515 0.337475 0.005672
C60   C     C_R   0.726695 0.528191 0.242400 0.015343
Cr1   Cr    Cr6+3 0.189770 0.415650 0.511620 1.064505
Cr2   Cr    Cr6+3 0.930400 0.667320 0.496770 1.069819
Cr3   Cr    Cr6+3 0.879870 0.417010 0.491650 1.075237
Cr4   Cr    Cr6+3 0.149500 0.973980 0.985330 1.038673
Cr5   Cr    Cr6+3 0.457000 0.976510 0.994660 1.074940
Cr6   Cr    Cr6+3 0.411170 0.724270 0.995270 1.135083
O1    O     O_R   0.196340 0.303200 0.448500 -0.499356
O2    O     O_R   0.811960 0.658090 0.547150 -0.479069
O3    O     O_R   0.757930 0.506140 0.547110 -0.511998
O4    O     O_R   0.988670 0.321620 0.556040 -0.523102
O5    O     O_3   0.000020 0.499990 0.500010 -0.289686
O6    O     O_R   0.113660 0.883270 0.047820 -0.506161
O7    O     O_R   0.186930 0.068530 0.043990 -0.492669
O8    O     O_R   0.377770 0.089040 0.054220 -0.508626
O9    O     O_R   0.562800 0.872960 0.056970 -0.526857
O10   O     O_R   0.555390 0.700940 0.062700 -0.467051
O11   O     O_R   0.295020 0.731920 0.049950 -0.489410
O12   O     O_R   0.199310 0.519670 0.454880 -0.491163
O13   O     O_R   0.094290 0.884230 0.921550 -0.531516
O14   O     O_R   0.168980 0.069410 0.926940 -0.513975
O15   O     O_R   0.358400 0.089990 0.927950 -0.438553
O16   O     O_R   0.544850 0.873850 0.939920 -0.496258
O17   O     O_R   0.536020 0.701900 0.936430 -0.466052
O18   O     O_R   0.277070 0.732810 0.932890 -0.436808
O19   O     O_3   0.339220 0.891590 0.991750 -0.278434
O20   O     O_R   0.045660 0.691380 0.441680 -0.525798
O21   O     O_R   0.811930 0.659460 0.430950 -0.521375
O22   O     O_R   0.757900 0.507620 0.421760 -0.437064
O23   O     O_R   0.988630 0.322990 0.439840 -0.465058
O24   O     O_R   0.196380 0.301720 0.573850 -0.454693
O25   O     O_R   0.199350 0.518300 0.571080 -0.518655
O26   O     O_R   0.045700 0.689900 0.567030 -0.447642
Cl1   Cl    Cl    0.803501 0.535204 0.117262 -0.570684
Cl2   Cl    Cl    0.016017 0.655960 0.237828 -0.675659
Cl3   Cl    Cl    0.827272 0.549838 0.776551 -0.633056
Cl4   Cl    Cl    0.507829 0.857074 0.707529 -0.522883
C61   C     C_3   0.966489 0.204978 0.844855 -0.285940
H1    H     H_    0.975232 0.230660 0.889976 0.143102
H2    H     H_    0.882013 0.275351 0.823406 0.219320
H3    H     H_    0.948873 0.124280 0.844344 0.187926
Cl5   Cl    Cl    0.403724 0.263216 0.880232 -0.494907
Cl6   Cl    Cl    0.853206 0.157865 0.732647 -0.678764
C62   C     C_3   0.357731 0.312325 0.753656 -0.302988
H4    H     H_    0.340623 0.388872 0.779159 0.196637
H5    H     H_    0.462940 0.260744 0.758194 0.211703
H6    H     H_    0.322847 0.344288 0.708979 0.146120
C63   C     C_3   0.896939 0.178972 0.611191 -0.276063
H7    H     H_    0.931229 0.159392 0.568557 0.151534
H8    H     H_    0.871823 0.105776 0.622866 0.219063
H9    H     H_    0.808361 0.256628 0.607887 0.161723
Cl7   Cl    Cl    0.373194 0.146322 0.657215 -0.497207
Cl8   Cl    Cl    0.325547 0.539995 0.869444 -0.534396
C64   C     C_3   0.647705 0.967092 0.150246 -0.302255
H10   H     H_    0.701275 0.005533 0.181587 0.175399
H11   H     H_    0.692638 0.962106 0.110196 0.147255
H12   H     H_    0.544290 0.023323 0.144035 0.183262
C65   C     C_3   0.889176 0.870440 0.844059 -0.340243
H13   H     H_    0.810287 0.840057 0.829089 0.137393
H14   H     H_    0.901605 0.856125 0.891025 0.159225
H15   H     H_    0.858132 0.962230 0.833713 0.178131
C66   C     C_3   0.472692 0.550206 0.771445 -0.311718
H16   H     H_    0.541542 0.561123 0.744122 0.153824
H17   H     H_    0.479598 0.601141 0.809489 0.192198
H18   H     H_    0.505025 0.459534 0.784172 0.182920
C67   C     C_3   0.877599 0.857314 0.717719 -0.294180
H19   H     H_    0.790465 0.870455 0.738849 0.156503
H20   H     H_    0.870929 0.941258 0.702184 0.239193
H21   H     H_    0.869989 0.803860 0.680715 0.165836
C68   C     C_3   0.424135 0.485497 0.650428 -0.370650
H22   H     H_    0.513279 0.439932 0.679471 0.149260
H23   H     H_    0.389777 0.418671 0.632804 0.184160
H24   H     H_    0.451564 0.526507 0.615332 0.151677
Cl9   Cl    Cl    0.058407 0.871957 0.633197 -0.587647
C69   C     C_3   0.690123 0.441565 0.206618 -0.309217
H25   H     H_    0.627497 0.409214 0.228992 0.169139
H26   H     H_    0.630507 0.479008 0.165650 0.166297
H27   H     H_    0.778765 0.369752 0.198469 0.201022
Cl10  Cl    Cl    0.580980 0.955604 0.270768 -0.663964
Cl11  Cl    Cl    0.786881 0.371314 0.329219 -0.598842
C70   C     C_3   0.811967 0.782631 0.341374 -0.265619
H28   H     H_    0.912057 0.730906 0.357518 0.169124
H29   H     H_    0.825914 0.843044 0.311632 0.191477
H30   H     H_    0.756114 0.831264 0.375273 0.191920
C71   C     C_3   0.184098 0.040029 0.249450 -0.364838
H31   H     H_    0.170776 0.992749 0.286102 0.146815
H32   H     H_    0.114675 0.036264 0.212218 0.136485
H33   H     H_    0.284617 0.997897 0.238889 0.171873
C72   C     C_3   0.145757 0.358043 0.239088 -0.326302
H34   H     H_    0.155471 0.405959 0.201834 0.190474
H35   H     H_    0.045914 0.398906 0.250762 0.190129
H36   H     H_    0.216697 0.362839 0.275434 0.148540
C73   C     C_3   0.368833 0.699125 0.266394 -0.405248
H37   H     H_    0.433476 0.685748 0.307501 0.163932
H38   H     H_    0.422624 0.639953 0.235009 0.132887
H39   H     H_    0.344365 0.787305 0.250639 0.134915

loop_
_geom_bond_atom_site_label_1
_geom_bond_atom_site_label_2
_ccdc_geom_bond_type
C24   C25   D    
C1    C21   S    
Cr3   O22   S    
C63   H8    S    
C6    C58   A    
C53   O11   A    
C35   C36   A    
C9    C51   S    
C70   H30   S    
C4    C8    A    
C52   O9    A    
Cr6   O19   S    
C37   C61   S    
C61   H1    S    
C22   C55   S    
C7    C8    A    
Cr2   O20   S    
C24   C27   S    
C2    Cl11  S    
C36   C37   A    
C19   C21   T    
C70   H29   S    
C64   H10   S    
C38   Cl5   S    
C65   H14   S    
C5    C6    A    
C2    C60   A    
C29   C54   S    
C40   C49   A    
C1    O20   A    
C17   C20   S    
C8    Cl10  S    
C18   C19   S    
C23   O1    A    
C57   O13   A    
C34   O25   A    
C66   H18   S    
C33   C35   A    
Cr6   O17   S    
C16   C53   S    
C12   C59   S    
C49   C65   S    
Cr3   O3    S    
C32   C63   S    
Cr2   O26   S    
C29   C38   A    
C67   H21   S    
Cr4   O7    S    
C23   O23   A    
C33   Cl7   S    
C11   C71   S    
C41   C43   A    
C7    C58   A    
C30   C33   A    
C68   H24   S    
Cr1   O5    S    
C15   C23   S    
C1    O12   A    
Cr4   O14   S    
C34   C41   S    
C69   H27   S    
C71   H33   S    
C18   C73   S    
C61   H2    S    
C44   C46   A    
C54   O14   A    
C28   C45   S    
C12   O22   A    
C45   O3    A    
C31   Cl6   S    
C43   C68   S    
C72   H36   S    
C72   H34   S    
C71   H32   S    
C10   C14   S    
C65   H15   S    
C2    C59   A    
C71   H31   S    
C69   H26   S    
C52   O10   A    
C25   C26   S    
C30   C56   S    
Cr5   O8    S    
C51   O8    A    
C73   H39   S    
C35   C39   A    
C9    C14   T    
Cr1   O1    S    
Cr5   O15   S    
C31   C32   A    
Cr3   O4    S    
Cr1   O12   S    
C16   C20   T    
C6    Cl1   S    
Cr6   O10   S    
Cr3   O23   S    
C45   O2    A    
C17   C18   D    
C57   O18   A    
C62   H5    S    
C50   C67   S    
C70   H28   S    
C55   O16   A    
C39   C62   S    
C66   H16   S    
Cr3   O5    S    
C52   C58   S    
C48   Cl8   S    
C73   H38   S    
C25   Cl3   S    
C56   O4    A    
C22   C27   T    
C13   C15   T    
C67   H19   S    
Cr4   O13   S    
C42   C43   A    
C63   H7    S    
C55   O17   A    
C3    C4    A    
C60   C69   S    
Cr4   O19   S    
C61   H3    S    
Cr1   O24   S    
C68   H22   S    
C44   Cl9   S    
C40   C48   A    
Cr6   O11   S    
C46   C47   A    
C40   C57   S    
C5    C60   A    
C51   O7    A    
C72   H35   S    
C4    C5    A    
C47   C48   A    
Cr5   O19   S    
C69   H25   S    
C3    C70   S    
Cr2   O21   S    
C46   C50   A    
C26   C28   T    
Cr5   O9    S    
Cr2   O2    S    
C63   H9    S    
C64   H12   S    
C24   Cl4   S    
C12   O21   A    
C65   H13   S    
C30   C32   A    
C11   C13   S    
C7    C64   S    
Cr5   O16   S    
C38   C39   A    
C56   O24   A    
C41   C44   A    
Cr2   O5    S    
C62   H6    S    
C42   C47   A    
Cr4   O6    S    
C34   O26   A    
C66   H17   S    
C10   C11   D    
Cr6   O18   S    
C73   H37   S    
C49   C50   A    
C29   C37   A    
C62   H4    S    
C67   H20   S    
C31   C36   A    
C17   Cl2   S    
C68   H23   S    
C53   O6    A    
C54   O15   A    
Cr1   O25   S    
C42   C66   S    
C10   C72   S    
C64   H11   S    
C3    C59   A    
