data_mof_unit_55694.cif
_audit_creation_date              2012-10-26T18:50:24-0400
_audit_creation_method            fapswitch 2.2
_symmetry_space_group_name_H-M    P1
_symmetry_Int_Tables_number       1
_space_group_crystal_system       triclinic
_cell_length_a                    9.639039
_cell_length_b                    10.783393
_cell_length_c                    15.474751
_cell_angle_alpha                 85.077997
_cell_angle_beta                  74.377753
_cell_angle_gamma                 91.107244
_cell_volume                      1541.82768919

loop_
_atom_site_label
_atom_site_type_symbol
_atom_type_description
_atom_site_fract_x
_atom_site_fract_y
_atom_site_fract_z
_atom_type_partial_charge
C1    C     C_R   0.996410 0.262117 0.505018 0.586533
C2    C     C_R   0.228096 0.530770 0.041146 0.049568
C3    C     C_R   0.326024 0.496386 0.091920 0.048020
C4    C     C_R   0.918702 0.504006 0.671658 0.545272
C5    C     C_R   0.081710 0.542877 0.084323 -0.136423
C6    C     C_R   0.031331 0.523473 0.177662 -0.137638
C7    C     C_R   0.273255 0.483963 0.186478 -0.107866
C8    C     C_R   0.041044 0.104278 0.663321 0.140978
C9    C     C_R   0.100424 0.033601 0.723782 -0.067962
C10   C     C_R   0.131552 0.909209 0.712405 0.127110
C11   C     C_R   0.095719 0.853937 0.642349 -0.120947
C12   C     C_R   0.672466 0.497453 0.906956 0.032267
C13   C     C_R   0.043651 0.925025 0.577483 -0.039354
C14   C     C_R   0.027529 0.054283 0.583919 0.038053
C15   C     C_R   0.988069 0.126748 0.513769 0.008781
C16   C     C_R   0.999947 0.736821 0.502694 0.531395
C17   C     C_R   0.943853 0.069440 0.447720 -0.172156
C18   C     C_R   0.945389 0.941743 0.447156 -0.160535
C19   C     C_R   0.998975 0.869807 0.509133 0.002566
C20   C     C_R   0.710168 0.639862 0.362076 -0.107112
C21   C     C_R   0.683046 0.680427 0.279959 0.087674
C22   C     C_R   0.541418 0.665327 0.273714 0.208220
C23   C     C_R   0.768390 0.456190 0.957602 0.051842
C24   C     C_R   0.430782 0.639750 0.353975 0.190480
C25   C     C_R   0.458778 0.569283 0.430236 0.075498
C26   C     C_R   0.606989 0.568456 0.431442 0.058505
C27   C     C_R   0.544522 0.433022 0.564736 -0.001149
C28   C     C_R   0.081717 0.498602 0.328087 0.522245
C29   C     C_R   0.395690 0.432455 0.565157 0.344388
C30   C     C_R   0.873515 0.502444 0.770342 -0.013293
C31   C     C_R   0.127909 0.499969 0.229400 -0.013125
C32   C     C_R   0.914723 0.442848 0.914910 -0.147864
C33   C     C_R   0.967510 0.467712 0.822046 -0.158175
C34   C     C_R   0.523308 0.508534 0.951461 0.031889
C35   C     C_R   0.729190 0.522436 0.813064 -0.142462
C36   C     C_3   0.814734 0.190480 0.729440 -0.304602
C37   C     C_3   0.323433 0.877001 0.785081 -0.307884
C38   C     C_3   0.895739 0.827781 0.225419 -0.315208
C39   C     C_3   0.351168 0.844372 0.384909 -0.280950
C40   C     C_R   0.473692 0.480368 0.046805 0.034818
C41   C     C_R   0.572848 0.435703 0.093772 -0.147050
C42   C     C_R   0.717238 0.425456 0.050032 -0.143847
C43   C     C_R   0.421629 0.544856 0.903907 -0.147242
C44   C     C_R   0.277028 0.554015 0.947978 -0.142353
Cu1   Cu    Cu3+1 0.140660 0.499990 0.500010 1.017405
Cu2   Cu    Cu3+1 0.859340 0.500010 0.499990 0.919019
H1    H     H_    0.789284 0.391626 0.088975 0.109818
H2    H     H_    0.917877 0.530772 0.209436 0.164687
H3    H     H_    0.203123 0.581368 0.908670 0.111887
H4    H     H_    0.987644 0.408858 0.953017 0.107623
H5    H     H_    0.079890 0.452910 0.790417 0.142259
H6    H     H_    0.662861 0.553723 0.770502 0.119758
H7    H     H_    0.542476 0.405741 0.164732 0.106489
H8    H     H_    0.448817 0.566083 0.832006 0.099441
H9    H     H_    0.014301 0.258432 0.734532 0.263544
H10   H     H_    0.765863 0.153286 0.679079 0.151156
H11   H     H_    0.762288 0.278098 0.748633 0.150747
H12   H     H_    0.006333 0.569558 0.046084 0.122544
H13   H     H_    0.792061 0.123129 0.790623 0.134741
H14   H     H_    0.175750 0.740970 0.773906 0.246147
H15   H     H_    0.321145 0.973944 0.804292 0.147628
H16   H     H_    0.407104 0.871573 0.720291 0.144248
H17   H     H_    0.352627 0.815971 0.838428 0.149969
H18   H     H_    0.765641 0.771162 0.148809 0.270058
H19   H     H_    0.967090 0.873109 0.161229 0.150225
H20   H     H_    0.966819 0.779198 0.261703 0.142507
H21   H     H_    0.836641 0.901384 0.264389 0.140992
H22   H     H_    0.574873 0.676505 0.144699 0.327696
H23   H     H_    0.909717 0.124083 0.395574 0.124256
H24   H     H_    0.269543 0.726367 0.310359 0.278189
H25   H     H_    0.259298 0.905402 0.387504 0.138957
H26   H     H_    0.445535 0.888572 0.332266 0.154579
H27   H     H_    0.375236 0.838197 0.451424 0.151470
H28   H     H_    0.340305 0.317487 0.673634 0.276862
H29   H     H_    0.111289 0.072723 0.783927 0.112539
H30   H     H_    0.108252 0.755006 0.640410 0.146418
H31   H     H_    0.909025 0.898767 0.396200 0.107982
H32   H     H_    0.576885 0.378050 0.617288 0.098323
H33   H     H_    0.812121 0.665058 0.370500 0.196000
H34   H     H_    0.344100 0.466148 0.228695 0.134976
N1    N     N_R   0.648320 0.501210 0.499140 -0.256625
N2    N     N_R   0.352470 0.501290 0.499110 -0.199248
N3    N     N_2   0.969027 0.213237 0.692118 -0.482157
N4    N     N_2   0.184001 0.835947 0.777041 -0.517676
N5    N     N_2   0.794590 0.740566 0.206033 -0.530232
N6    N     N_2   0.315426 0.721234 0.363546 -0.426893
O1    O     O_R   0.118810 0.319640 0.500010 -0.443398
O2    O     O_3   0.292947 0.361735 0.631209 -0.679977
O3    O     O_R   0.881240 0.319660 0.500000 -0.502058
O4    O     O_R   0.055570 0.499980 0.629840 -0.453085
O5    O     O_R   0.818000 0.500010 0.629830 -0.512559
O6    O     O_R   0.118760 0.680340 0.500000 -0.483399
O7    O     O_R   0.881190 0.680360 0.499990 -0.522819
O8    O     O_R   0.182000 0.499990 0.370170 -0.501917
O9    O     O_R   0.944430 0.500020 0.370160 -0.525028
O10   O     O_3   0.503387 0.706211 0.196659 -0.724974

loop_
_geom_bond_atom_site_label_1
_geom_bond_atom_site_label_2
_ccdc_geom_bond_type
C44   H3    S    
C1    O1    A    
C17   H23   S    
C27   C29   A    
C8    N3    S    
C11   C13   A    
C41   C42   A    
Cu1   N2    S    
C27   H32   S    
C37   H16   S    
Cu2   O3    S    
Cu1   Cu2   S    
C12   C23   A    
C16   O7    A    
H22   O10   S    
C23   C42   A    
C6    H2    S    
C5    H12   S    
C28   O9    A    
C34   C40   A    
Cu1   O1    S    
C3    C7    A    
C11   H30   S    
C16   C19   S    
C5    C6    A    
C36   N3    S    
C28   O8    A    
C18   C19   A    
Cu1   O6    S    
C29   O2    S    
Cu2   O9    S    
C38   H20   S    
C2    C44   A    
C8    C9    A    
C8    C14   A    
C39   H26   S    
C37   N4    S    
C1    C15   S    
C9    C10   A    
C30   C33   A    
C4    O5    A    
C36   H13   S    
C6    C31   A    
C13   C14   A    
Cu1   O8    S    
C37   H17   S    
C4    O4    A    
C21   N5    S    
C7    C31   A    
C13   C19   A    
C38   N5    S    
C27   N1    A    
C24   C25   A    
C36   H11   S    
Cu2   O5    S    
C25   C26   A    
C43   C44   A    
C36   H10   S    
Cu2   N1    S    
C43   H8    S    
C38   H19   S    
C32   H4    S    
C17   C18   A    
C38   H21   S    
C12   C35   A    
Cu1   O4    S    
C41   H7    S    
C30   C35   A    
C40   C41   A    
C3    C40   A    
C16   O6    A    
C26   N1    A    
C25   N2    A    
C22   C24   A    
C2    C5    A    
H9    N3    S    
H24   N6    S    
H18   N5    S    
C15   C17   A    
C1    O3    A    
C20   H33   S    
C22   O10   S    
C28   C31   S    
C34   C43   A    
C37   H15   S    
C33   H5    S    
C23   C32   A    
C2    C3    A    
C29   N2    A    
C32   C33   A    
H14   N4    S    
Cu2   O7    S    
C20   C26   A    
C18   H31   S    
C10   N4    S    
C42   H1    S    
C39   H27   S    
C10   C11   A    
C12   C34   A    
C20   C21   A    
C35   H6    S    
C39   H25   S    
C14   C15   A    
C9    H29   S    
C39   N6    S    
H28   O2    S    
C21   C22   A    
C24   N6    S    
C4    C30   S    
C7    H34   S    
