data_mof_unit_53596.cif
_audit_creation_date              2012-12-10T18:41:40-0500
_audit_creation_method            fapswitch 2.2
_symmetry_space_group_name_H-M    P1
_symmetry_Int_Tables_number       1
_space_group_crystal_system       triclinic
_cell_length_a                    15.095982
_cell_length_b                    14.059916
_cell_length_c                    9.074809
_cell_angle_alpha                 90.000092
_cell_angle_beta                  94.15009
_cell_angle_gamma                 90.000087
_cell_volume                      1921.06176197

loop_
_atom_site_label
_atom_site_type_symbol
_atom_type_description
_atom_site_fract_x
_atom_site_fract_y
_atom_site_fract_z
_atom_type_partial_charge
C1    C     C_R   0.330562 0.500147 0.498720 0.801997
C2    C     C_R   0.579205 0.892147 0.521616 0.334025
C3    C     C_R   0.499591 0.500001 0.220913 0.824765
C4    C     C_R   0.500409 0.500001 0.779087 0.824765
C5    C     C_R   0.500000 0.053936 0.500000 -0.106201
C6    C     C_R   0.500000 0.945281 0.500000 -0.144828
C7    C     C_1   0.499842 0.499984 0.065599 -0.189159
C8    C     C_1   0.500157 0.499984 0.934401 -0.189159
C9    C     C_R   0.101159 0.528917 0.625207 -0.163365
C10   C     C_R   0.910382 0.471339 0.627115 -0.169846
C11   C     C_R   0.898841 0.528920 0.374792 -0.163365
C12   C     C_R   0.669438 0.500147 0.501280 0.801995
C13   C     C_R   0.089618 0.471342 0.372881 -0.169847
C14   C     C_R   0.193673 0.529016 0.626147 0.124855
C15   C     C_R   0.818240 0.474206 0.631095 0.134799
C16   C     C_R   0.806327 0.529019 0.373853 0.124856
C17   C     C_R   0.181760 0.474209 0.368902 0.134800
C18   C     C_R   0.234184 0.500962 0.497593 -0.027768
C19   C     C_R   0.765816 0.500962 0.502406 -0.027773
C20   C     C_R   0.048787 0.499318 0.499729 0.036076
C21   C     C_R   0.951213 0.499318 0.500268 0.036076
C22   C     C_3   0.617646 0.253847 0.716355 -0.680753
C23   C     C_R   0.553650 0.207578 0.602479 0.187509
C24   C     C_3   0.347651 0.749389 0.363191 -0.678318
C25   C     C_3   0.382355 0.253846 0.283643 -0.680752
C26   C     C_3   0.652349 0.749390 0.636807 -0.678322
C27   C     C_3   0.248070 0.558371 0.764844 -0.867756
C28   C     C_3   0.779609 0.451234 0.775733 -0.904034
C29   C     C_3   0.751930 0.558378 0.235158 -0.867752
C30   C     C_3   0.220391 0.451238 0.224264 -0.904046
C31   C     C_3   0.561615 0.027779 0.828638 0.099682
C32   C     C_3   0.628028 0.990902 0.949388 -0.794843
C33   C     C_3   0.313913 0.950284 0.616487 0.080344
C34   C     C_R   0.425124 0.792867 0.452508 0.167999
C35   C     C_3   0.223566 0.998382 0.610487 -0.749062
C36   C     C_3   0.438385 0.027777 0.171362 0.099682
C37   C     C_3   0.371972 0.990901 0.050611 -0.794847
C38   C     C_3   0.686088 0.950282 0.383514 0.080342
C39   C     C_3   0.776433 0.998384 0.389513 -0.749062
C40   C     C_R   0.446350 0.207577 0.397521 0.187508
C41   C     C_R   0.574876 0.792867 0.547492 0.167997
C42   C     C_R   0.551692 0.106534 0.607325 0.327478
C43   C     C_R   0.420795 0.892147 0.478385 0.334024
C44   C     C_R   0.448308 0.106534 0.392675 0.327478
Cu1   Cu    Cu3+1 0.500000 0.596430 0.500000 0.918284
Cu2   Cu    Cu3+1 0.500000 0.403570 0.500000 0.930944
H1    H     H_    0.069856 0.552825 0.722337 0.134699
H2    H     H_    0.319108 0.801210 0.280422 0.207843
H3    H     H_    0.374875 0.330133 0.293741 0.257418
H4    H     H_    0.403648 0.239496 0.171220 0.195321
H5    H     H_    0.314805 0.223873 0.291955 0.221228
H6    H     H_    0.631408 0.688334 0.702764 0.239886
H7    H     H_    0.705615 0.730107 0.564081 0.226829
H8    H     H_    0.680894 0.801212 0.719574 0.207844
H9    H     H_    0.293200 0.499510 0.802664 0.228303
H10   H     H_    0.288033 0.622407 0.742729 0.245135
H11   H     H_    0.205550 0.575682 0.856098 0.223193
H12   H     H_    0.950347 0.447851 0.724356 0.142883
H13   H     H_    0.789740 0.374665 0.801562 0.240857
H14   H     H_    0.813828 0.494028 0.865671 0.233916
H15   H     H_    0.707917 0.468070 0.775474 0.214562
H16   H     H_    0.706798 0.499519 0.197336 0.228301
H17   H     H_    0.711970 0.622415 0.257277 0.245134
H18   H     H_    0.794450 0.575689 0.143904 0.223192
H19   H     H_    0.210252 0.374672 0.198427 0.240858
H20   H     H_    0.186179 0.494038 0.134330 0.233920
H21   H     H_    0.292086 0.468061 0.224528 0.214563
H22   H     H_    0.517154 0.968046 0.792453 0.126292
H23   H     H_    0.930144 0.552831 0.277663 0.134699
H24   H     H_    0.521737 0.085711 0.875061 0.114852
H25   H     H_    0.667866 0.050795 0.998892 0.236981
H26   H     H_    0.592845 0.955131 0.036887 0.171031
H27   H     H_    0.673336 0.938495 0.902618 0.264463
H28   H     H_    0.362138 0.997125 0.680504 0.119416
H29   H     H_    0.308976 0.880942 0.674930 0.129300
H30   H     H_    0.173232 0.952984 0.549123 0.245818
H31   H     H_    0.203325 0.009828 0.724390 0.192293
H32   H     H_    0.226824 0.068296 0.554090 0.255247
H33   H     H_    0.482844 0.968044 0.207547 0.126293
H34   H     H_    0.049652 0.447856 0.275639 0.142883
H35   H     H_    0.478264 0.085709 0.124940 0.114853
H36   H     H_    0.332134 0.050796 0.001108 0.236981
H37   H     H_    0.407154 0.955130 0.963112 0.171032
H38   H     H_    0.326662 0.938495 0.097381 0.264464
H39   H     H_    0.637862 0.997118 0.319492 0.119415
H40   H     H_    0.691028 0.880939 0.325076 0.129301
H41   H     H_    0.826768 0.952990 0.450882 0.245819
H42   H     H_    0.796675 0.009827 0.275610 0.192293
H43   H     H_    0.773171 0.068299 0.445905 0.255246
H44   H     H_    0.625125 0.330134 0.706260 0.257419
H45   H     H_    0.596356 0.239495 0.828779 0.195322
H46   H     H_    0.685197 0.223875 0.708039 0.221225
H47   H     H_    0.368592 0.688333 0.297237 0.239887
H48   H     H_    0.294384 0.730108 0.435915 0.226829
N1    N     N_R   0.500000 0.258690 0.500000 -0.208331
N2    N     N_R   0.500000 0.741310 0.500000 -0.210458
O1    O     O_R   0.371460 0.581430 0.500010 -0.584027
O2    O     O_3   0.338824 0.936460 0.471121 -0.516429
O3    O     O_3   0.391152 0.060660 0.289537 -0.517028
O4    O     O_3   0.661176 0.936461 0.528880 -0.516429
O5    O     O_R   0.628540 0.418570 0.499990 -0.577897
O6    O     O_R   0.628540 0.581430 0.499990 -0.584027
O7    O     O_R   0.371460 0.418570 0.500010 -0.577899
O8    O     O_R   0.500000 0.581420 0.288390 -0.576045
O9    O     O_R   0.500000 0.418580 0.711610 -0.580662
O10   O     O_R   0.500000 0.581420 0.711610 -0.576045
O11   O     O_R   0.500000 0.418580 0.288390 -0.580662
O12   O     O_3   0.608848 0.060661 0.710463 -0.517027

loop_
_geom_bond_atom_site_label_1
_geom_bond_atom_site_label_2
_ccdc_geom_bond_type
C3    O8    A    
C5    C42   A    
C29   H17   S    
C31   O12   S    
C14   C18   A    
C43   O2    S    
C39   H41   S    
C4    C8    S    
C7    C8    T    
C32   H26   S    
Cu1   Cu2   S    
C15   C19   A    
C1    C18   S    
C23   C42   A    
C38   H40   S    
C36   C37   S    
C10   H12   S    
C34   N2    A    
C24   H48   S    
C10   C15   A    
C25   C40   S    
C38   C39   S    
C44   O3    S    
C27   H9    S    
C41   N2    A    
C2    C41   A    
Cu2   O9    S    
C33   O2    S    
C35   H31   S    
C25   H4    S    
C33   H29   S    
C31   H24   S    
Cu2   N1    S    
C22   H45   S    
C37   H38   S    
C14   C27   S    
C1    O7    A    
C30   H21   S    
C28   H15   S    
C29   H18   S    
C2    O4    S    
C17   C30   S    
C2    C6    A    
C39   H42   S    
C26   H8    S    
C32   H25   S    
C28   H14   S    
C10   C21   A    
C31   H22   S    
Cu2   O5    S    
C35   H30   S    
C38   H39   S    
C24   H2    S    
C38   O4    S    
C27   H11   S    
C1    O1    A    
C32   H27   S    
C27   H10   S    
C3    O11   A    
C16   C29   S    
C4    O10   A    
C11   C21   A    
C24   C34   S    
C9    C14   A    
C25   H5    S    
C12   O6    A    
Cu1   O8    S    
C26   H6    S    
C11   C16   A    
C9    C20   A    
C31   C32   S    
C36   H35   S    
Cu2   O11   S    
C17   C18   A    
C22   H44   S    
C30   H20   S    
C5    C44   A    
C9    H1    S    
C6    C43   A    
C37   H36   S    
C40   N1    A    
C26   H7    S    
Cu1   O10   S    
C4    O9    A    
C28   H13   S    
C29   H16   S    
C13   C20   A    
C34   C43   A    
C36   H33   S    
C11   H23   S    
Cu2   O7    S    
C35   H32   S    
C3    C7    S    
C13   C17   A    
C12   O5    A    
Cu1   O1    S    
C24   H47   S    
C15   C28   S    
C5    C6    S    
C16   C19   A    
C12   C19   S    
C33   C35   S    
C23   N1    A    
C36   O3    S    
C25   H3    S    
C13   H34   S    
C30   H19   S    
Cu1   O6    S    
C33   H28   S    
C40   C44   A    
C20   C21   S    
C22   H46   S    
C22   C23   S    
C37   H37   S    
Cu1   N2    S    
C42   O12   S    
C39   H43   S    
C26   C41   S    
