data_mof_unit_6246.cif
_audit_creation_date              2012-12-11T14:49:56-0500
_audit_creation_method            fapswitch 2.2
_symmetry_space_group_name_H-M    P1
_symmetry_Int_Tables_number       1
_space_group_crystal_system       triclinic
_cell_length_a                    16.781428
_cell_length_b                    16.740404
_cell_length_c                    19.509246
_cell_angle_alpha                 117.710227
_cell_angle_beta                  62.364502
_cell_angle_gamma                 100.785644
_cell_volume                      4295.71800953

loop_
_atom_site_label
_atom_site_type_symbol
_atom_type_description
_atom_site_fract_x
_atom_site_fract_y
_atom_site_fract_z
_atom_type_partial_charge
C1    C     C_R   0.044195 0.758513 0.007540 -0.128833
C2    C     C_R   0.252367 0.526562 0.828959 -0.054353
C3    C     C_R   0.185317 0.487508 0.085219 -0.128767
C4    C     C_R   0.766614 0.414211 0.162026 -0.130421
C5    C     C_R   0.982924 0.341697 0.761779 0.067049
C6    C     C_R   0.261462 0.535556 0.060374 0.066161
C7    C     C_R   0.931943 0.265727 0.763243 0.016804
C8    C     C_R   0.262601 0.476188 0.745456 0.110864
C9    C     C_R   0.039010 0.222597 0.993133 0.067362
C10   C     C_R   0.862384 0.120021 0.708796 -0.193641
C11   C     C_R   0.891513 0.202636 0.705239 0.109122
C12   C     C_R   0.772879 0.428944 0.235212 0.086274
C13   C     C_R   0.887036 0.219657 0.643202 -0.225853
C14   C     C_R   0.872463 0.149313 0.574604 0.076190
C15   C     C_R   0.856248 0.062631 0.572810 0.023242
C16   C     C_R   0.805155 0.565426 0.966903 -0.090587
C17   C     C_R   0.843174 0.049780 0.643916 0.023762
C18   C     C_R   0.879382 0.161937 0.505227 -0.039899
C19   C     C_R   0.885011 0.086040 0.429148 -0.041342
C20   C     C_R   0.884669 0.998406 0.422573 0.091086
C21   C     C_R   0.861223 0.987574 0.497351 -0.023587
C22   C     C_R   0.850370 0.900770 0.494630 -0.014159
C23   C     C_R   0.724835 0.560023 0.033270 0.103681
C24   C     C_R   0.821624 0.890053 0.570172 0.413568
C25   C     C_R   0.819084 0.964727 0.644903 -0.140020
C26   C     C_R   0.912647 0.921580 0.342762 -0.206465
C27   C     C_R   0.914932 0.836400 0.338839 0.079042
C28   C     C_R   0.953694 0.670446 0.248383 -0.121907
C29   C     C_R   0.876261 0.826302 0.415263 -0.154598
C30   C     C_R   0.348093 0.372259 0.591819 -0.281165
C31   C     C_R   0.349141 0.441897 0.668178 -0.019368
C32   C     C_R   0.432559 0.479585 0.668072 0.380268
C33   C     C_R   0.512706 0.442510 0.593833 0.002774
C34   C     C_R   0.961346 0.757527 0.256980 0.065455
C35   C     C_R   0.508418 0.383102 0.515588 -0.017252
C36   C     C_R   0.426028 0.347276 0.514632 0.132598
C37   C     C_R   0.597007 0.470832 0.594105 -0.081274
C38   C     C_R   0.673626 0.452035 0.517315 -0.197846
C39   C     C_R   0.666062 0.407863 0.439852 0.149121
C40   C     C_R   0.739386 0.489275 0.045303 -0.127348
C41   C     C_R   0.584595 0.368869 0.437964 0.050451
C42   C     C_R   0.576514 0.325460 0.359779 0.069450
C43   C     C_R   0.496008 0.282050 0.358611 0.027855
C44   C     C_R   0.421762 0.292006 0.436119 -0.233917
C45   C     C_R   0.252112 0.566991 0.010080 -0.147511
C46   C     C_R   0.734574 0.413233 0.366942 -0.239820
C47   C     C_R   0.719313 0.388325 0.294981 0.090679
C48   C     C_R   0.644905 0.336256 0.288080 -0.227171
C49   C     C_R   0.638721 0.612492 0.077048 -0.060872
C50   C     C_R   0.330768 0.561175 0.092339 0.116683
C51   C     C_R   0.404483 0.540590 0.164793 -0.171439
C52   C     C_R   0.021025 0.753063 0.175631 -0.115070
C53   C     C_R   0.331966 0.526076 0.144742 -0.170981
C54   C     C_R   0.399458 0.617426 0.066530 -0.199257
C55   C     C_R   0.473948 0.628846 0.083004 0.087959
C56   C     C_R   0.917498 0.263574 0.838137 -0.166171
C57   C     C_R   0.478603 0.587543 0.129807 0.118102
C58   C     C_R   0.560045 0.587862 0.133755 -0.089152
C59   C     C_R   0.628210 0.671673 0.048285 0.465058
C60   C     C_R   0.545671 0.678459 0.050484 -0.280907
C61   C     C_R   0.830142 0.175783 0.113123 0.054243
C62   C     C_R   0.968740 0.862796 0.984393 0.050109
C63   C     C_R   0.881425 0.934104 0.954736 -0.150603
C64   C     C_R   0.845733 0.482968 0.237091 -0.128171
C65   C     C_R   0.925529 0.858867 0.935885 -0.110505
C66   C     C_R   0.975045 0.949262 0.047982 -0.005181
C67   C     C_R   0.175583 0.461551 0.749945 -0.140212
C68   C     C_R   0.931147 0.026756 0.066317 0.102172
C69   C     C_R   0.880342 0.017830 0.021905 0.085043
C70   C     C_R   0.829345 0.093135 0.046446 -0.020894
C71   C     C_R   0.882763 0.186067 0.154350 -0.160308
C72   C     C_R   0.934383 0.113128 0.130109 -0.193157
C73   C     C_R   0.965731 0.689693 0.931846 -0.079073
C74   C     C_R   0.994664 0.774597 0.973682 0.076189
C75   C     C_1   0.995877 0.387371 0.710724 -0.021750
C76   C     C_1   0.884315 0.251894 0.510201 0.073537
C77   C     C_1   0.889224 0.098553 0.359025 0.084251
C78   C     C_R   0.057396 0.307550 0.045903 -0.128108
C79   C     C_1   0.795445 0.952277 0.720762 0.209464
C80   C     C_1   0.486164 0.230944 0.279687 0.063760
C81   C     C_1   0.561931 0.566709 0.197097 0.072426
C82   C     C_1   0.774436 0.088429 0.005734 0.035465
C83   C     C_1   0.021930 0.959789 0.097859 0.019063
C84   C     C_R   0.979655 0.238786 0.968915 -0.115886
Cl1   Cl    Cl    0.793508 0.782745 0.571107 -0.650618
Cl2   Cl    Cl    0.439136 0.586311 0.748925 -0.683727
Cl3   Cl    Cl    0.712311 0.744075 0.015947 -0.694850
H1    H     H_    0.090142 0.803135 0.030980 0.115843
H2    H     H_    0.726155 0.364661 0.133595 0.091813
H3    H     H_    0.937754 0.928337 0.283702 0.134550
H4    H     H_    0.874600 0.760903 0.413365 0.170367
H5    H     H_    0.285476 0.342265 0.590635 0.141513
H6    H     H_    0.603713 0.511195 0.653358 0.189741
H7    H     H_    0.736761 0.479846 0.519120 0.154406
H8    H     H_    0.794269 0.448014 0.371497 0.126277
H9    H     H_    0.816644 0.605109 0.933568 0.159396
H10   H     H_    0.635869 0.311969 0.230323 0.127355
H11   H     H_    0.358742 0.262181 0.435424 0.139592
H12   H     H_    0.868864 0.224014 0.868389 0.107157
H13   H     H_    0.405132 0.508837 0.201856 0.134245
H14   H     H_    0.539200 0.718341 0.022530 0.186731
H15   H     H_    0.279166 0.484090 0.167462 0.118369
H16   H     H_    0.399072 0.647776 0.028444 0.130046
H17   H     H_    0.912064 0.645831 0.295634 0.109844
H18   H     H_    0.884260 0.251224 0.204662 0.133910
H19   H     H_    0.846302 0.925479 0.917257 0.152895
H20   H     H_    0.976334 0.125063 0.162186 0.148231
H21   H     H_    0.922222 0.796292 0.884204 0.140283
H22   H     H_    0.692596 0.460555 0.087517 0.115816
H23   H     H_    0.158046 0.423315 0.697080 0.117431
H24   H     H_    0.043125 0.809541 0.159963 0.105148
H25   H     H_    0.879133 0.496627 0.277005 0.092472
H26   H     H_    0.936872 0.672382 0.887798 0.102484
H27   H     H_    0.290547 0.618231 0.990611 0.116782
H28   H     H_    0.100377 0.320767 0.077230 0.103387
H29   H     H_    0.950311 0.188132 0.928434 0.104069
H30   H     H_    0.302871 0.542833 0.852008 0.159905
H31   H     H_    0.162905 0.465122 0.134860 0.087828
H32   H     H_    0.862526 0.106911 0.757899 0.115744
H33   H     H_    0.899576 0.285653 0.645003 0.145733
N1    N     N_R   0.036080 0.671900 0.995420 -0.043234
N2    N     N_R   0.867430 0.509300 0.948100 -0.055025
N3    N     N_R   0.003360 0.617250 0.167070 -0.043006
N4    N     N_R   0.825450 0.461270 0.995400 -0.047465
N5    N     N_R   0.045340 0.665280 0.119770 -0.041452
N6    N     N_R   0.883740 0.497640 0.167070 -0.041266
N7    N     N_R   0.987050 0.628910 0.948110 -0.046579
N8    N     N_R   0.174550 0.538730 0.004600 -0.046725
N9    N     N_1   0.006506 0.424687 0.670040 -0.080054
N10   N     N_1   0.888188 0.323568 0.514135 -0.079756
N11   N     N_1   0.891430 0.108937 0.303636 -0.086053
N12   N     N_R   0.954660 0.334720 0.880230 -0.047874
N13   N     N_1   0.776641 0.942083 0.781163 -0.063223
N14   N     N_1   0.478329 0.190001 0.216454 -0.073207
N15   N     N_1   0.563034 0.550219 0.248085 -0.076990
N16   N     N_1   0.730247 0.085075 0.973334 -0.075898
N17   N     N_1   0.059207 0.969955 0.138421 -0.100163
N18   N     N_R   0.116260 0.502360 0.832930 -0.047914
N19   N     N_R   0.012950 0.371090 0.051890 -0.044533
N20   N     N_R   0.963920 0.328100 0.004580 -0.043529
N21   N     N_R   0.165290 0.545350 0.880240 -0.055762
N22   N     N_R   0.132570 0.490700 0.051900 -0.040077
N23   N     N_R   0.996640 0.382750 0.832930 -0.060050
N24   N     N_R   0.834710 0.454650 0.119760 -0.039657
Ni1   Ni    Ni4+2 0.104370 0.604370 0.000010 0.232039
Ni2   Ni    Ni4+2 0.895630 0.395630 0.999990 0.211798
Ni3   Ni    Ni4+2 0.991920 0.505780 0.891500 0.231532
Ni4   Ni    Ni4+2 0.008080 0.494220 0.108500 0.212372

loop_
_geom_bond_atom_site_label_1
_geom_bond_atom_site_label_2
_ccdc_geom_bond_type
C61   C70   A    
C66   C68   A    
C63   C65   A    
C6    C45   A    
C27   C29   A    
C41   C42   A    
C14   C18   A    
C35   C36   A    
C83   N17   T    
C3    C6    A    
C78   N19   A    
C28   N3    A    
C73   H26   S    
C39   C41   A    
N23   Ni3   S    
C48   H10   S    
C26   C27   A    
C50   C54   A    
C1    C74   A    
C22   C29   A    
N1    N7    A    
C63   C69   A    
C30   C31   A    
C12   C64   A    
N8    Ni1   S    
C23   C49   S    
C10   C17   A    
C23   C40   A    
C80   N14   T    
C18   C19   A    
C77   N11   T    
C19   C77   S    
C67   N18   A    
C16   N2    A    
C10   H32   S    
C66   C83   S    
C46   C47   A    
C76   N10   T    
C45   H27   S    
C46   H8    S    
C78   H28   S    
C68   C69   A    
C51   C57   A    
C4    C12   A    
C5    N23   A    
C24   Cl1   S    
N18   Ni3   S    
C65   H21   S    
N21   Ni1   S    
C55   C60   A    
C61   C71   A    
N12   N23   A    
C28   C34   A    
C59   C60   A    
C84   H29   S    
C13   C14   A    
C3    N22   A    
C44   H11   S    
C7    C56   A    
C12   C47   S    
C79   N13   T    
C2    H30   S    
C81   N15   T    
C59   Cl3   S    
C27   C34   S    
C40   N4    A    
N19   N20   A    
N19   Ni4   S    
C16   H9    S    
C50   C53   A    
C62   C66   A    
N22   Ni4   S    
C54   H16   S    
C24   C25   A    
C30   H5    S    
C58   C81   S    
N20   Ni2   S    
C5    C7    A    
N6    Ni4   S    
C52   H24   S    
C43   C80   S    
C73   N7    A    
N4    Ni2   S    
C33   C37   A    
C49   C58   A    
C51   C53   A    
C5    C75   S    
C7    C11   S    
C43   C44   A    
C37   C38   A    
C3    H31   S    
C28   H17   S    
C67   H23   S    
C47   C48   A    
C72   H20   S    
C53   H15   S    
C68   C72   A    
C32   Cl2   S    
C38   H7    S    
N3    Ni4   S    
C37   H6    S    
C42   C48   A    
N2    Ni3   S    
C6    C50   S    
C63   H19   S    
C56   N12   A    
C35   C41   A    
C39   C46   A    
N24   Ni2   S    
C16   C23   A    
C64   N6    A    
C71   H18   S    
N1    Ni1   S    
C36   C44   A    
C42   C43   A    
N2    N4    A    
C60   H14   S    
C73   C74   A    
C29   H4    S    
C13   H33   S    
C4    H2    S    
C51   H13   S    
C15   C17   A    
C54   C55   A    
C18   C76   S    
C62   C65   A    
C25   C79   S    
C8    C31   S    
C31   C32   A    
C2    C8    A    
N18   N21   A    
C4    N24   A    
C52   N5    A    
C40   H22   S    
C26   H3    S    
C34   C52   A    
C49   C59   A    
C30   C36   A    
C17   C25   A    
C32   C33   A    
C19   C20   A    
C55   C57   A    
N12   Ni2   S    
C71   C72   A    
N5    Ni1   S    
C11   C13   A    
C57   C58   A    
C38   C39   A    
C20   C26   A    
C1    H1    S    
N6    N24   A    
C33   C35   A    
C22   C24   A    
C9    C78   A    
C82   N16   T    
C69   C70   A    
C70   C82   S    
C1    N1    A    
C64   H25   S    
N3    N5    A    
C10   C11   A    
C9    C84   A    
C15   C21   A    
C20   C21   A    
C84   N20   A    
C8    C67   A    
C2    N21   A    
C14   C15   A    
C62   C74   S    
C45   N8    A    
C56   H12   S    
C21   C22   A    
N8    N22   A    
C75   N9    T    
N7    Ni3   S    
