data_mof_unit_17526.cif
_audit_creation_date              2012-12-10T18:47:41-0500
_audit_creation_method            fapswitch 2.2
_symmetry_space_group_name_H-M    P1
_symmetry_Int_Tables_number       1
_space_group_crystal_system       triclinic
_cell_length_a                    9.927805
_cell_length_b                    10.604233
_cell_length_c                    15.516891
_cell_angle_alpha                 91.12642
_cell_angle_beta                  67.373572
_cell_angle_gamma                 88.863712
_cell_volume                      1506.88122134

loop_
_atom_site_label
_atom_site_type_symbol
_atom_type_description
_atom_site_fract_x
_atom_site_fract_y
_atom_site_fract_z
_atom_type_partial_charge
C1    C     C_R   0.499793 0.739476 0.498722 0.905181
C2    C     C_R   0.500135 0.260509 0.501289 0.892022
C3    C     C_R   0.313406 0.501071 0.112956 -0.321823
C4    C     C_R   0.626879 0.376380 0.909881 -0.321682
C5    C     C_R   0.206944 0.516607 0.074362 0.482806
C6    C     C_R   0.727232 0.343423 0.949544 0.477865
C7    C     C_R   0.599311 0.932686 0.421388 0.159939
C8    C     C_R   0.399952 0.067249 0.578384 0.150706
C9    C     C_R   0.599156 0.062321 0.424243 -0.203372
C10   C     C_R   0.399832 0.937607 0.575420 -0.200502
C11   C     C_R   0.500830 0.128137 0.502384 -0.091568
C12   C     C_R   0.498811 0.871809 0.497523 -0.096026
C13   C     C_R   0.964891 0.414704 0.445148 0.005465
C14   C     C_R   0.034808 0.583652 0.556298 0.012746
C15   C     C_R   0.109224 0.415040 0.445362 0.465296
C16   C     C_R   0.891456 0.585611 0.554227 0.490538
C17   C     C_R   0.408477 0.503207 0.676466 0.942319
C18   C     C_R   0.591356 0.499093 0.324015 0.953237
C19   C     C_R   0.351801 0.507424 0.779305 -0.146945
C20   C     C_R   0.646101 0.479998 0.222790 -0.112147
C21   C     C_R   0.150639 0.528220 0.931705 0.553702
C22   C     C_R   0.800252 0.357938 0.084473 0.582047
C23   C     C_R   0.201867 0.517146 0.833484 -0.359735
C24   C     C_R   0.768114 0.401888 0.176201 -0.344143
C25   C     C_R   0.450555 0.505942 0.824007 0.400745
C26   C     C_R   0.558043 0.520941 0.176807 0.431119
C27   C     C_R   0.399565 0.484906 0.920111 -0.163896
C28   C     C_R   0.572023 0.460657 0.091848 -0.165155
C29   C     C_R   0.250293 0.509932 0.976194 0.009500
C30   C     C_R   0.701314 0.386751 0.041318 -0.016799
C31   C     C_R   0.497151 0.445868 0.961165 0.054369
C32   C     C_R   0.460961 0.471950 0.056082 0.057619
H1    H     H_    0.837051 0.372808 0.211625 0.202768
H2    H     H_    0.125114 0.522539 0.799485 0.207955
H3    H     H_    0.278429 0.505704 0.188165 0.210642
H4    H     H_    0.647948 0.342747 0.839422 0.198009
H5    H     H_    0.672986 0.111714 0.365007 0.181975
H6    H     H_    0.325249 0.888157 0.634357 0.186772
N1    N     N_R   0.142780 0.500030 0.500020 -0.122354
N2    N     N_R   0.857220 0.499970 0.499980 -0.124885
O1    O     O_R   0.385370 0.683250 0.500010 -0.591122
O2    O     O_R   0.614630 0.316750 0.499990 -0.598919
O3    O     O_R   0.614700 0.683220 0.500000 -0.560766
O4    O     O_R   0.385300 0.316780 0.500000 -0.559932
O5    O     O_R   0.319830 0.500020 0.632250 -0.609939
O6    O     O_R   0.680170 0.499980 0.367750 -0.609583
O7    O     O_R   0.549160 0.499990 0.632240 -0.505403
O8    O     O_R   0.450840 0.500010 0.367760 -0.527390
Zn1   Zn    Zn3+2 0.346870 0.500020 0.500000 1.060085
Zn2   Zn    Zn3+2 0.653130 0.499980 0.500000 1.060340
O9    O     O_3   0.062573 0.542054 0.131321 -0.691770
H7    H     H_    0.051692 0.543734 0.197604 0.341446
O10   O     O_3   0.852052 0.272463 0.898584 -0.666825
H8    H     H_    0.853546 0.251894 0.835594 0.342768
O11   O     O_3   0.463963 0.623282 0.215280 -0.745508
H9    H     H_    0.454320 0.671198 0.163626 0.349813
O12   O     O_3   0.594680 0.535333 0.774405 -0.711274
H10   H     H_    0.632101 0.580390 0.816889 0.350631
O13   O     O_3   0.005224 0.556594 0.984140 -0.680265
H11   H     H_    0.952459 0.567885 0.941876 0.332515
O14   O     O_3   0.924085 0.283378 0.038141 -0.657306
H12   H     H_    0.981526 0.275045 0.077878 0.346008
I1    I     I_    0.748387 0.835631 0.299889 -0.232519
I2    I     I_    0.250307 0.164225 0.699730 -0.272637
I3    I     I_    0.923140 0.284206 0.353881 -0.366484
I4    I     I_    0.074431 0.703305 0.655220 -0.328368
O15   O     O_3   0.219142 0.332171 0.390897 -0.709909
H13   H     H_    0.176397 0.253231 0.379978 0.349216
O16   O     O_3   0.783224 0.671040 0.606856 -0.674828
H14   H     H_    0.827920 0.746934 0.620942 0.343614

loop_
_geom_bond_atom_site_label_1
_geom_bond_atom_site_label_2
_ccdc_geom_bond_type
O4    Zn1   S    
C19   C23   A    
O11   H9    S    
C4    H4    S    
O3    Zn2   S    
C14   C16   A    
O5    Zn1   S    
C27   C29   A    
O6    Zn2   S    
C26   C28   A    
C24   H1    S    
O2    Zn2   S    
C3    H3    S    
C10   H6    S    
C23   H2    S    
C15   O15   S    
C26   O11   S    
C9    H5    S    
C14   I4    S    
O13   H11   S    
C13   I3    S    
O10   H8    S    
C22   O14   S    
C9    C11   A    
C15   N1    A    
O12   H10   S    
C3    C32   A    
C1    C12   S    
C20   C26   A    
C2    O2    A    
C8    C11   A    
N2    Zn2   S    
C2    C11   S    
C10   C12   A    
O1    Zn1   S    
O8    Zn1   S    
C6    C30   A    
C16   N2    A    
C21   O13   S    
O7    Zn2   S    
C5    C29   A    
O16   H14   S    
C13   C15   A    
C21   C23   A    
O14   H12   S    
C19   C25   A    
C31   C32   A    
C22   C24   A    
C7    C12   A    
C4    C31   A    
C25   C27   A    
C6    O10   S    
C27   C31   A    
O15   H13   S    
C8    I2    S    
N1    Zn1   S    
C18   O6    A    
C25   O12   S    
C28   C32   A    
O9    H7    S    
C2    O4    A    
C18   C20   S    
C4    C6    A    
C7    I1    S    
C1    O1    A    
C7    C9    A    
C20   C24   A    
C5    O9    S    
C13   N2    A    
C22   C30   A    
C17   C19   S    
C14   N1    A    
C21   C29   A    
C1    O3    A    
C8    C10   A    
C16   O16   S    
C17   O7    A    
C17   O5    A    
C28   C30   A    
C3    C5    A    
C18   O8    A    
