data_mof_unit_60647.cif
_audit_creation_date              2012-12-10T17:19:27-0500
_audit_creation_method            fapswitch 2.2
_symmetry_space_group_name_H-M    P1
_symmetry_Int_Tables_number       1
_space_group_crystal_system       triclinic
_cell_length_a                    18.98382
_cell_length_b                    18.700255
_cell_length_c                    18.95869
_cell_angle_alpha                 109.438752
_cell_angle_beta                  109.846279
_cell_angle_gamma                 109.533441
_cell_volume                      5154.94750671

loop_
_atom_site_label
_atom_site_type_symbol
_atom_type_description
_atom_site_fract_x
_atom_site_fract_y
_atom_site_fract_z
_atom_type_partial_charge
C1    C     C_R   0.377882 0.380304 0.496025 0.765639
C2    C     C_3   0.810181 0.503016 0.812861 -0.122899
C3    C     C_3   0.849340 0.577647 0.792199 -0.275067
C4    C     C_3   0.748698 0.524628 0.844821 -0.044845
C5    C     C_R   0.245916 0.327389 0.508691 0.206779
C6    C     C_R   0.181708 0.262582 0.508293 -0.065784
C7    C     C_R   0.184036 0.185724 0.499374 -0.160321
C8    C     C_R   0.244685 0.168931 0.481653 -0.085136
C9    C     C_R   0.301234 0.227959 0.470018 -0.119582
C10   C     C_R   0.307313 0.310874 0.490953 -0.163523
C11   C     C_R   0.316711 0.576376 0.322136 -0.264810
C12   C     C_R   0.615743 0.496597 0.619347 0.758614
C13   C     C_R   0.254593 0.577973 0.258164 -0.070982
C14   C     C_R   0.183599 0.498539 0.183669 -0.128131
C15   C     C_R   0.175447 0.417314 0.174313 0.189392
C16   C     C_R   0.239911 0.416533 0.238815 0.199702
C17   C     C_R   0.310719 0.496830 0.312639 -0.088690
C18   C     C_R   0.757557 0.763219 0.580138 0.235659
C19   C     C_R   0.822558 0.824219 0.578345 -0.155458
C20   C     C_R   0.814722 0.814614 0.499578 -0.058703
C21   C     C_R   0.742040 0.743506 0.421240 -0.194938
C22   C     C_R   0.677821 0.679619 0.421140 -0.042595
C23   C     C_R   0.618877 0.619591 0.500483 0.758063
C24   C     C_R   0.685557 0.688137 0.500843 -0.130288
C25   C     C_R   0.000241 0.380144 0.881817 0.813279
C26   C     C_R   0.878641 0.503411 0.881411 0.862278
C27   C     C_R   0.997248 0.619859 0.115563 0.809871
C28   C     C_R   0.116664 0.499845 0.116858 0.816309
C29   C     C_R   0.000049 0.881144 0.381974 0.786926
C30   C     C_R   0.118261 0.119325 0.500721 0.772949
C31   C     C_R   0.001786 0.120510 0.617858 0.807069
C32   C     C_R   0.881441 0.880804 0.499382 0.817354
C33   C     C_R   0.081894 0.327238 0.818593 0.212827
C34   C     C_R   0.379743 0.499054 0.380333 0.824821
C35   C     C_R   0.078450 0.269596 0.745601 0.233987
C36   C     C_R   0.002423 0.186801 0.685545 -0.213637
C37   C     C_R   0.929443 0.163602 0.695265 -0.093786
C38   C     C_R   0.927729 0.226719 0.759268 0.171842
C39   C     C_R   0.003424 0.310763 0.819196 -0.219233
C40   C     C_R   0.031790 0.776015 0.198035 -0.063005
C41   C     C_R   0.028366 0.838393 0.260933 0.210215
C42   C     C_R   0.000763 0.816056 0.314744 -0.110892
C43   C     C_R   0.970945 0.730654 0.301818 -0.054261
C44   C     C_R   0.968841 0.667554 0.235352 -0.212984
C45   C     C_3   0.695013 0.412427 0.648984 -0.097894
C46   C     C_R   0.999426 0.689141 0.183442 -0.134391
C47   C     C_3   0.758239 0.408887 0.727140 0.121657
C48   C     C_3   0.775245 0.584711 0.730021 0.108930
C49   C     C_3   0.661725 0.497142 0.764857 0.131132
C50   C     C_3   0.684502 0.497026 0.688998 -0.161555
Cu1   Cu    Cu3+1 0.500370 0.438230 0.438520 1.021378
Cu2   Cu    Cu3+1 0.499630 0.561770 0.561480 0.962512
Cu3   Cu    Cu3+1 0.935490 0.438190 0.997300 0.988450
Cu4   Cu    Cu3+1 0.059110 0.561720 0.997220 0.982499
Cu5   Cu    Cu3+1 0.937870 0.999900 0.437760 0.985870
Cu6   Cu    Cu3+1 0.062130 0.999920 0.562070 0.987185
H1    H     H_    0.784928 0.597615 0.885513 0.150104
H2    H     H_    0.371080 0.637752 0.379298 0.169755
H3    H     H_    0.878740 0.880464 0.638861 0.154309
H4    H     H_    0.736061 0.737408 0.360248 0.151364
H5    H     H_    0.944718 0.601515 0.225267 0.171376
H6    H     H_    0.883039 0.559666 0.759155 0.191616
O1    O     O_R   0.410130 0.357660 0.448070 -0.574492
O2    O     O_R   0.049990 0.461930 0.907530 -0.611055
O3    O     O_R   0.854450 0.447820 0.906640 -0.576956
O4    O     O_R   0.958850 0.552130 0.906580 -0.599733
O5    O     O_R   0.944620 0.537990 0.086990 -0.586434
O6    O     O_R   0.049020 0.642300 0.086930 -0.574793
O7    O     O_R   0.035760 0.447780 0.087940 -0.556997
O8    O     O_R   0.140150 0.552090 0.087880 -0.593531
O9    O     O_R   0.948110 0.909780 0.357760 -0.593946
O10   O     O_R   0.053050 0.909790 0.462730 -0.564575
O11   O     O_R   0.037720 0.090080 0.447430 -0.580734
O12   O     O_R   0.409500 0.461990 0.551910 -0.577502
O13   O     O_R   0.142660 0.090100 0.552410 -0.581458
O14   O     O_R   0.946950 0.090030 0.537090 -0.560538
O15   O     O_R   0.051890 0.090040 0.642060 -0.597929
O16   O     O_R   0.857350 0.909730 0.447410 -0.577600
O17   O     O_R   0.962280 0.909740 0.552390 -0.584500
O18   O     O_R   0.590970 0.447820 0.538740 -0.586568
O19   O     O_R   0.590340 0.552140 0.642570 -0.575252
O20   O     O_R   0.590500 0.538010 0.448090 -0.569527
O21   O     O_R   0.589870 0.642340 0.551930 -0.584620
O22   O     O_R   0.409660 0.447860 0.357430 -0.543095
O23   O     O_R   0.409030 0.552180 0.461260 -0.603814
O24   O     O_R   0.945590 0.357610 0.907590 -0.552355
C51   C     C_1   0.725440 0.414154 0.586922 0.361398
N1    N     N_1   0.746669 0.414196 0.536387 -0.262544
C52   C     C_1   0.772652 0.664500 0.777990 0.233639
N2    N     N_1   0.771904 0.726985 0.815866 -0.277720
C53   C     C_1   0.918591 0.664580 0.870719 0.257996
N3    N     N_1   0.972231 0.732431 0.931254 -0.249749
N4    N     N_2   0.243562 0.405902 0.520348 -0.424332
H7    H     H_    0.256951 0.430199 0.482176 0.252219
C54   C     C_3   0.278512 0.472069 0.608888 -0.603988
H8    H     H_    0.329521 0.535705 0.624966 0.228500
H9    H     H_    0.307972 0.453611 0.656353 0.210390
H10   H     H_    0.225787 0.481011 0.615654 0.226862
C55   C     C_1   0.111446 0.274145 0.513464 0.296072
N5    N     N_1   0.054708 0.282742 0.516372 -0.283373
C56   C     C_1   0.246604 0.089114 0.471416 0.260229
N6    N     N_1   0.248376 0.025724 0.463423 -0.248560
C57   C     C_1   0.346902 0.198948 0.430099 0.327386
N7    N     N_1   0.381341 0.174344 0.396295 -0.226798
C58   C     C_1   0.263358 0.662137 0.272331 0.278217
N8    N     N_1   0.270282 0.729486 0.283673 -0.253297
N9    N     N_2   0.100929 0.336883 0.101561 -0.417203
H11   H     H_    0.078272 0.287142 0.114314 0.258648
C59   C     C_3   0.105276 0.307622 0.023155 -0.678778
H12   H     H_    0.157607 0.291227 0.032199 0.214362
H13   H     H_    0.117624 0.359384 0.005388 0.226703
H14   H     H_    0.042454 0.248295 0.968998 0.230323
C60   C     C_1   0.610704 0.328621 0.591668 0.294240
N10   N     N_1   0.546304 0.262174 0.547345 -0.244874
N11   N     N_2   0.234663 0.335633 0.229278 -0.416878
H15   H     H_    0.209255 0.287659 0.166592 0.259799
C61   C     C_3   0.199001 0.302889 0.275651 -0.664610
H16   H     H_    0.130033 0.285640 0.248921 0.213971
H17   H     H_    0.236328 0.352865 0.345465 0.207879
H18   H     H_    0.203040 0.243380 0.269308 0.235921
N12   N     N_2   0.767620 0.777987 0.662466 -0.438141
H19   H     H_    0.738533 0.722708 0.665321 0.273828
C62   C     C_3   0.753499 0.847336 0.705347 -0.602008
H20   H     H_    0.766467 0.856783 0.770383 0.236564
H21   H     H_    0.685258 0.829826 0.666631 0.233894
H22   H     H_    0.798054 0.910299 0.714301 0.223608
C63   C     C_1   0.602954 0.608045 0.338304 0.271917
N13   N     N_1   0.542981 0.550818 0.272009 -0.271474
N14   N     N_2   0.165067 0.397055 0.892678 -0.431783
H23   H     H_    0.168885 0.447456 0.940254 0.271916
C64   C     C_3   0.228713 0.373244 0.927795 -0.642410
H24   H     H_    0.200992 0.300895 0.896100 0.236804
H25   H     H_    0.284158 0.402657 0.919016 0.252692
H26   H     H_    0.253731 0.399286 0.998411 0.208521
N15   N     N_2   0.152721 0.294350 0.735040 -0.411709
H27   H     H_    0.152906 0.245500 0.689517 0.250553
C65   C     C_3   0.183577 0.374912 0.732183 -0.646486
H28   H     H_    0.214677 0.433158 0.796755 0.259846
H29   H     H_    0.129271 0.374688 0.685053 0.235509
H30   H     H_    0.233174 0.381422 0.712585 0.205857
C66   C     C_1   0.857745 0.073577 0.641664 0.267572
N16   N     N_1   0.800783 0.001742 0.598879 -0.302445
N17   N     N_2   0.853527 0.203580 0.769405 -0.409368
H31   H     H_    0.851589 0.171691 0.804432 0.258080
C67   C     C_3   0.770244 0.169874 0.695596 -0.634972
H32   H     H_    0.731325 0.097377 0.663993 0.231854
H33   H     H_    0.777718 0.187944 0.647257 0.236471
H34   H     H_    0.733965 0.197304 0.718619 0.247570
C68   C     C_1   0.072100 0.804346 0.152403 0.349875
N18   N     N_1   0.105309 0.827977 0.117068 -0.231738
C69   C     C_1   0.704755 0.342607 0.742561 0.273509
N19   N     N_1   0.663053 0.290289 0.753051 -0.300143
N20   N     N_2   0.055431 0.924183 0.271343 -0.425346
H35   H     H_    0.082477 0.974174 0.333393 0.251434
C70   C     C_3   0.992168 0.929601 0.207443 -0.631624
H36   H     H_    0.933359 0.913884 0.213392 0.235719
H37   H     H_    0.973357 0.883547 0.140703 0.230992
H38   H     H_    0.020479 0.997289 0.218084 0.225983
C71   C     C_1   0.939225 0.705562 0.354121 0.241680
N21   N     N_1   0.913785 0.685580 0.395978 -0.275970
N22   N     N_2   0.814577 0.376031 0.707276 -0.446733
H39   H     H_    0.828180 0.341048 0.736732 0.269236
C72   C     C_3   0.890368 0.423182 0.703439 -0.681853
H40   H     H_    0.946802 0.472731 0.769116 0.241328
H41   H     H_    0.879819 0.454223 0.663833 0.243207
H42   H     H_    0.908440 0.375762 0.673003 0.233486
N23   N     N_2   0.792277 0.593655 0.662190 -0.429353
H43   H     H_    0.741937 0.587653 0.612500 0.249880
C73   C     C_3   0.874874 0.664396 0.687495 -0.644249
H44   H     H_    0.873259 0.666278 0.629025 0.234375
H45   H     H_    0.928962 0.653806 0.717052 0.227567
H46   H     H_    0.887952 0.728970 0.733453 0.242855
C74   C     C_1   0.636291 0.562941 0.797379 0.287710
N24   N     N_1   0.616059 0.613492 0.822997 -0.273813
N25   N     N_2   0.590645 0.410987 0.736289 -0.427353
H47   H     H_    0.588876 0.400603 0.785742 0.275870
C75   C     C_3   0.502450 0.380521 0.673050 -0.645064
H48   H     H_    0.458767 0.313729 0.657715 0.231354
H49   H     H_    0.497331 0.375150 0.611865 0.225591
H50   H     H_    0.479008 0.424369 0.698719 0.223524
N26   N     N_2   0.737217 0.494545 0.904462 -0.418303
H51   H     H_    0.709877 0.428725 0.884035 0.290668
C76   C     C_3   0.718409 0.542540 0.966107 -0.677546
H52   H     H_    0.726642 0.522347 0.015850 0.235850
H53   H     H_    0.650521 0.527860 0.932660 0.229378
H54   H     H_    0.763766 0.614340 0.000025 0.233395

loop_
_geom_bond_atom_site_label_1
_geom_bond_atom_site_label_2
_ccdc_geom_bond_type
Cu5   Cu6   S    
C14   C28   S    
C56   N6    T    
C23   O20   A    
C29   C42   S    
C70   H37   S    
C61   H16   S    
N9    C59   S    
C41   C42   A    
C58   N8    T    
C54   H8    S    
C51   N1    T    
C64   H26   S    
Cu3   O7    S    
C49   C74   S    
N22   H39   S    
C22   C63   S    
C54   H10   S    
C7    C8    A    
N25   C75   S    
C74   N24   T    
C40   C46   A    
C65   H29   S    
C33   C39   A    
Cu6   O17   S    
C23   O21   A    
C18   C24   A    
C1    O12   A    
Cu2   O23   S    
C45   C51   S    
N14   H23   S    
C43   C71   S    
C61   H17   S    
C67   H32   S    
C5    C6    A    
C62   H21   S    
Cu4   O6    S    
C15   C16   A    
N17   C67   S    
C3    C48   S    
C3    C53   S    
C18   C19   A    
C73   H44   S    
C15   N9    S    
C49   C50   S    
Cu1   O18   S    
C27   O6    A    
C57   N7    T    
N22   C72   S    
C66   N16   T    
C19   C20   A    
C16   C17   A    
Cu6   O10   S    
C4    H1    S    
C40   C68   S    
C23   C24   S    
Cu3   O24   S    
C4    N26   S    
N20   C70   S    
C11   H2    S    
Cu3   O3    S    
C9    C10   A    
C53   N3    T    
C29   O10   A    
N26   C76   S    
C69   N19   T    
N4    C54   S    
Cu6   O13   S    
C13   C14   A    
C70   H38   S    
C73   H45   S    
C34   O22   A    
C1    O1    A    
C67   H33   S    
C44   C46   A    
C31   O15   A    
C41   N20   S    
C45   C47   S    
C65   H30   S    
Cu1   Cu2   S    
C26   O4    A    
C62   H20   S    
C72   H42   S    
Cu1   O1    S    
C21   H4    S    
C13   C58   S    
C61   H18   S    
C35   N15   S    
N23   H43   S    
Cu5   O16   S    
C8    C9    A    
C62   H22   S    
N11   C61   S    
N26   H51   S    
Cu6   O15   S    
N23   C73   S    
C25   O2    A    
Cu5   O11   S    
Cu2   O21   S    
C2    C4    S    
C76   H52   S    
C37   C38   A    
C76   H53   S    
C12   C50   S    
C71   N21   T    
Cu4   O8    S    
C9    C57   S    
C75   H50   S    
C28   O7    A    
C2    C26   S    
N4    H7    S    
N14   C64   S    
Cu1   O20   S    
N12   H19   S    
C37   C66   S    
C38   N17   S    
Cu5   O14   S    
C27   C46   S    
C40   C41   A    
C47   C69   S    
N15   H27   S    
C48   C52   S    
C43   C44   A    
C44   H5    S    
C73   H46   S    
C22   C24   A    
C59   H14   S    
C42   C43   A    
N9    H11   S    
C63   N13   T    
C30   O11   A    
C16   N11   S    
C49   N25   S    
C67   H34   S    
C60   N10   T    
C20   C32   S    
C3    H6    S    
C33   N14   S    
N15   C65   S    
C11   C17   A    
C72   H41   S    
C31   C36   S    
C26   O3    A    
C28   O8    A    
C1    C10   S    
C64   H25   S    
C64   H24   S    
C5    N4    S    
C54   H9    S    
Cu3   Cu4   S    
C6    C7    A    
Cu4   O4    S    
C8    C56   S    
C2    C47   S    
C65   H28   S    
Cu2   O12   S    
C55   N5    T    
C4    C49   S    
C76   H54   S    
C19   H3    S    
C6    C55   S    
C59   H13   S    
C2    C3    S    
C52   N2    T    
C5    C10   A    
N25   H47   S    
C68   N18   T    
C25   C39   S    
C32   O17   A    
C30   O13   A    
C11   C13   A    
C31   O14   A    
C38   C39   A    
C48   N23   S    
Cu4   O2    S    
C45   C50   S    
C12   O18   A    
C48   C50   S    
C25   O24   A    
C33   C35   A    
C75   H49   S    
C12   O19   A    
Cu2   O19   S    
Cu3   O5    S    
N12   C62   S    
C72   H40   S    
C27   O5    A    
C18   N12   S    
C32   O16   A    
C47   N22   S    
C45   C60   S    
C20   C21   A    
C36   C37   A    
C75   H48   S    
C17   C34   S    
C59   H12   S    
C70   H36   S    
C7    C30   S    
C14   C15   A    
C35   C36   A    
N11   H15   S    
N20   H35   S    
C21   C22   A    
Cu1   O22   S    
C34   O23   A    
Cu5   O9    S    
N17   H31   S    
C29   O9    A    
