data_mof_unit_30139.cif
_audit_creation_date              2012-10-26T19:08:23-0400
_audit_creation_method            fapswitch 2.2
_symmetry_space_group_name_H-M    P1
_symmetry_Int_Tables_number       1
_space_group_crystal_system       triclinic
_cell_length_a                    14.673343
_cell_length_b                    14.682828
_cell_length_c                    19.377744
_cell_angle_alpha                 76.15417
_cell_angle_beta                  102.95491
_cell_angle_gamma                 114.762161
_cell_volume                      3644.29042828

loop_
_atom_site_label
_atom_site_type_symbol
_atom_type_description
_atom_site_fract_x
_atom_site_fract_y
_atom_site_fract_z
_atom_type_partial_charge
C1    C     C_R   0.880526 0.311915 0.511545 0.550396
C2    C     C_R   0.290904 0.821439 0.482709 -0.151100
C3    C     C_R   0.640934 0.075896 0.505719 -0.039753
C4    C     C_R   0.361432 0.921822 0.481741 -0.036374
C5    C     C_R   0.679880 0.998886 0.531837 -0.039775
C6    C     C_R   0.323824 0.999984 0.458015 -0.030635
C7    C     C_R   0.534957 0.049744 0.484089 -0.062046
C8    C     C_R   0.467713 0.946561 0.500931 -0.059868
C9    C     C_R   0.509258 0.873332 0.539866 0.271671
C10   C     C_R   0.493817 0.122562 0.443858 0.264950
C11   C     C_R   0.613790 0.897993 0.549547 0.274766
C12   C     C_R   0.119640 0.688208 0.487923 0.560556
C13   C     C_R   0.389849 0.099727 0.436640 0.272514
C14   C     C_R   0.698939 0.639177 0.361092 0.235084
C15   C     C_R   0.288649 0.337735 0.626172 0.224669
C16   C     C_R   0.000029 0.500239 0.632461 0.553466
C17   C     C_R   0.000121 0.500091 0.367515 0.537270
C18   C     C_R   0.788210 0.621535 0.389558 0.014772
C19   C     C_R   0.205121 0.365293 0.603793 0.040049
C20   C     C_R   0.717297 0.514258 0.492306 0.016845
C21   C     C_R   0.284652 0.489118 0.509449 0.016456
C22   C     C_R   0.625831 0.531162 0.469459 -0.081141
C23   C     C_R   0.813981 0.203484 0.516967 -0.016853
C24   C     C_R   0.372693 0.465571 0.528738 -0.074767
C25   C     C_R   0.618324 0.597101 0.403110 0.049994
C26   C     C_R   0.375059 0.390279 0.590106 0.037396
C27   C     C_R   0.542807 0.485502 0.510642 -0.040461
C28   C     C_R   0.456172 0.511732 0.487966 -0.037091
C29   C     C_R   0.453586 0.580006 0.423470 -0.146177
C30   C     C_R   0.543451 0.413710 0.573559 -0.143522
C31   C     C_R   0.529731 0.618184 0.379904 0.270247
C32   C     C_R   0.462911 0.368337 0.613495 0.263121
C33   C     C_R   0.079187 0.485846 0.760069 -0.117745
C34   C     C_R   0.187132 0.796720 0.478929 -0.006771
C35   C     C_R   0.926743 0.525208 0.239209 -0.127238
C36   C     C_R   0.082635 0.488202 0.832426 0.274505
C37   C     C_R   0.922976 0.523628 0.166628 0.265375
C38   C     C_R   0.004194 0.502391 0.853902 0.040266
C39   C     C_R   0.996372 0.500760 0.145632 0.042368
C40   C     C_R   0.926328 0.518229 0.801495 -0.172443
C41   C     C_R   0.069135 0.475969 0.198644 -0.175746
C42   C     C_R   0.924963 0.518061 0.729454 -0.154401
C43   C     C_R   0.070354 0.475207 0.270802 -0.164238
C44   C     C_R   0.001141 0.501401 0.708250 -0.029482
C45   C     C_R   0.785235 0.024856 0.543376 -0.097355
C46   C     C_R   0.999308 0.500030 0.291593 -0.030319
C47   C     C_R   0.998022 0.501192 0.069463 0.344769
C48   C     C_R   0.002560 0.502100 0.929942 0.343854
C49   C     C_3   0.449867 0.625307 0.264714 0.013483
C50   C     C_3   0.426822 0.696843 0.198737 -0.362155
C51   C     C_3   0.527546 0.350431 0.731560 0.019012
C52   C     C_3   0.526880 0.274008 0.800225 -0.358474
C53   C     C_3   0.733462 0.684647 0.242958 -0.011912
C54   C     C_3   0.687072 0.719269 0.168301 -0.361639
C55   C     C_3   0.230108 0.166532 0.660695 0.009895
C56   C     C_R   0.219671 0.976405 0.453500 -0.106206
C57   C     C_3   0.238457 0.081846 0.721496 -0.352928
C58   C     C_3   0.253215 0.554716 0.874489 -0.006342
C59   C     C_3   0.331689 0.517820 0.865015 -0.380523
C60   C     C_3   0.754260 0.475091 0.123300 -0.007823
C61   C     C_3   0.680111 0.494180 0.058525 -0.358592
C62   C     C_3   0.663460 0.772995 0.543142 -0.001991
C63   C     C_3   0.729246 0.715340 0.585141 -0.369710
C64   C     C_3   0.355766 0.238163 0.435491 0.008669
C65   C     C_3   0.312947 0.313453 0.387060 -0.373217
C66   C     C_3   0.996753 0.880528 0.412527 0.000532
C67   C     C_R   0.852014 0.126221 0.531245 0.241115
C68   C     C_3   0.894078 0.865866 0.428333 -0.369057
C69   C     C_3   0.977753 0.154571 0.469378 0.003191
C70   C     C_3   0.084440 0.157969 0.477121 -0.383393
C71   C     C_3   0.433769 0.780187 0.638420 0.003715
C72   C     C_3   0.365202 0.674589 0.670524 -0.366150
C73   C     C_3   0.572364 0.206912 0.345026 0.007771
C74   C     C_3   0.644013 0.309609 0.311174 -0.373325
C75   C     C_R   0.151075 0.875164 0.466743 0.242994
C76   C     C_R   0.709257 0.176985 0.506671 -0.148432
Cu1   Cu    Cu3+1 0.081740 0.475680 0.518680 0.927298
Cu2   Cu    Cu3+1 0.918260 0.524320 0.481320 0.933507
H1    H     H_    0.865446 0.529864 0.816153 0.138395
H2    H     H_    0.375934 0.652428 0.156273 0.096128
H3    H     H_    0.388740 0.739863 0.212885 0.156280
H4    H     H_    0.495312 0.403065 0.739737 0.142489
H5    H     H_    0.607650 0.394467 0.721710 0.107716
H6    H     H_    0.558547 0.220194 0.793969 0.153431
H7    H     H_    0.573707 0.314458 0.845545 0.092993
H8    H     H_    0.448114 0.230705 0.812615 0.174319
H9    H     H_    0.277301 0.547049 0.465334 0.136624
H10   H     H_    0.729671 0.465601 0.541352 0.131259
H11   H     H_    0.139850 0.327130 0.632087 0.157102
H12   H     H_    0.126036 0.457583 0.184469 0.139387
H13   H     H_    0.852837 0.655742 0.360874 0.116664
H14   H     H_    0.718798 0.602657 0.247308 0.106289
H15   H     H_    0.816433 0.730407 0.248234 0.123575
H16   H     H_    0.694984 0.799183 0.162857 0.165608
H17   H     H_    0.726507 0.714466 0.127444 0.115714
H18   H     H_    0.605640 0.669547 0.158416 0.133755
H19   H     H_    0.260231 0.161365 0.614376 0.130441
H20   H     H_    0.148534 0.154238 0.644978 0.150611
H21   H     H_    0.209009 0.084435 0.768725 0.158890
H22   H     H_    0.193483 0.006977 0.703767 0.102386
H23   H     H_    0.863720 0.530142 0.690513 0.132037
H24   H     H_    0.318903 0.090533 0.737114 0.173019
H25   H     H_    0.391382 0.604113 0.403302 0.110482
H26   H     H_    0.604827 0.388248 0.593256 0.109992
H27   H     H_    0.279609 0.588652 0.924377 0.157684
H28   H     H_    0.249800 0.617064 0.829040 0.100778
H29   H     H_    0.307937 0.484508 0.814993 0.150883
H30   H     H_    0.406054 0.582617 0.861473 0.092359
H31   H     H_    0.340169 0.459294 0.911475 0.170583
H32   H     H_    0.728072 0.477521 0.172180 0.108859
H33   H     H_    0.752797 0.397734 0.125975 0.127515
H34   H     H_    0.127357 0.455713 0.310197 0.129579
H35   H     H_    0.703332 0.491016 0.008670 0.176742
H36   H     H_    0.602851 0.435232 0.063941 0.088357
H37   H     H_    0.678410 0.570147 0.054675 0.152341
H38   H     H_    0.701409 0.824606 0.496519 0.109235
H39   H     H_    0.588317 0.717819 0.522949 0.182088
H40   H     H_    0.688088 0.653965 0.626476 0.153414
H41   H     H_    0.749170 0.681504 0.548455 0.109848
H42   H     H_    0.800712 0.768079 0.611757 0.166646
H43   H     H_    0.435284 0.281171 0.458221 0.179631
H44   H     H_    0.309540 0.197818 0.480126 0.101317
H45   H     H_    0.138377 0.472219 0.744709 0.136591
H46   H     H_    0.297254 0.356201 0.419686 0.101504
H47   H     H_    0.367875 0.367702 0.350501 0.148783
H48   H     H_    0.240693 0.272649 0.354366 0.157861
H49   H     H_    0.315474 0.761364 0.484057 0.196246
H50   H     H_    0.681886 0.235987 0.502419 0.198450
H51   H     H_    0.984966 0.831118 0.373168 0.134064
H52   H     H_    0.033804 0.961484 0.388183 0.112227
H53   H     H_    0.904250 0.916707 0.465969 0.141775
H54   H     H_    0.846517 0.883259 0.377846 0.123317
H55   H     H_    0.854844 0.786477 0.453960 0.168815
H56   H     H_    0.872768 0.546796 0.254343 0.113895
H57   H     H_    0.974203 0.224973 0.433506 0.149388
H58   H     H_    0.924850 0.087792 0.443358 0.105687
H59   H     H_    0.101470 0.159264 0.423853 0.092331
H60   H     H_    0.140358 0.227326 0.498512 0.148307
H61   H     H_    0.090834 0.089582 0.514028 0.156083
H62   H     H_    0.816737 0.966944 0.560665 0.157442
H63   H     H_    0.192194 0.036890 0.442662 0.132575
H64   H     H_    0.396096 0.833553 0.634622 0.125861
H65   H     H_    0.506861 0.803890 0.675126 0.162761
H66   H     H_    0.400811 0.619375 0.675507 0.163782
H67   H     H_    0.376561 0.573643 0.284555 0.098712
H68   H     H_    0.352625 0.676071 0.724542 0.078852
H69   H     H_    0.290821 0.649582 0.635760 0.185772
H70   H     H_    0.500566 0.182077 0.307173 0.160026
H71   H     H_    0.608965 0.151434 0.353498 0.124927
H72   H     H_    0.716817 0.335674 0.347596 0.174513
H73   H     H_    0.659504 0.302973 0.259460 0.074805
H74   H     H_    0.609433 0.366797 0.301023 0.156508
H75   H     H_    0.483027 0.579008 0.248764 0.143150
H76   H     H_    0.497968 0.751541 0.177757 0.167592
N1    N     N_R   0.941014 0.538250 0.947570 -0.258277
N2    N     N_R   0.059457 0.464913 0.051793 -0.257090
N3    N     N_R   0.938941 0.537908 0.015867 -0.160721
N4    N     N_R   0.061561 0.465257 0.983500 -0.160780
N5    N     N_R   0.795420 0.560800 0.453240 -0.259976
N6    N     N_R   0.204580 0.439200 0.546760 -0.270491
O1    O     O_R   0.977910 0.338110 0.524620 -0.454138
O2    O     O_3   0.469386 0.297829 0.674161 -0.527146
O3    O     O_3   0.690997 0.701557 0.295197 -0.523850
O4    O     O_3   0.285850 0.261201 0.684351 -0.536006
O5    O     O_3   0.159777 0.470884 0.882443 -0.533960
O6    O     O_3   0.851975 0.551083 0.115877 -0.539467
O7    O     O_3   0.651753 0.826766 0.589604 -0.552849
O8    O     O_3   0.351090 0.169075 0.394043 -0.554329
O9    O     O_3   0.053250 0.853278 0.477285 -0.542740
O10   O     O_3   0.954465 0.148073 0.537784 -0.553526
O11   O     O_3   0.449825 0.776688 0.570135 -0.563534
O12   O     O_R   0.022090 0.661890 0.475380 -0.449186
O13   O     O_3   0.553244 0.217070 0.410405 -0.566767
O14   O     O_R   0.839850 0.379180 0.493080 -0.515957
O15   O     O_R   0.160150 0.620820 0.506920 -0.522266
O16   O     O_R   0.069040 0.479450 0.615630 -0.514580
O17   O     O_R   0.930960 0.520550 0.384370 -0.522548
O18   O     O_R   0.930990 0.520520 0.584090 -0.499297
O19   O     O_R   0.069010 0.479480 0.415910 -0.509825
O20   O     O_3   0.519357 0.683246 0.316665 -0.506110

loop_
_geom_bond_atom_site_label_1
_geom_bond_atom_site_label_2
_ccdc_geom_bond_type
C25   C31   A    
C7    C10   A    
C66   C68   S    
C21   H9    S    
C26   C32   A    
N1    N3    A    
Cu2   O17   S    
C73   C74   S    
C14   C18   A    
C66   O9    S    
C23   C76   A    
C4    C8    A    
C7    C8    A    
C39   C41   A    
C53   C54   S    
C15   C19   A    
C57   H24   S    
C28   C29   A    
Cu1   O19   S    
C18   H13   S    
C49   H75   S    
C68   H55   S    
C35   C37   A    
C24   C26   A    
C55   O4    S    
C5    C11   A    
C3    C7    A    
C64   H44   S    
C47   N2    A    
C64   H43   S    
C57   H21   S    
C33   C36   A    
C29   H25   S    
C51   O2    S    
C68   H54   S    
C65   H46   S    
C23   C67   A    
C14   O3    S    
C52   H6    S    
C58   O5    S    
C62   H39   S    
C18   N5    A    
N2    N4    A    
C8    C9    A    
C22   C25   A    
C32   O2    S    
C61   H37   S    
C30   C32   A    
C16   C44   S    
C54   H18   S    
C34   C75   A    
C49   O20   S    
C2    H49   S    
C2    C34   A    
C10   O13   S    
C40   C42   A    
C62   O7    S    
C1    O1    A    
C70   H61   S    
C69   H57   S    
C56   C75   A    
C27   C30   A    
C11   O7    S    
C41   C43   A    
C74   H74   S    
C42   C44   A    
C52   H8    S    
C35   H56   S    
C16   O18   A    
C67   O10   S    
Cu1   O1    S    
C37   C39   A    
C1    O14   A    
C73   H70   S    
C53   H15   S    
C51   C52   S    
C15   O4    S    
Cu2   O14   S    
C17   C46   S    
C4    C6    A    
C63   H40   S    
C53   O3    S    
C15   C26   A    
C3    C5    A    
C58   C59   S    
Cu1   Cu2   S    
C57   H22   S    
C48   N4    A    
C20   N5    A    
C45   H62   S    
C59   H29   S    
C60   C61   S    
C58   H28   S    
C65   H47   S    
C68   H53   S    
C2    C4    A    
C75   O9    S    
C62   C63   S    
C19   H11   S    
C63   H41   S    
C55   H19   S    
C53   H14   S    
Cu2   O12   S    
C40   H1    S    
C49   H67   S    
C64   O8    S    
C3    C76   A    
C9    C11   A    
C51   H4    S    
C54   H17   S    
C37   O6    S    
C12   O15   A    
C56   H63   S    
C39   C47   S    
C48   N1    A    
C20   C22   A    
C70   H60   S    
Cu1   O16   S    
C22   C27   A    
C71   H64   S    
C61   H35   S    
C76   H50   S    
C21   N6    A    
C71   O11   S    
C74   H73   S    
C9    O11   S    
C43   H34   S    
C19   N6    A    
C12   C34   S    
C42   H23   S    
C51   H5    S    
C61   H36   S    
C12   O12   A    
C71   H65   S    
C47   N3    A    
C17   O17   A    
C72   H66   S    
C52   H7    S    
C73   H71   S    
Cu2   O18   S    
C33   C44   A    
C38   C48   S    
C24   C28   A    
C6    C56   A    
C13   O8    S    
C10   C13   A    
C50   H2    S    
C1    C23   S    
C45   C67   A    
C69   H58   S    
C72   H69   S    
C59   H30   S    
C31   O20   S    
C58   H27   S    
C64   C65   S    
C66   H51   S    
C55   C57   S    
C71   C72   S    
C29   C31   A    
C60   H33   S    
C65   H48   S    
C6    C13   A    
C38   C40   A    
C63   H42   S    
C17   O19   A    
C5    C45   A    
C50   H76   S    
C72   H68   S    
C20   H10   S    
C55   H20   S    
C36   C38   A    
C36   O5    S    
C59   H31   S    
C41   H12   S    
C69   O10   S    
C14   C25   A    
C73   O13   S    
C69   C70   S    
C43   C46   A    
C60   O6    S    
C54   H16   S    
C60   H32   S    
C62   H38   S    
Cu1   N6    S    
Cu2   N5    S    
C70   H59   S    
Cu1   O15   S    
C49   C50   S    
C21   C24   A    
C30   H26   S    
C27   C28   A    
C33   H45   S    
C74   H72   S    
C16   O16   A    
C35   C46   A    
C50   H3    S    
C66   H52   S    
