data_mof_unit_46496.cif
_audit_creation_date              2013-03-05T16:31:21-0500
_audit_creation_method            fapswitch 2.2
_symmetry_space_group_name_H-M    P1
_symmetry_Int_Tables_number       1
_space_group_crystal_system       triclinic
_cell_length_a                    9.5651
_cell_length_b                    10.803467
_cell_length_c                    13.474404
_cell_angle_alpha                 91.558684
_cell_angle_beta                  72.22707
_cell_angle_gamma                 89.96173
_cell_volume                      1325.39099945

loop_
_atom_site_label
_atom_site_type_symbol
_atom_site_description
_atom_site_fract_x
_atom_site_fract_y
_atom_site_fract_z
_atom_type_partial_charge
O1    O     O_R   0.381190 0.680360 0.500000 -0.580966
O2    O     O_R   0.618780 0.680320 0.499990 -0.573859
C1    C     C_R   0.496949 0.737224 0.506430 0.774589
O3    O     O_R   0.323230 0.500000 0.650990 -0.529196
O4    O     O_R   0.560820 0.499960 0.650980 -0.600564
C2    C     C_R   0.420497 0.497679 0.700655 0.777692
Cu1   Cu    Cu3+1 0.359330 0.500020 0.500010 1.022588
Cu2   Cu    Cu3+1 0.640670 0.499980 0.499990 1.030334
O5    O     O_R   0.381220 0.319680 0.500010 -0.589347
O6    O     O_R   0.618810 0.319640 0.500000 -0.522088
O7    O     O_R   0.439180 0.500040 0.349020 -0.573018
O8    O     O_R   0.676770 0.500000 0.349010 -0.557823
C3    C     C_R   0.500886 0.262233 0.498538 0.862253
C4    C     C_R   0.579132 0.502095 0.299971 0.874838
C5    C     C_R   0.792847 0.409034 0.024821 0.517685
H1    H     H_    0.846875 0.434947 0.167678 0.201503
C6    C     C_R   0.626462 0.495450 0.185625 -0.095567
C7    C     C_R   0.238466 0.567993 0.870802 0.347153
C8    C     C_R   0.217221 0.613820 0.971847 -0.182274
C9    C     C_R   0.322486 0.595835 0.021524 -0.143068
C10   C     C_R   0.447949 0.520688 0.975319 0.126584
C11   C     C_R   0.470424 0.473035 0.872557 -0.005213
C12   C     C_R   0.552254 0.492838 0.027857 -0.025179
C13   C     C_R   0.682867 0.424829 0.975124 0.058345
C14   C     C_R   0.696988 0.369351 0.876645 0.470412
C15   C     C_R   0.588966 0.391024 0.828408 -0.278593
C16   C     C_R   0.525852 0.524464 0.133846 -0.139934
C17   C     C_R   0.764301 0.448350 0.129196 -0.241142
C18   C     C_R   0.372047 0.506277 0.816577 -0.178062
H2    H     H_    0.423076 0.564535 0.180502 0.173459
H3    H     H_    0.300852 0.641844 0.096627 0.159180
H4    H     H_    0.118330 0.665709 0.012291 0.192760
H5    H     H_    0.597501 0.340857 0.756213 0.174034
C19   C     C_R   0.410853 0.932127 0.460519 0.062492
C20   C     C_R   0.488884 0.870670 0.516605 -0.160332
C21   C     C_R   0.558636 0.940573 0.578466 0.425436
C22   C     C_R   0.563691 0.069571 0.570512 -0.091773
H6    H     H_    0.617791 0.123436 0.616835 0.193419
C23   C     C_R   0.499238 0.128779 0.503588 -0.126170
C24   C     C_R   0.419664 0.059027 0.451346 -0.003555
C25   C     C_3   0.437881 0.046323 0.336469 0.161355
C26   C     C_3   0.417328 0.908044 0.349778 -0.477958
H7    H     H_    0.348576 0.090577 0.313284 0.165583
H8    H     H_    0.310210 0.875346 0.343258 0.200496
H9    H     H_    0.513247 0.849903 0.305324 0.211133
C27   C     C_R   0.960662 0.441697 0.420850 0.106965
N1    N     N_R   0.852320 0.499070 0.499340 -0.183588
C28   C     C_R   0.894449 0.567324 0.572395 0.025162
H10   H     H_    0.813282 0.620327 0.632023 0.153903
C29   C     C_R   0.043136 0.566821 0.572611 0.047533
H11   H     H_    0.073361 0.620383 0.631560 0.191397
N2    N     N_R   0.148230 0.499110 0.499340 -0.204226
C30   C     C_R   0.108962 0.449847 0.417379 0.105582
C31   C     C_3   0.148306 0.325367 0.367360 -0.006008
C32   C     C_3   0.982902 0.304824 0.388666 0.422510
H12   H     H_    0.201358 0.262639 0.409171 0.139198
N3    N     N_R   0.586295 0.076342 0.270708 0.174721
O9    O     O_R   0.701371 0.029169 0.288595 -0.269137
O10   O     O_R   0.603826 0.140086 0.187337 -0.260670
N4    N     N_R   0.230858 0.338701 0.256783 0.157004
O11   O     O_R   0.355287 0.281061 0.216913 -0.316730
O12   O     O_R   0.185669 0.414052 0.198919 -0.383234
N5    N     N_R   0.938345 0.267608 0.297311 0.145263
O13   O     O_R   0.800815 0.277101 0.303370 -0.315742
O14   O     O_R   0.018530 0.187858 0.229435 -0.250766
O15   O     O_3   0.812941 0.289313 0.830765 -0.596416
H13   H     H_    0.799736 0.250543 0.766865 0.364107
N6    N     N_R   0.925390 0.219439 0.474371 0.114530
O16   O     O_R   0.873222 0.260079 0.570417 -0.395655
O17   O     O_R   0.942623 0.100670 0.455850 -0.298402
O18   O     O_3   0.925307 0.352405 0.971942 -0.598506
H14   H     H_    0.988950 0.350247 0.017834 0.350503
N7    N     N_R   0.123743 0.586649 0.824645 0.106952
O19   O     O_R   0.063392 0.490956 0.794232 -0.297894
O20   O     O_R   0.057614 0.693723 0.835264 -0.368361
O21   O     O_3   0.623576 0.887956 0.645857 -0.685956
H15   H     H_    0.584770 0.803499 0.661904 0.318321

loop_
_geom_bond_atom_site_label_1
_geom_bond_atom_site_label_2
_geom_bond_distance
_ccdc_geom_bond_type
H1    C17   1.080567 S    
N5    O14   1.301931 A    
C11   C18   1.425126 A    
N7    O20   1.301335 A    
N7    O19   1.300813 A    
C8    C9    1.384871 A    
C19   C26   1.490151 S    
C32   N6    1.468988 S    
N3    O9    1.302794 A    
Cu1   Cu2   2.690962 S    
C31   N4    1.468953 S    
C30   C31   1.483092 S    
Cu1   O7    1.942659 S    
C19   C24   1.380190 A    
C21   C22   1.400379 A    
Cu1   N2    2.021997 S    
C7    C8    1.390839 A    
O4    C2    1.304841 A    
O7    C4    1.300004 A    
N3    O10   1.300611 A    
N4    O12   1.302773 A    
C19   C20   1.392838 A    
C25   C26   1.515250 S    
O5    C3    1.296238 A    
C21   O21   1.380390 S    
C31   C32   1.536680 S    
C20   C21   1.419928 A    
N6    O16   1.300449 A    
C32   N5    1.467018 S    
C27   C32   1.525860 S    
C29   N2    1.369006 A    
C12   C13   1.426174 A    
C12   C16   1.404722 A    
C28   C29   1.423107 A    
O15   H13   0.989728 S    
C10   C11   1.416989 A    
C16   H2    1.075348 S    
C25   H7    1.107407 S    
C4    C6    1.467004 S    
C26   H8    1.111774 S    
O3    Cu1   1.956794 S    
C8    H4    1.083488 S    
C31   H12   1.108594 S    
C6    C16   1.390158 A    
O21   H15   0.989566 S    
O3    C2    1.301931 A    
C23   C24   1.393455 A    
C14   C15   1.401012 A    
N4    O11   1.297444 A    
O1    C1    1.291308 A    
C26   H9    1.112811 S    
C22   H6    1.083435 S    
C15   H5    1.081431 S    
N1    C28   1.370465 A    
C1    C20   1.444240 S    
Cu2   O8    1.956795 S    
C29   H11   1.079236 S    
C7    C18   1.418939 A    
C5    C13   1.421352 A    
C13   C14   1.409054 A    
N6    O17   1.301171 A    
C28   H10   1.081548 S    
O8    C4    1.298791 A    
C7    N7    1.433437 S    
C10   C12   1.424574 A    
N2    C30   1.365828 A    
Cu1   O5    1.959377 S    
C27   N1    1.367855 A    
C24   C25   1.506298 S    
O1    Cu1   1.959623 S    
C6    C17   1.393332 A    
O2    Cu2   1.959377 S    
C14   O15   1.382401 S    
O6    C3    1.292732 A    
O4    Cu2   1.942659 S    
C5    O18   1.382521 S    
O2    C1    1.295318 A    
Cu2   N1    2.021813 S    
C25   N3    1.467617 S    
O18   H14   0.991997 S    
C22   C23   1.404509 A    
C5    C17   1.402072 A    
C27   C30   1.407828 A    
C3    C23   1.445087 S    
N5    O13   1.296718 A    
C2    C18   1.487727 S    
C9    C10   1.414908 A    
Cu2   O6    1.959623 S    
C11   C15   1.408100 A    
C9    H3    1.076390 S    
