data_mof_unit_59171.cif
_audit_creation_date              2012-12-11T16:24:25-0500
_audit_creation_method            fapswitch 2.2
_symmetry_space_group_name_H-M    P1
_symmetry_Int_Tables_number       1
_space_group_crystal_system       triclinic
_cell_length_a                    14.751646
_cell_length_b                    14.760349
_cell_length_c                    33.31947
_cell_angle_alpha                 96.200781
_cell_angle_beta                  96.391384
_cell_angle_gamma                 61.190552
_cell_volume                      6305.15948217

loop_
_atom_site_label
_atom_site_type_symbol
_atom_type_description
_atom_site_fract_x
_atom_site_fract_y
_atom_site_fract_z
_atom_type_partial_charge
C1    C     C_R   0.391141 0.699280 0.446033 0.544121
C2    C     C_1   0.314719 0.331455 0.229773 -0.020804
C3    C     C_3   0.541547 0.791350 0.341374 -0.380930
C4    C     C_3   0.489397 0.173960 0.579989 -0.369684
C5    C     C_3   0.256910 0.595203 0.684117 0.002496
C6    C     C_3   0.185521 0.684269 0.711880 -0.361318
C7    C     C_3   0.805075 0.480145 0.902563 -0.385857
C8    C     C_3   0.075136 0.875541 0.855593 -0.005757
C9    C     C_3   0.987485 0.899281 0.881909 -0.358976
C10   C     C_1   0.319640 0.336032 0.266088 -0.023794
C11   C     C_R   0.405637 0.386328 0.434046 0.541835
C12   C     C_R   0.290916 0.292515 0.102230 0.019774
C13   C     C_R   0.752853 0.373968 0.409502 -0.022353
C14   C     C_R   0.789903 0.432722 0.393345 -0.147559
C15   C     C_R   0.816128 0.413302 0.353323 -0.166700
C16   C     C_R   0.804825 0.335550 0.328603 0.037149
C17   C     C_R   0.773057 0.272382 0.345421 0.263354
C18   C     C_R   0.750123 0.290343 0.386001 -0.113340
C19   C     C_R   0.328009 0.342638 0.309373 0.038898
C20   C     C_R   0.825256 0.320176 0.203714 0.336156
C21   C     C_R   0.816548 0.328205 0.284902 0.351052
C22   C     C_R   0.841998 0.393378 0.142905 -0.127788
C23   C     C_R   0.700395 0.410013 0.447473 0.549391
C24   C     C_R   0.874351 0.378900 0.104109 -0.143637
C25   C     C_R   0.888841 0.206407 0.097163 -0.011706
C26   C     C_R   0.856185 0.222408 0.136446 -0.096707
C27   C     C_R   0.838271 0.313122 0.160180 0.023196
C28   C     C_R   0.904419 0.283613 0.081623 0.033481
C29   C     C_R   0.372872 0.752490 0.408729 0.006632
C30   C     C_R   0.401998 0.257571 0.330372 -0.122940
C31   C     C_R   0.282865 0.776093 0.383549 -0.136760
C32   C     C_R   0.276815 0.802037 0.344103 -0.128902
C33   C     C_R   0.360507 0.804782 0.328843 0.048320
C34   C     C_R   0.448581 0.789391 0.355217 -0.003805
C35   C     C_R   0.393568 0.701486 0.561210 0.540247
C36   C     C_R   0.452954 0.764323 0.395022 -0.107197
C37   C     C_R   0.350501 0.825664 0.203891 0.349330
C38   C     C_R   0.356312 0.814214 0.284905 0.346910
C39   C     C_R   0.262749 0.829499 0.135169 -0.118692
C40   C     C_R   0.241046 0.861257 0.095762 -0.132233
C41   C     C_R   0.422615 0.269349 0.371966 -0.136971
C42   C     C_R   0.382071 0.903449 0.104692 -0.130667
C43   C     C_R   0.403234 0.872445 0.144155 -0.120790
C44   C     C_R   0.340878 0.839489 0.160282 0.036226
C45   C     C_R   0.297631 0.902786 0.080840 0.023090
C46   C     C_R   0.370093 0.370614 0.585333 -0.010963
C47   C     C_R   0.407155 0.388695 0.548999 0.546025
C48   C     C_R   0.295102 0.457660 0.606511 -0.128679
C49   C     C_R   0.273955 0.451708 0.645623 0.255304
C50   C     C_R   0.325018 0.356010 0.663628 0.023513
C51   C     C_R   0.392265 0.266927 0.641197 -0.144552
C52   C     C_R   0.394394 0.248615 0.166142 -0.110332
C53   C     C_R   0.415430 0.272650 0.602179 -0.019919
C54   C     C_R   0.312711 0.346134 0.787717 0.335951
C55   C     C_R   0.317618 0.349571 0.706829 0.349062
C56   C     C_R   0.215736 0.402304 0.850345 -0.119137
C57   C     C_R   0.206155 0.383583 0.889351 -0.128980
C58   C     C_R   0.384385 0.246548 0.892038 -0.132981
C59   C     C_R   0.701269 0.413742 0.562710 0.543241
C60   C     C_R   0.393957 0.265273 0.853099 -0.122165
C61   C     C_R   0.308225 0.339946 0.831192 0.036646
C62   C     C_R   0.288905 0.302138 0.909710 0.022533
C63   C     C_R   0.385290 0.232747 0.124183 -0.124253
C64   C     C_R   0.753895 0.381054 0.602972 0.019200
C65   C     C_R   0.777527 0.448626 0.629627 -0.125217
C66   C     C_R   0.805784 0.428335 0.670390 -0.109160
C67   C     C_R   0.811222 0.340245 0.684869 0.039037
C68   C     C_R   0.794001 0.269433 0.658164 -0.112773
C69   C     C_R   0.765738 0.289483 0.617399 -0.126528
C70   C     C_R   0.914399 0.206505 0.820772 -0.122032
C71   C     C_R   0.368615 0.366319 0.392841 0.018461
C72   C     C_R   0.941291 0.195883 0.862027 -0.146247
C73   C     C_R   0.845873 0.383348 0.874764 -0.005047
C74   C     C_R   0.208483 0.373370 0.122752 -0.126144
C75   C     C_R   0.819156 0.392639 0.833019 -0.087330
C76   C     C_R   0.856053 0.304878 0.806136 0.028662
C77   C     C_1   0.839763 0.316150 0.763327 -0.024418
C78   C     C_1   0.827536 0.326254 0.727481 -0.023303
C79   C     C_R   0.911263 0.283562 0.889373 0.034226
C80   C     C_R   0.376733 0.756014 0.601717 0.016657
C81   C     C_R   0.279150 0.799240 0.617755 -0.135513
C82   C     C_R   0.268447 0.831092 0.658750 -0.124476
C83   C     C_R   0.288573 0.449011 0.371920 -0.126349
C84   C     C_R   0.355130 0.819321 0.684121 0.036195
C85   C     C_R   0.217795 0.388934 0.164736 -0.106558
C86   C     C_R   0.451121 0.782290 0.667986 -0.114050
C87   C     C_R   0.461853 0.751382 0.626935 -0.130310
C88   C     C_R   0.383599 0.905922 0.830657 -0.131666
C89   C     C_R   0.364981 0.930764 0.871473 -0.179550
C90   C     C_R   0.236304 0.870119 0.863290 0.266928
C91   C     C_R   0.258725 0.842309 0.822226 -0.109261
C92   C     C_R   0.328703 0.864198 0.805840 -0.001518
C93   C     C_1   0.340077 0.848722 0.763070 -0.027741
C94   C     C_1   0.347405 0.836580 0.727074 -0.031579
C95   C     C_R   0.268982 0.437291 0.330327 -0.109404
C96   C     C_R   0.309610 0.324483 0.186492 0.042933
C97   C     C_R   0.289374 0.916299 0.888052 0.033267
C98   C     C_R   0.963069 0.264289 0.045534 0.545041
C99   C     C_R   0.272674 0.259194 0.060143 0.544668
C100  C     C_R   0.259301 0.959739 0.043781 0.548066
C101  C     C_R   0.961916 0.267830 0.930835 0.538880
C102  C     C_R   0.270756 0.263968 0.945367 0.544776
C103  C     C_R   0.255916 0.965222 0.928800 0.566142
C104  C     C_3   0.655322 0.235197 0.308024 -0.000624
C105  C     C_3   0.643546 0.157100 0.277164 -0.355291
C106  C     C_3   0.909868 0.105424 0.073924 -0.377032
Cr1   Cr    Cr6+3 0.576280 0.580550 0.506370 1.012681
Cr2   Cr    Cr6+3 0.346780 0.572400 0.496520 1.014490
Cr3   Cr    Cr6+3 0.576960 0.347070 0.497150 1.007862
Cr4   Cr    Cr6+3 0.087320 0.083240 0.984860 1.011806
Cr5   Cr    Cr6+3 0.087720 0.316210 0.996740 1.006985
Cr6   Cr    Cr6+3 0.317350 0.090340 0.995890 1.009283
H1    H     H_    0.450151 0.169940 0.109281 0.127224
H2    H     H_    0.465982 0.198826 0.182848 0.108256
H3    H     H_    0.207868 0.815476 0.324831 0.139855
H4    H     H_    0.214105 0.803256 0.146657 0.135444
H5    H     H_    0.427619 0.934356 0.093911 0.130080
H6    H     H_    0.465205 0.879160 0.162618 0.131932
H7    H     H_    0.257232 0.533069 0.593999 0.146320
H8    H     H_    0.131746 0.428188 0.902339 0.130133
H9    H     H_    0.429736 0.192854 0.654800 0.138440
H10   H     H_    0.447372 0.183677 0.314335 0.114112
H11   H     H_    0.148788 0.461602 0.834448 0.132756
H12   H     H_    0.722388 0.243461 0.397964 0.140910
H13   H     H_    0.449906 0.184100 0.907229 0.127882
H14   H     H_    0.466980 0.217346 0.839457 0.132982
H15   H     H_    0.991499 0.118860 0.872192 0.134107
H16   H     H_    0.942831 0.138093 0.800129 0.108448
H17   H     H_    0.798349 0.200866 0.669137 0.111538
H18   H     H_    0.747875 0.235996 0.597716 0.124938
H19   H     H_    0.768721 0.519948 0.619548 0.129912
H20   H     H_    0.772538 0.468590 0.821233 0.110489
H21   H     H_    0.484425 0.204282 0.387294 0.128423
H22   H     H_    0.819284 0.483443 0.690905 0.117209
H23   H     H_    0.882047 0.440817 0.092827 0.133780
H24   H     H_    0.405992 0.966914 0.889520 0.141137
H25   H     H_    0.438571 0.922321 0.818195 0.127080
H26   H     H_    0.518612 0.773047 0.687431 0.111591
H27   H     H_    0.538177 0.717918 0.615584 0.128760
H28   H     H_    0.212273 0.803737 0.599113 0.130686
H29   H     H_    0.220083 0.805960 0.802720 0.093729
H30   H     H_    0.193672 0.860191 0.671006 0.108807
H31   H     H_    0.245652 0.524747 0.387091 0.131266
H32   H     H_    0.151975 0.448199 0.180353 0.117230
H33   H     H_    0.134719 0.420486 0.106768 0.128494
H34   H     H_    0.841006 0.462316 0.341198 0.141502
H35   H     H_    0.211327 0.503414 0.314246 0.118046
H36   H     H_    0.793398 0.497261 0.410921 0.141527
H37   H     H_    0.626562 0.308945 0.292901 0.141098
H38   H     H_    0.606543 0.249111 0.333523 0.130608
H39   H     H_    0.665950 0.084284 0.291697 0.155116
H40   H     H_    0.561746 0.189306 0.264717 0.093275
H41   H     H_    0.693721 0.139792 0.251868 0.184277
H42   H     H_    0.994516 0.055606 0.071545 0.171714
H43   H     H_    0.881603 0.061403 0.089182 0.106871
H44   H     H_    0.869090 0.120529 0.043347 0.138329
H45   H     H_    0.825967 0.465418 0.160152 0.138966
H46   H     H_    0.604982 0.771368 0.365654 0.111938
H47   H     H_    0.572989 0.733957 0.315420 0.163784
H48   H     H_    0.519314 0.870188 0.332594 0.158174
H49   H     H_    0.503262 0.104389 0.595053 0.114676
H50   H     H_    0.456637 0.168593 0.548706 0.146256
H51   H     H_    0.565481 0.171713 0.579243 0.155478
H52   H     H_    0.278537 0.627514 0.660396 0.132914
H53   H     H_    0.328192 0.544613 0.702685 0.139583
H54   H     H_    0.162029 0.654018 0.735655 0.179144
H55   H     H_    0.226429 0.726635 0.726715 0.095251
H56   H     H_    0.849557 0.161582 0.149247 0.132597
H57   H     H_    0.115184 0.738683 0.694155 0.150068
H58   H     H_    0.742761 0.547731 0.886904 0.115820
H59   H     H_    0.771925 0.469058 0.928797 0.140230
H60   H     H_    0.868319 0.499018 0.913318 0.155224
H61   H     H_    0.085248 0.809030 0.833951 0.130750
H62   H     H_    0.051720 0.945303 0.838489 0.106176
H63   H     H_    0.975286 0.965820 0.903822 0.164245
H64   H     H_    0.914727 0.919316 0.862643 0.088803
H65   H     H_    0.006673 0.830658 0.898787 0.158830
H66   H     H_    0.219504 0.768448 0.393437 0.135186
H67   H     H_    0.522291 0.747405 0.414594 0.129885
H68   H     H_    0.176085 0.859004 0.077897 0.126088
N1    N     N_R   0.807138 0.408095 0.226746 -0.232546
N2    N     N_R   0.407403 0.856827 0.269556 -0.238314
N3    N     N_R   0.404565 0.862479 0.229846 -0.234203
N4    N     N_R   0.229929 0.416710 0.765957 -0.246529
N5    N     N_R   0.232537 0.418678 0.726302 -0.166537
N6    N     N_R   0.399949 0.278462 0.728521 -0.249253
N7    N     N_R   0.397396 0.276556 0.768146 -0.238350
N8    N     N_R   0.802392 0.412178 0.266539 -0.245807
N9    N     N_R   0.835358 0.240119 0.261913 -0.162920
N10   N     N_R   0.839945 0.236056 0.222116 -0.243240
N11   N     N_R   0.298717 0.783713 0.219217 -0.230257
N12   N     N_R   0.301933 0.777751 0.258919 -0.229946
O1    O     O_R   0.679450 0.499830 0.463150 -0.514554
O2    O     O_R   0.340240 0.172500 0.045430 -0.519602
O3    O     O_R   0.309670 0.000990 0.032050 -0.501531
O4    O     O_R   0.480650 0.664000 0.464630 -0.503447
O5    O     O_R   0.168330 0.982130 0.939200 -0.465289
O6    O     O_R   0.000140 0.178170 0.944610 -0.510981
O7    O     O_R   0.983010 0.336750 0.948660 -0.518135
O8    O     O_R   0.181800 0.312190 0.959860 -0.501817
O9    O     O_R   0.338500 0.175680 0.956950 -0.522000
O10   O     O_R   0.308050 0.003930 0.950020 -0.516046
O11   O     O_3   0.164130 0.163270 0.992500 -0.238176
O12   O     O_R   0.356040 0.477400 0.534170 -0.505184
O13   O     O_R   0.323930 0.675950 0.455370 -0.517876
O14   O     O_R   0.354700 0.475360 0.451930 -0.500840
O15   O     O_R   0.494470 0.320860 0.448390 -0.521452
O16   O     O_R   0.662580 0.357570 0.460050 -0.504119
O17   O     O_R   0.680900 0.502040 0.551870 -0.519659
O18   O     O_R   0.481990 0.666040 0.546870 -0.502666
O19   O     O_R   0.325370 0.678160 0.544080 -0.519665
O20   O     O_3   0.760694 0.195220 0.322086 -0.540378
O21   O     O_3   0.204531 0.540504 0.666354 -0.540317
O22   O     O_3   0.167397 0.848954 0.880553 -0.537236
O23   O     O_R   0.495910 0.323070 0.537100 -0.517425
O24   O     O_R   0.663920 0.359620 0.542290 -0.501872
O25   O     O_3   0.500010 0.500010 0.500010 -0.236767
O26   O     O_R   0.170070 0.978950 0.027680 -0.525451
O27   O     O_R   0.001760 0.175230 0.026640 -0.504832
O28   O     O_R   0.984760 0.333570 0.037150 -0.523750
O29   O     O_R   0.183410 0.309240 0.041890 -0.500652

loop_
_geom_bond_atom_site_label_1
_geom_bond_atom_site_label_2
_ccdc_geom_bond_type
C58   C62   A    
C81   H28   S    
C105  H41   S    
C6    H54   S    
C16   C21   S    
C12   C74   A    
C4    C53   S    
Cr4   O6    S    
C74   H33   S    
Cr6   O10   S    
C82   H30   S    
C17   O20   S    
C41   H21   S    
C81   C82   A    
C19   C95   A    
C57   C62   A    
C7    C73   S    
Cr1   O18   S    
C77   C78   T    
N4    N5    A    
C25   C28   A    
C67   C78   S    
C99   O2    A    
C26   H56   S    
C59   C64   S    
C93   C94   T    
C11   C71   S    
C13   C18   A    
C33   C38   S    
C99   O29   A    
C22   C24   A    
C35   O18   A    
C84   C86   A    
C69   H18   S    
C80   C87   A    
C98   O28   A    
C20   N10   A    
C5    C6    S    
C23   O16   A    
C85   C96   A    
C8    H62   S    
C70   H16   S    
C15   C16   A    
C37   N3    A    
C49   O21   S    
C35   C80   S    
C56   C57   A    
C13   C23   S    
C9    H64   S    
C103  O5    A    
C55   N6    A    
C104  H38   S    
C60   H14   S    
Cr3   O15   S    
C35   O19   A    
N2    N3    A    
C104  C105  S    
C12   C99   S    
C14   C15   A    
C13   C14   A    
Cr5   O7    S    
C66   H22   S    
C88   C92   A    
C16   C17   A    
C106  H42   S    
C47   O23   A    
C3    H46   S    
C30   C41   A    
C9    H63   S    
C11   O14   A    
C5    H53   S    
C1    O13   A    
C90   C97   A    
C41   C71   A    
Cr3   O24   S    
C55   N5    A    
C66   C67   A    
C100  O26   A    
C74   C85   A    
C89   H24   S    
Cr1   O25   S    
C98   O27   A    
Cr4   O5    S    
C3    H47   S    
C73   C75   A    
N9    N10   A    
C36   H67   S    
C11   O15   A    
Cr6   O9    S    
C85   H32   S    
Cr1   O4    S    
C65   H19   S    
N1    N8    A    
C25   C106  S    
C50   C51   A    
C48   H7    S    
C71   C83   A    
C40   H68   S    
C40   C45   A    
C105  H39   S    
C46   C48   A    
C31   H66   S    
C67   C68   A    
C56   H11   S    
C30   H10   S    
C1    O4    A    
C95   H35   S    
C76   C77   S    
Cr2   O14   S    
Cr5   O11   S    
C91   C92   A    
C12   C63   A    
C59   O24   A    
C68   C69   A    
C14   H36   S    
C72   H15   S    
C3    C34   S    
Cr3   O23   S    
C25   C26   A    
C45   C100  S    
N11   N12   A    
C54   N4    A    
C89   C97   A    
C60   C61   A    
C51   C53   A    
C42   C45   A    
C104  H37   S    
Cr3   O16   S    
C75   C76   A    
C5    H52   S    
Cr6   O3    S    
C102  O8    A    
Cr5   O8    S    
Cr4   O11   S    
C21   N9    A    
C31   C32   A    
C29   C36   A    
C10   C19   S    
C83   C95   A    
C23   O1    A    
C1    C29   S    
C17   C18   A    
C8    C9    S    
C4    H51   S    
C84   C94   S    
C64   C69   A    
Cr4   O27   S    
Cr6   O2    S    
C97   C103  S    
C57   H8    S    
Cr2   O25   S    
C24   H23   S    
C48   C49   A    
C20   C27   S    
C65   C66   A    
C82   C84   A    
C22   C27   A    
C43   C44   A    
C26   C27   A    
C3    H48   S    
C51   H9    S    
C4    H50   S    
C80   C81   A    
Cr5   O28   S    
C104  O20   S    
C2    C10   T    
C90   O22   S    
Cr2   O19   S    
C9    H65   S    
C75   H20   S    
C86   C87   A    
C21   N8    A    
C100  O3    A    
C28   C98   S    
C105  H40   S    
C6    H55   S    
Cr1   O1    S    
C37   N11   A    
C8    H61   S    
C102  O9    A    
C106  H43   S    
C24   C28   A    
C106  H44   S    
C87   H27   S    
Cr2   O13   S    
C73   C79   A    
C52   C63   A    
C15   H34   S    
C101  O7    A    
C42   H5    S    
C39   C44   A    
Cr1   O17   S    
C54   C61   S    
C52   H2    S    
C72   C79   A    
C38   N12   A    
C50   C55   S    
C38   N2    A    
C54   N7    A    
C32   C33   A    
C37   C44   S    
C101  O6    A    
N6    N7    A    
C103  O10   A    
Cr2   O12   S    
C64   C65   A    
C70   C76   A    
C90   C91   A    
C22   H45   S    
C39   H4    S    
C5    O21   S    
C46   C53   A    
C2    C96   S    
C92   C93   S    
C33   C34   A    
C47   O12   A    
C52   C96   A    
C34   C36   A    
C4    H49   S    
C32   H3    S    
C68   H17   S    
Cr4   O26   S    
C88   H25   S    
C46   C47   S    
Cr3   O25   S    
C86   H26   S    
C43   H6    S    
C63   H1    S    
Cr5   O29   S    
C39   C40   A    
C88   C89   A    
C58   H13   S    
C29   C31   A    
C49   C50   A    
C42   C43   A    
C7    H58   S    
C56   C61   A    
C79   C101  S    
C83   H31   S    
C70   C72   A    
Cr6   O11   S    
C91   H29   S    
C7    H59   S    
C7    H60   S    
C19   C30   A    
C58   C60   A    
C8    O22   S    
C59   O17   A    
C18   H12   S    
C20   N1    A    
C62   C102  S    
C6    H57   S    
