data_mof_unit_48771.cif
_audit_creation_date              2012-12-11T21:01:27-0500
_audit_creation_method            fapswitch 2.2
_symmetry_space_group_name_H-M    P1
_symmetry_Int_Tables_number       1
_space_group_crystal_system       triclinic
_cell_length_a                    8.503384
_cell_length_b                    18.770156
_cell_length_c                    22.821465
_cell_angle_alpha                 100.636614
_cell_angle_beta                  90.48116
_cell_angle_gamma                 91.581148
_cell_volume                      3578.24256487

loop_
_atom_site_label
_atom_site_type_symbol
_atom_type_description
_atom_site_fract_x
_atom_site_fract_y
_atom_site_fract_z
_atom_type_partial_charge
Ba1   Ba    Ba6+2 0.157800 0.534120 0.474430 1.718856
Ba2   Ba    Ba6+2 0.652390 0.465870 0.525520 1.682133
C1    C     C_3   0.463120 0.760905 0.272971 -0.334202
C2    C     C_3   0.446645 0.710707 0.319200 0.390431
C3    C     C_3   0.552663 0.687023 0.697996 0.229586
C4    C     C_3   0.532033 0.695013 0.765080 -0.385938
C5    C     C_3   0.949515 0.283426 0.649141 0.427908
C6    C     C_3   0.030602 0.226693 0.678119 -0.327490
C7    C     C_3   0.463830 0.291955 0.678907 0.497421
C8    C     C_3   0.497613 0.252534 0.732719 0.163989
C9    C     C_R   0.998450 0.949773 0.522981 0.016042
C10   C     C_R   0.089984 0.901651 0.549087 -0.034929
C11   C     C_R   0.244531 0.924236 0.570988 -0.035630
C12   C     C_3   0.999305 0.723480 0.350029 0.163158
C13   C     C_R   0.301006 0.994549 0.567671 -0.077135
C14   C     C_R   0.208907 0.042936 0.543621 -0.002610
C15   C     C_R   0.057781 0.020746 0.520896 0.033099
C16   C     C_R   0.266516 0.113626 0.542936 -0.117874
C17   C     C_R   0.172649 0.164975 0.522417 -0.031163
C18   C     C_R   0.022704 0.142011 0.496894 0.034899
C19   C     C_R   0.965983 0.069714 0.496320 0.014297
C20   C     C_R   0.221640 0.238967 0.528171 0.038487
C21   C     C_R   0.121716 0.287893 0.508314 -0.232401
C22   C     C_R   0.982194 0.264947 0.476869 0.009751
C23   C     C_3   0.992886 0.800503 0.332832 0.147896
C24   C     C_R   0.928998 0.191116 0.472174 -0.052733
C25   C     C_R   0.846412 0.927494 0.499803 0.021863
C26   C     C_R   0.785496 0.856515 0.501424 0.012294
C27   C     C_R   0.878087 0.807196 0.525998 -0.044251
C28   C     C_R   0.023833 0.832820 0.553025 -0.038522
C29   C     C_R   0.783283 0.165077 0.445548 -0.035047
C30   C     C_R   0.724698 0.094889 0.446879 0.049408
C31   C     C_R   0.815820 0.046856 0.472452 0.011970
C32   C     C_R   0.755776 0.976123 0.474368 0.037849
C33   C     C_R   0.574010 0.072545 0.423859 -0.026837
C34   C     C_3   0.757319 0.284059 0.333896 0.126021
C35   C     C_R   0.513757 0.003225 0.426461 -0.078126
C36   C     C_R   0.603818 0.954545 0.451416 0.030873
C37   C     C_R   0.631821 0.835248 0.478663 -0.056418
C38   C     C_R   0.542752 0.885174 0.454309 -0.102438
C39   C     C_R   0.568796 0.765899 0.483434 0.113359
C40   C     C_R   0.654585 0.721708 0.514869 -0.196436
C41   C     C_R   0.817537 0.735454 0.526584 -0.012658
C42   C     C_R   0.652861 0.512646 0.333220 -0.350573
C43   C     C_R   0.356312 0.555158 0.950625 -0.023945
C44   C     C_R   0.311915 0.552888 0.890526 0.592852
C45   C     C_3   0.716164 0.313737 0.277265 -0.160233
C46   C     C_R   0.282724 0.423099 0.874816 0.622596
C47   C     C_R   0.338188 0.423108 0.933442 -0.020550
C48   C     C_R   0.372738 0.489729 0.971760 -0.051694
C49   C     C_R   0.384740 0.621360 0.990084 -0.070905
C50   C     C_R   0.427464 0.622635 0.049509 -0.070812
C51   C     C_R   0.447860 0.557740 0.070858 -0.022182
C52   C     C_R   0.423045 0.491013 0.031577 -0.051810
C53   C     C_R   0.360251 0.358210 0.954685 -0.073496
C54   C     C_R   0.416832 0.359449 0.012663 -0.056483
C55   C     C_R   0.448034 0.425643 0.051899 -0.027505
C56   C     C_3   0.007726 0.643385 0.662949 0.303864
C57   C     C_R   0.503394 0.428180 0.110958 0.582547
C58   C     C_R   0.491742 0.558095 0.130672 0.580821
C59   C     C_2   0.079281 0.471488 0.772746 -0.063145
C60   C     C_3   0.029052 0.481839 0.710869 0.003208
C61   C     C_1   0.304475 0.511829 0.693502 -0.007918
C62   C     C_2   0.349057 0.506174 0.748333 -0.111100
C63   C     C_2   0.230247 0.486725 0.791618 0.241319
C64   C     C_R   0.721772 0.523042 0.232000 0.068690
C65   C     C_R   0.761627 0.532324 0.292971 0.000398
C66   C     C_R   0.502209 0.485034 0.314343 0.043505
C67   C     C_3   0.018743 0.682033 0.728147 -0.158651
C68   C     C_R   0.460512 0.476361 0.253245 0.075386
C69   C     C_R   0.569237 0.496447 0.211783 0.205497
C70   C     C_2   0.167944 0.484245 0.670307 -0.282599
C71   C     C_3   0.293073 0.300988 0.363714 0.262807
C72   C     C_3   0.288046 0.226803 0.319857 -0.043495
H1    H     H_    0.624818 0.278189 0.250337 0.146844
H2    H     H_    0.665283 0.367417 0.290694 0.002769
H3    H     H_    0.126749 0.632817 0.644910 0.066471
H4    H     H_    0.937093 0.592110 0.659104 0.013113
H5    H     H_    0.086715 0.734229 0.731315 0.118747
H6    H     H_    0.898239 0.694826 0.744525 0.101621
H7    H     H_    0.173962 0.323593 0.368934 0.069578
H8    H     H_    0.349267 0.768500 0.252162 0.131127
H9    H     H_    0.411413 0.211228 0.309332 0.134274
H10   H     H_    0.541713 0.738932 0.235769 0.129713
H11   H     H_    0.661307 0.658091 0.683802 0.050117
H12   H     H_    0.571650 0.742244 0.687892 0.076807
H13   H     H_    0.517898 0.641115 0.777800 0.122594
H14   H     H_    0.637304 0.723190 0.788675 0.091611
H15   H     H_    0.427627 0.727749 0.779288 0.140500
H16   H     H_    0.509297 0.815400 0.294736 0.132197
H17   H     H_    0.043332 0.312459 0.628406 0.007025
H18   H     H_    0.949899 0.180963 0.683372 0.100799
H19   H     H_    0.128689 0.203453 0.649804 0.104880
H20   H     H_    0.076236 0.252140 0.722978 0.176740
H21   H     H_    0.558958 0.332416 0.676001 0.101064
H22   H     H_    0.117983 0.713232 0.364195 0.087704
H23   H     H_    0.418611 0.011981 0.583976 0.126889
H24   H     H_    0.158268 0.344492 0.514401 0.061966
H25   H     H_    0.384473 0.127988 0.559527 0.131017
H26   H     H_    0.083365 0.800110 0.579458 0.089820
H27   H     H_    0.710130 0.199202 0.424889 0.069200
H28   H     H_    0.501764 0.109100 0.404484 0.086357
H29   H     H_    0.396362 0.987705 0.408974 0.110750
H30   H     H_    0.423089 0.871716 0.439286 0.093638
H31   H     H_    0.925928 0.722775 0.389739 0.095730
H32   H     H_    0.434000 0.308269 0.026958 0.136906
H33   H     H_    0.335932 0.306113 0.926198 0.115238
H34   H     H_    0.446339 0.674783 0.078573 0.128143
H35   H     H_    0.372271 0.672562 0.975299 0.128122
H36   H     H_    0.471650 0.514292 0.761957 0.119289
H37   H     H_    0.990769 0.459201 0.803714 0.098223
H38   H     H_    0.153013 0.466371 0.622486 0.059413
H39   H     H_    0.648263 0.284795 0.359373 0.074663
N1    N     N_R   0.275571 0.487357 0.853328 -0.421561
N2    N     N_R   0.521645 0.493940 0.149974 -0.431190
O1    O     O_2   0.110690 0.676100 0.539200 -0.415137
O2    O     O_3   0.396963 0.346096 0.339197 -0.650725
O3    O     O_3   0.953771 0.668210 0.301717 -0.634616
O4    O     O_2   0.699610 0.323860 0.460780 -0.486421
O5    O     O_3   0.947090 0.413280 0.465240 -0.466270
O6    O     O_3   0.442000 0.370930 0.567190 -0.489681
O7    O     O_3   0.877853 0.328577 0.365894 -0.686220
O8    O     O_3   0.359410 0.538600 0.570730 -0.419522
O9    O     O_3   0.850780 0.407910 0.598320 -0.496010
O10   O     O_2   0.706878 0.447393 0.700203 -0.457049
O11   O     O_3   0.867991 0.331051 0.693203 -0.603309
O12   O     O_3   0.863220 0.586720 0.534720 -0.478846
O13   O     O_3   0.450900 0.461390 0.429220 -0.475750
O14   O     O_2   0.599830 0.538970 0.641850 -0.484193
O15   O     O_3   0.415578 0.656619 0.666770 -0.613978
O16   O     O_2   0.541052 0.241503 0.517076 -0.497866
O17   O     O_3   0.461084 0.240255 0.625589 -0.619418
O18   O     O_2   0.304187 0.609376 0.871433 -0.614905
O19   O     O_2   0.241263 0.365954 0.842905 -0.604674
O20   O     O_2   0.535520 0.371996 0.127605 -0.569427
O21   O     O_2   0.503152 0.615642 0.165749 -0.615797
O22   O     O_3   0.368310 0.629070 0.432760 -0.408544
O23   O     O_2   0.241713 0.755905 0.471907 -0.518763
O24   O     O_3   0.929942 0.690471 0.633145 -0.681789
O25   O     O_3   0.376777 0.752837 0.370229 -0.655800
O26   O     O_2   0.210480 0.460990 0.358130 -0.449743
O27   O     O_3   0.959520 0.592090 0.401630 -0.471894
O28   O     O_2   0.088919 0.542548 0.295283 -0.476328
P1    P     P_3+3 0.935930 0.665430 0.555670 0.993237
P2    P     P_3+3 0.382700 0.439650 0.365620 1.020863
P3    P     P_3+3 0.944427 0.582681 0.323418 1.010719
P4    P     P_3+3 0.874370 0.334570 0.444280 0.938385
P5    P     P_3+3 0.866463 0.418403 0.675802 0.968356
P6    P     P_3+3 0.390130 0.724206 0.439772 1.033494
P7    P     P_3+3 0.421502 0.561483 0.646151 0.973643
P8    P     P_3+3 0.415324 0.275637 0.560912 0.907310
N3    N     N_3   0.347422 0.647744 0.293652 -0.484308
H40   H     H_    0.242636 0.664132 0.277015 0.197862
H41   H     H_    0.320683 0.618304 0.326876 0.205314
C73   C     C_2   0.856383 0.323475 0.239727 0.519134
H42   H     H_    0.950667 0.361769 0.257505 0.003977
O29   O     O_2   0.864265 0.289437 0.188874 -0.516055
N4    N     N_3   0.092147 0.637536 0.765762 -0.524324
H43   H     H_    0.213454 0.641733 0.760404 0.203687
H44   H     H_    0.070692 0.660782 0.810123 0.227111
N5    N     N_3   0.353767 0.290851 0.421355 -0.547033
H45   H     H_    0.452932 0.259052 0.415436 0.176446
H46   H     H_    0.385939 0.340737 0.447474 0.226294
N6    N     N_3   0.208157 0.231849 0.263856 -0.421770
H47   H     H_    0.270964 0.268631 0.242999 0.215049
H48   H     H_    0.097077 0.252677 0.273412 0.159602
C74   C     C_2   0.214562 0.166010 0.345863 0.531821
H49   H     H_    0.162904 0.176355 0.389577 -0.069627
O30   O     O_2   0.213439 0.103959 0.317796 -0.494617
C75   C     C_2   0.607343 0.684116 0.327895 0.412245
H50   H     H_    0.673360 0.664474 0.288304 0.036826
O31   O     O_2   0.663640 0.681629 0.376419 -0.643094
N7    N     N_3   0.830461 0.822764 0.329207 -0.439052
H51   H     H_    0.771352 0.817194 0.368062 0.181833
H52   H     H_    0.774636 0.789194 0.293102 0.154650
N8    N     N_3   0.841538 0.246345 0.602319 -0.506894
H53   H     H_    0.775416 0.284248 0.585840 0.230657
H54   H     H_    0.761739 0.212830 0.619696 0.213413
N9    N     N_3   0.312668 0.327347 0.687496 -0.522415
H55   H     H_    0.306418 0.364857 0.659525 0.126344
H56   H     H_    0.307510 0.356989 0.730656 0.202817
C76   C     C_2   0.544142 0.306104 0.789270 0.515565
H57   H     H_    0.553620 0.286864 0.831150 0.001870
O32   O     O_2   0.574574 0.369952 0.788786 -0.588158
N10   N     N_3   0.625096 0.201354 0.717742 -0.500041
H58   H     H_    0.622946 0.163809 0.746415 0.167790
H59   H     H_    0.732496 0.229375 0.726492 0.188860
N11   N     N_3   0.354800 0.211959 0.744647 -0.492105
H60   H     H_    0.335451 0.168205 0.709395 0.210020
H61   H     H_    0.371368 0.189561 0.782907 0.164830
C77   C     C_2   0.352776 0.875513 0.595575 0.446723
H62   H     H_    0.329767 0.817718 0.589541 0.050842
O33   O     O_2   0.473284 0.899598 0.622443 -0.588191
C78   C     C_2   0.564984 0.670562 0.545167 0.523366
H63   H     H_    0.619521 0.627862 0.562467 0.045933
O34   O     O_2   0.425812 0.679294 0.555398 -0.544241
N12   N     N_3   0.836862 0.541037 0.191140 -0.470185
H64   H     H_    0.797122 0.584074 0.172421 0.207112
H65   H     H_    0.849043 0.496035 0.157055 0.185837
N13   N     N_3   0.309151 0.445209 0.233426 -0.453089
H66   H     H_    0.255988 0.478270 0.207290 0.207153
H67   H     H_    0.324610 0.394325 0.206983 0.197948
C79   C     C_2   0.703333 0.516218 0.394955 0.619632
H68   H     H_    0.781874 0.476206 0.405566 0.021562
O35   O     O_2   0.661620 0.565428 0.433800 -0.543628
N14   N     N_3   0.075368 0.854666 0.378169 -0.446179
H69   H     H_    0.196833 0.850915 0.373291 0.206633
H70   H     H_    0.049140 0.844518 0.420488 0.166419
C80   C     C_2   0.065178 0.801465 0.272652 0.584910
H71   H     H_    0.071366 0.752038 0.239620 -0.009088
O36   O     O_2   0.107782 0.858765 0.258849 -0.513910
C81   C     C_2   0.807659 0.206914 0.317432 0.464463
H72   H     H_    0.920054 0.191586 0.332418 -0.007349
O37   O     O_2   0.719864 0.160389 0.288877 -0.544587

loop_
_geom_bond_atom_site_label_1
_geom_bond_atom_site_label_2
_ccdc_geom_bond_type
C56   O24   S    
O28   P3    D    
C78   O34   D    
C79   H68   S    
C70   H38   S    
C73   O29   D    
C63   N1    S    
O27   P3    S    
Ba1   P2    S    
C17   C18   A    
Ba1   O13   S    
C72   H9    S    
C53   C54   A    
C33   H28   S    
Ba1   O26   S    
Ba2   O14   S    
Ba1   O8    S    
N5    H45   S    
C5    C6    S    
C37   C39   A    
C51   C52   A    
C10   C11   A    
C79   O35   D    
C48   C52   A    
C2    C75   S    
C1    H16   S    
C38   H30   S    
C29   H27   S    
N11   H61   S    
C26   C27   A    
C33   C35   A    
C35   C36   A    
C22   C24   A    
C45   H2    S    
Ba1   Ba2   S    
C3    C4    S    
N14   H70   S    
O13   P2    S    
N10   H59   S    
C39   P6    S    
C75   H50   S    
C43   C49   A    
O4    P4    D    
C13   C14   A    
C28   H26   S    
C8    N10   S    
C4    H14   S    
C54   C55   A    
C34   C45   S    
O2    P2    S    
C16   C17   A    
C39   C40   A    
C71   H7    S    
N12   H65   S    
C76   H57   S    
C1    H8    S    
C71   N5    S    
Ba1   O27   S    
C56   H3    S    
O1    P1    D    
O16   P8    D    
C12   H31   S    
C9    C15   A    
C64   C69   A    
C14   C15   A    
C12   O3    S    
O11   P5    S    
O15   P7    S    
C42   C79   S    
C8    N11   S    
C21   C22   A    
N8    H53   S    
C68   C69   A    
C6    H18   S    
Ba1   O1    S    
C7    C8    S    
C7    H21   S    
C7    N9    S    
O26   P2    D    
C58   N2    Am   
C3    H11   S    
Ba2   O12   S    
C5    O11   S    
N8    H54   S    
C64   C65   A    
O8    P7    S    
C24   C29   A    
C49   H35   S    
C60   P5    S    
C27   C41   A    
N4    H44   S    
O22   P6    S    
C41   P1    S    
C59   C60   S    
C13   H23   S    
C34   H39   S    
C12   H22   S    
C72   C74   S    
N5    H46   S    
C51   C58   A    
C80   H71   S    
N7    H52   S    
C25   C32   A    
C2    N3    S    
C71   O2    S    
C44   N1    Am   
C69   N2    S    
C49   C50   A    
C30   C33   A    
O3    P3    S    
C17   C20   A    
C6    H20   S    
C74   O30   D    
C74   H49   S    
C35   H29   S    
Ba2   O5    S    
N14   H69   S    
N13   H66   S    
C1    H10   S    
C26   C37   A    
Ba2   P4    S    
C47   C53   A    
C22   P4    S    
C15   C19   A    
C4    H13   S    
O6    P8    S    
C53   H33   S    
N11   H60   S    
Ba1   O5    S    
C34   O7    S    
C77   O33   D    
C61   P7    S    
C27   C28   A    
C23   N7    S    
C2    O25   S    
O9    P5    S    
O24   P1    S    
C62   H36   S    
C29   C30   A    
C9    C25   A    
C9    C10   A    
C5    H17   S    
C5    N8    S    
C65   P3    S    
C67   N4    S    
C60   C70   S    
C14   C16   A    
O7    P4    S    
N3    H40   S    
C23   C80   S    
C54   H32   S    
C34   C81   S    
C3    H12   S    
C66   C68   A    
C3    O15   S    
N3    H41   S    
C11   C13   A    
N4    H43   S    
C8    C76   S    
C42   C66   A    
C55   C57   A    
C40   C78   S    
C40   C41   A    
C23   N14   S    
C59   H37   S    
C71   C72   S    
C73   H42   S    
Ba1   O22   S    
C50   C51   A    
C46   N1    Am   
C7    O17   S    
C46   O19   D    
C77   H62   S    
C58   O21   D    
C20   P8    S    
N6    H47   S    
C68   N13   S    
C10   C28   A    
C32   C36   A    
C6    H19   S    
Ba1   O12   S    
C81   O37   D    
C42   C65   A    
O10   P5    D    
C43   C44   A    
Ba2   O4    S    
C56   C67   S    
Ba2   O6    S    
Ba2   O9    S    
N9    H55   S    
C4    H15   S    
C11   C77   S    
C62   C63   S    
C72   N6    S    
N6    H48   S    
C45   H1    S    
O14   P7    D    
C18   C24   A    
Ba1   P1    S    
C30   C31   A    
C44   O18   D    
C36   C38   A    
N10   H58   S    
C81   H72   S    
C45   C73   S    
C43   C48   A    
C46   C47   A    
C57   O20   D    
C61   C70   D    
C80   O36   D    
C31   C32   A    
C78   H63   S    
O12   P1    S    
C12   C23   S    
N12   H64   S    
C76   O32   D    
C64   N12   S    
C67   H5    S    
C56   H4    S    
N7    H51   S    
C61   C62   D    
C37   C38   A    
C59   C63   D    
O23   P6    D    
C21   H24   S    
C19   C31   A    
C18   C19   A    
C50   H34   S    
O5    P4    S    
C57   N2    Am   
C47   C48   A    
C16   H25   S    
C25   C26   A    
O17   P8    S    
C20   C21   A    
C67   H6    S    
C75   O31   D    
O25   P6    S    
N13   H67   S    
Ba2   O8    S    
C66   P2    S    
C1    C2    S    
N9    H56   S    
C52   C55   A    
Ba2   O13   S    
