data_mof_unit_50813.cif
_audit_creation_date              2012-12-11T17:43:35-0500
_audit_creation_method            fapswitch 2.2
_symmetry_space_group_name_H-M    P1
_symmetry_Int_Tables_number       1
_space_group_crystal_system       triclinic
_cell_length_a                    14.876263
_cell_length_b                    15.204072
_cell_length_c                    17.182194
_cell_angle_alpha                 110.063392
_cell_angle_beta                  106.498855
_cell_angle_gamma                 107.833541
_cell_volume                      3128.84299745

loop_
_atom_site_label
_atom_site_type_symbol
_atom_type_description
_atom_site_fract_x
_atom_site_fract_y
_atom_site_fract_z
_atom_type_partial_charge
Br1   Br    Br    0.053699 0.326262 0.449825 -0.567767
Br2   Br    Br    0.934571 0.765694 0.558410 -0.581664
Br3   Br    Br    0.800023 0.488897 0.668449 -0.616822
Br4   Br    Br    0.191558 0.597897 0.368964 -0.618146
C1    C     C_R   0.088527 0.291587 0.079384 -0.135094
C2    C     C_R   0.094538 0.099350 0.075258 -0.227180
C3    C     C_R   0.003683 0.926304 0.056321 0.073211
C4    C     C_R   0.005917 0.114752 0.069428 0.058773
C5    C     C_R   0.095542 0.007361 0.069872 0.031841
C6    C     C_R   0.920051 0.041691 0.069164 0.024961
C7    C     C_R   0.730559 0.001353 0.016237 -0.189584
C8    C     C_R   0.278077 0.045417 0.162625 -0.172623
C9    C     C_R   0.673941 0.115086 0.105866 -0.105163
C10   C     C_R   0.375228 0.973215 0.090647 -0.160688
C11   C     C_R   0.446734 0.409696 0.200631 0.624043
C12   C     C_R   0.908424 0.724112 0.970538 -0.100365
C13   C     C_R   0.571818 0.602525 0.739958 0.656911
C14   C     C_R   0.437318 0.425174 0.123410 -0.260448
C15   C     C_R   0.532805 0.519539 0.759331 -0.249090
C16   C     C_R   0.934837 0.508801 0.743292 0.296811
C17   C     C_R   0.061136 0.543938 0.265325 0.338202
C18   C     C_R   0.394727 0.339466 0.035346 0.033458
C19   C     C_R   0.515799 0.537516 0.838755 0.017836
C20   C     C_R   0.370474 0.239287 0.026229 -0.170035
C21   C     C_R   0.530793 0.637655 0.895334 -0.147976
C22   C     C_R   0.390346 0.225208 0.103619 -0.167429
C23   C     C_R   0.026664 0.555757 0.738587 0.005338
C24   C     C_R   0.559893 0.717720 0.872601 -0.152714
C25   C     C_R   0.426620 0.308286 0.190317 -0.312766
C26   C     C_R   0.581058 0.701580 0.796304 -0.324020
C27   C     C_R   0.469761 0.338506 0.928627 -0.213966
C28   C     C_R   0.370697 0.436992 0.858047 -0.209351
C29   C     C_R   0.523018 0.405860 0.901273 0.048999
C30   C     C_R   0.344849 0.408942 0.921203 0.043700
C31   C     C_R   0.468458 0.451763 0.858787 0.069638
C32   C     C_R   0.395089 0.356202 0.955981 0.070233
C33   C     C_R   0.650370 0.025864 0.027840 -0.118553
C34   C     C_R   0.966510 0.527761 0.270835 -0.003139
C35   C     C_R   0.368175 0.031439 0.169976 -0.157345
C36   C     C_R   0.954299 0.539837 0.352537 0.070952
C37   C     C_R   0.033270 0.550030 0.656428 0.066055
C38   C     C_R   0.031728 0.442496 0.515886 0.341406
C39   C     C_R   0.952265 0.646809 0.491593 0.329964
C40   C     C_R   0.775578 0.202764 0.812588 -0.119969
C41   C     C_R   0.283239 0.780404 0.175496 -0.158685
C42   C     C_R   0.051457 0.469173 0.606296 -0.227109
C43   C     C_R   0.940176 0.624025 0.402666 -0.185106
C44   C     C_R   0.000843 0.609561 0.620268 -0.151343
C45   C     C_R   0.758733 0.194750 0.726282 0.038394
C46   C     C_R   0.975788 0.474908 0.386884 -0.175572
C47   C     C_R   0.982801 0.586361 0.530200 0.026685
C48   C     C_R   0.995687 0.499840 0.476934 0.042618
C49   C     C_R   0.716295 0.097469 0.640272 0.128708
C50   C     C_R   0.451778 0.846096 0.318442 0.123906
C51   C     C_R   0.600171 0.016990 0.391397 -0.193453
C52   C     C_R   0.610777 0.909232 0.555810 -0.194997
C53   C     C_R   0.510583 0.934524 0.313883 -0.175313
C54   C     C_R   0.677501 0.999820 0.638781 -0.149113
C55   C     C_R   0.493352 0.833493 0.395872 -0.230520
C56   C     C_R   0.341608 0.775491 0.251062 0.041931
C57   C     C_R   0.701234 0.100881 0.556983 -0.246377
C58   C     C_R   0.580927 0.916053 0.474114 0.180748
C59   C     C_R   0.630810 0.011000 0.473683 0.180208
C60   C     C_R   0.777762 0.180124 0.172214 -0.099642
C61   C     C_R   0.292342 0.929558 0.003871 -0.121971
C62   C     C_R   0.858042 0.155762 0.160797 -0.101072
C63   C     C_R   0.202086 0.943592 0.996146 -0.135572
C64   C     C_R   0.258084 0.530685 0.948863 -0.124642
C65   C     C_R   0.696026 0.408224 0.992138 -0.120295
C66   C     C_R   0.834774 0.065794 0.082715 0.111703
C67   C     C_R   0.281537 0.451934 0.959142 0.055622
C68   C     C_R   0.193867 0.000095 0.075709 0.097010
C69   C     C_R   0.782632 0.294856 0.735322 -0.096811
C70   C     C_R   0.278655 0.685382 0.248057 -0.033624
C71   C     C_R   0.242118 0.429558 0.017755 -0.127462
C72   C     C_R   0.706232 0.503970 0.919057 -0.120459
C73   C     C_R   0.109303 0.588945 0.819500 -0.203698
C74   C     C_R   0.886723 0.460176 0.184628 -0.203673
C75   C     C_R   0.915439 0.204778 0.999544 -0.132779
C76   C     C_R   0.080589 0.802212 0.058424 -0.110137
C77   C     C_R   0.002345 0.200453 0.051090 0.061864
C78   C     C_R   0.637620 0.441104 0.938275 0.060026
C79   C     C_R   0.995126 0.821265 0.034966 0.031025
C80   C     C_3   0.442164 0.471182 0.343064 0.242396
C81   C     C_3   0.448187 0.568734 0.413886 -0.825789
C82   C     C_3   0.649460 0.670605 0.658291 0.219867
C83   C     C_3   0.693431 0.643180 0.588320 -0.710938
C84   C     C_R   0.917974 0.945609 0.058916 -0.222302
H1    H     H_    0.167168 0.320287 0.130535 0.101745
H2    H     H_    0.515119 0.652424 0.955267 0.126118
H3    H     H_    0.380276 0.149815 0.095488 0.185604
H4    H     H_    0.564559 0.792186 0.914041 0.134392
H5    H     H_    0.502427 0.292286 0.950893 0.125031
H6    H     H_    0.327658 0.469170 0.823758 0.137033
H7    H     H_    0.985829 0.410415 0.344622 0.176773
H8    H     H_    0.986524 0.670656 0.661965 0.181270
H9    H     H_    0.924152 0.673972 0.374121 0.167985
H10   H     H_    0.074932 0.422791 0.636003 0.166611
H11   H     H_    0.570105 0.976305 0.975978 0.107441
H12   H     H_    0.828079 0.709184 0.936232 0.107467
H13   H     H_    0.433005 0.067529 0.236991 0.130097
H14   H     H_    0.734989 0.174412 0.556359 0.135387
H15   H     H_    0.451521 0.765173 0.400576 0.137996
H16   H     H_    0.691391 0.993273 0.701310 0.110963
H17   H     H_    0.484187 0.942999 0.252823 0.116388
H18   H     H_    0.639821 0.088237 0.389075 0.139705
H19   H     H_    0.575101 0.835930 0.556572 0.127633
H20   H     H_    0.611868 0.134141 0.114628 0.110579
H21   H     H_    0.445156 0.962720 0.096406 0.118002
H22   H     H_    0.796039 0.249530 0.232338 0.123901
H23   H     H_    0.712669 0.934489 0.954304 0.114875
H24   H     H_    0.297979 0.884721 0.942652 0.117270
H25   H     H_    0.938244 0.207056 0.212474 0.146531
H26   H     H_    0.137629 0.908131 0.928855 0.129764
H27   H     H_    0.765402 0.140894 0.831297 0.093982
H28   H     H_    0.313500 0.830134 0.147954 0.122873
H29   H     H_    0.278593 0.568945 0.909789 0.093888
H30   H     H_    0.666634 0.348744 0.011370 0.091648
H31   H     H_    0.779263 0.315862 0.681594 0.151048
H32   H     H_    0.306981 0.644709 0.281348 0.129135
H33   H     H_    0.237857 0.367392 0.035000 0.120571
H34   H     H_    0.272946 0.089657 0.224419 0.136576
H35   H     H_    0.689488 0.531323 0.869738 0.124010
H36   H     H_    0.190901 0.638102 0.841089 0.121650
H37   H     H_    0.803513 0.425197 0.165414 0.134015
H38   H     H_    0.834183 0.151551 0.973682 0.109202
H39   H     H_    0.157814 0.854745 0.112616 0.136543
H40   H     H_    0.850205 0.886368 0.053869 0.136656
H41   H     H_    0.161942 0.156455 0.077840 0.139203
H42   H     H_    0.490175 0.442165 0.379972 0.115863
H43   H     H_    0.358279 0.411296 0.304793 0.098953
H44   H     H_    0.390530 0.590856 0.379669 0.261162
H45   H     H_    0.440618 0.293081 0.248589 0.126250
H46   H     H_    0.429692 0.553107 0.467458 0.244245
H47   H     H_    0.527625 0.634878 0.446747 0.248581
H48   H     H_    0.717075 0.733307 0.724975 0.100109
H49   H     H_    0.592791 0.699983 0.634406 0.090004
H50   H     H_    0.636974 0.566117 0.527533 0.261977
H51   H     H_    0.710033 0.704237 0.565786 0.216686
H52   H     H_    0.768078 0.640612 0.619734 0.281438
H53   H     H_    0.603882 0.767166 0.782445 0.107091
H54   H     H_    0.460873 0.503882 0.131591 0.151991
H55   H     H_    0.519781 0.441935 0.714602 0.163492
H56   H     H_    0.342511 0.173096 0.959789 0.137655
N1    N     N_R   0.055660 0.348550 0.045620 -0.042165
N2    N     N_R   0.185200 0.638170 0.176300 -0.048239
N3    N     N_R   0.201680 0.494570 0.045620 -0.046241
N4    N     N_R   0.798320 0.505430 0.954380 -0.043119
N5    N     N_R   0.068420 0.560530 0.871650 -0.053611
N6    N     N_R   0.931580 0.439470 0.128350 -0.056241
N7    N     N_R   0.948070 0.295860 0.997670 -0.041073
N8    N     N_R   0.051930 0.704140 0.002330 -0.045680
N9    N     N_R   0.944340 0.651450 0.954380 -0.038337
N10   N     N_R   0.960830 0.507850 0.823700 -0.071332
N11   N     N_R   0.039170 0.492150 0.176300 -0.075805
N12   N     N_R   0.811290 0.303410 0.871650 -0.044874
N13   N     N_R   0.188710 0.696590 0.128350 -0.046951
N14   N     N_R   0.205200 0.552990 0.997670 -0.040599
N15   N     N_R   0.794800 0.447010 0.002330 -0.042241
N16   N     N_R   0.814800 0.361830 0.823700 -0.037849
Ni1   Ni    Ni4+2 0.119340 0.493420 0.109960 0.231421
Ni2   Ni    Ni4+2 0.880660 0.506580 0.890040 0.259093
Ni3   Ni    Ni4+2 0.872590 0.372590 0.000000 0.213174
Ni4   Ni    Ni4+2 0.127410 0.627410 0.000000 0.212720
O1    O     O_3   0.482471 0.496969 0.284370 -0.637562
O2    O     O_3   0.597525 0.580635 0.665458 -0.612238

loop_
_geom_bond_atom_site_label_1
_geom_bond_atom_site_label_2
_ccdc_geom_bond_type
C40   C45   A    
C36   C43   A    
C25   H45   S    
C41   C56   A    
C69   H31   S    
C62   H25   S    
C10   H21   S    
C11   C14   A    
C28   H6    S    
C82   O2    S    
C5    C68   S    
C83   H52   S    
C45   C69   A    
C2    C5    A    
C7    C66   A    
C61   H24   S    
N2    N13   A    
C50   C56   S    
N11   Ni1   S    
C21   C24   A    
N6    Ni3   S    
C69   N16   A    
C6    C84   A    
C21   H2    S    
C26   H53   S    
C16   N10   A    
C18   C20   A    
C34   C36   S    
C63   H26   S    
C20   C22   A    
C13   O2    S    
C2    H41   S    
C81   H44   S    
C45   C49   S    
C46   H7    S    
C65   H30   S    
C7    C33   A    
C63   C68   A    
C38   C42   A    
C80   H42   S    
C57   C59   A    
C80   O1    S    
C82   H49   S    
C65   N15   A    
C10   C35   A    
C49   C57   A    
C10   C61   A    
C44   C47   A    
C17   C34   A    
C40   H27   S    
C61   C63   A    
C51   C59   A    
C46   C48   A    
C37   C42   A    
C27   C29   A    
C35   H13   S    
C65   C78   A    
N15   Ni3   S    
C29   C78   S    
C9    C33   A    
N14   Ni4   S    
C81   H46   S    
C42   H10   S    
C71   H33   S    
C13   C26   A    
C9    H20   S    
C64   N14   A    
N10   Ni2   S    
C11   C25   A    
C50   C55   A    
N2    Ni1   S    
C1    N1    A    
C53   H17   S    
C51   H18   S    
C7    H23   S    
C4    C77   S    
C40   N12   A    
C28   C31   A    
C14   H54   S    
C41   N13   A    
C80   C81   S    
N12   Ni3   S    
N3    Ni1   S    
C72   C78   A    
C75   C77   A    
C82   C83   S    
C12   H12   S    
C2    C4    A    
C34   C74   A    
C71   N3    A    
C22   H3    S    
C27   H5    S    
C12   C79   A    
C47   C48   A    
N4    N15   A    
C28   C30   A    
C15   C19   A    
N5    N10   A    
C52   H19   S    
C58   C59   A    
C64   H29   S    
C1    C77   A    
C23   C37   S    
C60   H22   S    
C3    C84   A    
N12   N16   A    
Br2   C39   S    
C17   N11   A    
Br3   C16   S    
C24   H4    S    
N5    Ni4   S    
N1    N7    A    
N13   Ni4   S    
N8    Ni4   S    
C81   H47   S    
C6    C66   S    
C82   H48   S    
C16   C23   A    
C75   H38   S    
N16   Ni2   S    
C19   C31   S    
N6    N11   A    
C51   C53   A    
C52   C58   A    
C54   H16   S    
C83   H50   S    
C73   N5    A    
C33   H11   S    
C18   C32   S    
C74   N6    A    
C75   N7    A    
C76   N8    A    
C55   C58   A    
C15   H55   S    
C44   H8    S    
C14   C18   A    
C72   H35   S    
C70   N2    A    
C83   H51   S    
C23   C73   A    
C49   C54   A    
C76   H39   S    
C70   H32   S    
C80   H43   S    
N7    Ni3   S    
C43   H9    S    
N9    Ni2   S    
N4    Ni2   S    
C8    C35   A    
C24   C26   A    
C57   H14   S    
C55   H15   S    
C84   H40   S    
C73   H36   S    
C67   C71   A    
Br4   C17   S    
N3    N14   A    
C41   H28   S    
C39   C47   A    
C3    C79   S    
C62   C66   A    
C9    C60   A    
N1    Ni1   S    
C20   H56   S    
C64   C67   A    
C36   C46   A    
C56   C70   A    
C76   C79   A    
C29   C31   A    
C37   C44   A    
C52   C54   A    
C30   C32   A    
C19   C21   A    
C8    C68   A    
C13   C15   A    
C3    C5    A    
Br1   C38   S    
C8    H34   S    
N8    N9    A    
C72   N4    A    
C22   C25   A    
C4    C6    A    
C38   C48   A    
C12   N9    A    
C27   C32   A    
C11   O1    S    
C74   H37   S    
C39   C43   A    
C30   C67   S    
C1    H1    S    
C60   C62   A    
C50   C53   A    
