data_mof_unit_17741.cif
_audit_creation_date              2013-03-05T15:41:09-0500
_audit_creation_method            fapswitch 2.2
_symmetry_space_group_name_H-M    P1
_symmetry_Int_Tables_number       1
_space_group_crystal_system       triclinic
_cell_length_a                    8.178617
_cell_length_b                    8.635466
_cell_length_c                    14.147579
_cell_angle_alpha                 100.017242
_cell_angle_beta                  82.108316
_cell_angle_gamma                 91.505056
_cell_volume                      974.635547299

loop_
_atom_site_label
_atom_site_type_symbol
_atom_site_description
_atom_site_fract_x
_atom_site_fract_y
_atom_site_fract_z
_atom_type_partial_charge
O1    O     O_R   0.389250 0.738570 0.505710 -0.635601
O2    O     O_R   0.610750 0.261430 0.494290 -0.635635
O3    O     O_R   0.678390 0.711630 0.490800 -0.638120
O4    O     O_R   0.321610 0.288370 0.509200 -0.638145
C1    C     C_R   0.542481 0.792990 0.498642 0.915551
C2    C     C_R   0.457519 0.207010 0.501357 0.915496
O5    O     O_R   0.355390 0.513480 0.633740 -0.615922
O6    O     O_R   0.644610 0.486520 0.366260 -0.616009
O7    O     O_R   0.644540 0.486530 0.618830 -0.604915
O8    O     O_R   0.355460 0.513470 0.381170 -0.605039
C3    C     C_R   0.495503 0.501440 0.670375 0.846789
C4    C     C_R   0.504494 0.498546 0.329623 0.846679
Zn1   Zn    Zn3+2 0.306930 0.517990 0.509950 0.912802
Zn2   Zn    Zn3+2 0.693070 0.482010 0.490050 0.912813
C5    C     C_1   0.487506 0.501848 0.772813 -0.180741
C6    C     C_1   0.512477 0.498095 0.227182 -0.180672
C7    C     C_1   0.488926 0.501507 0.858152 -0.013948
C8    C     C_1   0.511047 0.498412 0.141842 -0.013894
C9    C     C_1   0.496198 0.500483 0.957656 0.001067
C10   C     C_1   0.503771 0.499423 0.042336 0.001066
C11   C     C_2   0.565288 0.955318 0.497387 -0.375818
C12   C     C_2   0.434713 0.044681 0.502610 -0.375747
H1    H     H_    0.690850 0.001051 0.491841 0.191262
H2    H     H_    0.309151 0.998948 0.508155 0.191244
N1    N     N_2   0.950330 0.457950 0.476740 -0.103818
N2    N     N_2   0.049670 0.542050 0.523260 -0.103828
C13   C     C_R   0.998054 0.345530 0.383206 0.248191
C14   C     C_R   0.875291 0.271434 0.328012 -0.116770
C15   C     C_R   0.905874 0.196911 0.231144 -0.204823
C16   C     C_R   0.065876 0.174599 0.186091 -0.075143
C17   C     C_R   0.191564 0.214056 0.241574 -0.198487
C18   C     C_R   0.155817 0.288372 0.338435 -0.136432
H3    H     H_    0.752516 0.257160 0.356001 0.195919
H4    H     H_    0.804558 0.150722 0.192598 0.134155
H5    H     H_    0.091676 0.114862 0.111756 0.130620
H6    H     H_    0.317053 0.180054 0.211246 0.129759
H7    H     H_    0.256046 0.280940 0.372766 0.194550
C19   C     C_R   0.001937 0.654333 0.616829 0.248165
C20   C     C_R   0.124676 0.728322 0.672059 -0.116687
C21   C     C_R   0.094099 0.802165 0.769043 -0.204675
C22   C     C_R   0.934082 0.824087 0.814140 -0.075350
C23   C     C_R   0.808398 0.785107 0.758598 -0.198350
C24   C     C_R   0.844179 0.711409 0.661631 -0.136282
H8    H     H_    0.247374 0.742929 0.644019 0.195754
H9    H     H_    0.195399 0.848161 0.807652 0.134172
H10   H     H_    0.908264 0.883269 0.888576 0.130687
H11   H     H_    0.682912 0.819019 0.788980 0.129777
H12   H     H_    0.744055 0.719219 0.627260 0.194330

loop_
_geom_bond_atom_site_label_1
_geom_bond_atom_site_label_2
_geom_bond_distance
_ccdc_geom_bond_type
C22   H10   1.082660 S    
C20   H8    1.040066 S    
N1    C13   1.508986 S    
C15   C16   1.377426 A    
C24   H12   1.017452 S    
C17   C18   1.403233 A    
O6    C4    1.334445 A    
C16   C17   1.378068 A    
O7    Zn2   1.804431 S    
N1    N2    1.253090 D    
C19   C24   1.417588 A    
C11   C12   1.320306 D    
O5    C3    1.334431 A    
O7    C3    1.328767 A    
O2    C2    1.323781 A    
O3    Zn2   1.987753 S    
O8    C4    1.328756 A    
C16   H5    1.082891 S    
O1    C1    1.323781 A    
O4    C2    1.312063 A    
C21   C22   1.377444 A    
C7    C9    1.418697 S    
C14   H3    1.039978 S    
C8    C10   1.418698 S    
C23   H11   1.083825 S    
C11   H1    1.088139 S    
Zn2   N1    2.099078 S    
C19   C20   1.426354 A    
O2    Zn2   2.011587 S    
C12   H2    1.088139 S    
Zn1   N2    2.099078 S    
O1    Zn1   2.011587 S    
C23   C24   1.403019 A    
C20   C21   1.400554 A    
C2    C12   1.412130 S    
C4    C6    1.441106 S    
O5    Zn1   1.854964 S    
C1    C11   1.412131 S    
C21   H9    1.083538 S    
C6    C8    1.209505 T    
C22   C23   1.378036 A    
C13   C14   1.426515 A    
C5    C7    1.209505 T    
C17   H6    1.083856 S    
C14   C15   1.400837 A    
O6    Zn2   1.854964 S    
C13   C18   1.417723 A    
C18   H7    1.017308 S    
C3    C5    1.441110 S    
C15   H4    1.083584 S    
N2    C19   1.508765 S    
C9    C10   1.209714 T    
O4    Zn1   1.987752 S    
O3    C1    1.312061 A    
O8    Zn1   1.804431 S    
