data_mof_unit_32178.cif
_audit_creation_date              2012-12-11T14:50:52-0500
_audit_creation_method            fapswitch 2.2
_symmetry_space_group_name_H-M    P1
_symmetry_Int_Tables_number       1
_space_group_crystal_system       triclinic
_cell_length_a                    10.958103
_cell_length_b                    10.97226
_cell_length_c                    18.772761
_cell_angle_alpha                 90.123142
_cell_angle_beta                  89.974359
_cell_angle_gamma                 59.588289
_cell_volume                      1946.5780534

loop_
_atom_site_label
_atom_site_type_symbol
_atom_type_description
_atom_site_fract_x
_atom_site_fract_y
_atom_site_fract_z
_atom_type_partial_charge
C1    C     C_R   0.237234 0.645615 0.610072 0.555638
C2    C     C_R   0.585824 0.223040 0.796274 -0.130762
C3    C     C_R   0.562128 0.258071 0.725242 -0.120960
C4    C     C_R   0.655763 0.624156 0.600597 0.530937
C5    C     C_R   0.663379 0.175894 0.673975 0.018555
C6    C     C_R   0.200074 0.546266 0.724289 0.181535
C7    C     C_R   0.193955 0.552684 0.798550 -0.134427
C8    C     C_R   0.179922 0.671143 0.834396 -0.018443
C9    C     C_R   0.184123 0.777818 0.795773 -0.173883
C10   C     C_R   0.182627 0.775792 0.722466 -0.208424
C11   C     C_R   0.195985 0.658812 0.685361 0.032875
C12   C     C_3   0.657237 0.607696 0.804150 -0.191287
C13   C     C_R   0.730681 0.525916 0.271905 -0.122376
C14   C     C_R   0.729227 0.538091 0.198963 -0.130571
C15   C     C_R   0.650072 0.670761 0.167261 0.029113
C16   C     C_R   0.630101 0.224599 0.601401 0.523061
C17   C     C_R   0.559163 0.788880 0.209223 -0.128792
C18   C     C_R   0.556417 0.775312 0.283025 -0.133798
C19   C     C_R   0.646662 0.644382 0.314817 0.035919
C20   C     C_R   0.545987 0.155817 0.288142 -0.135775
C21   C     C_R   0.545024 0.151219 0.215187 -0.136993
C22   C     C_R   0.650991 0.156966 0.176414 0.037818
C23   C     C_3   0.723910 0.702714 0.807567 0.027423
C24   C     C_R   0.754901 0.173158 0.211423 -0.145093
C25   C     C_R   0.754801 0.179565 0.284892 -0.145302
C26   C     C_R   0.647864 0.174976 0.323348 0.037838
C27   C     C_R   0.085879 0.805635 0.305185 -0.136887
C28   C     C_R   0.218362 0.650487 0.402812 0.549096
C29   C     C_R   0.066922 0.817257 0.232880 -0.121067
C30   C     C_R   0.104147 0.696643 0.191157 0.038423
C31   C     C_R   0.146654 0.566739 0.223120 -0.138830
C32   C     C_R   0.167489 0.554550 0.296018 -0.127219
C33   C     C_R   0.145955 0.672644 0.336091 0.031665
C34   C     C_3   0.681627 0.658852 0.674444 0.056240
C35   C     C_R   0.724851 0.050767 0.888755 0.529755
C36   C     C_R   0.756182 0.713395 0.883208 0.532410
C37   C     C_R   0.119214 0.705780 0.905924 0.534132
C38   C     C_R   0.674299 0.107418 0.103907 0.555202
C39   C     C_R   0.693711 0.689554 0.096844 0.557148
C40   C     C_R   0.640036 0.620390 0.390631 0.550235
C41   C     C_R   0.081537 0.715719 0.115651 0.555515
C42   C     C_R   0.618130 0.227867 0.395330 0.542114
C43   C     C_3   0.611163 0.845183 0.774717 -0.225150
C44   C     C_3   0.582896 0.822203 0.695818 -0.123010
C45   C     C_3   0.833414 0.632988 0.682135 -0.223718
C46   C     C_3   0.860288 0.650770 0.761552 -0.231399
C47   C     C_3   0.778599 0.391504 0.725729 -0.261930
C48   C     C_3   0.926496 0.332572 0.760450 -0.308876
C49   C     C_3   0.000278 0.174354 0.774445 -0.463417
C50   C     C_3   0.420837 0.895836 0.680760 -0.257781
C51   C     C_3   0.376759 0.003253 0.619151 -0.272864
C52   C     C_3   0.218579 0.078280 0.603844 -0.418478
C53   C     C_3   0.666478 0.555238 0.728254 -0.096371
C54   C     C_R   0.791608 0.058477 0.694078 -0.167921
C55   C     C_R   0.815664 0.022798 0.766119 -0.183816
C56   C     C_R   0.712729 0.104537 0.817139 0.012316
Cl1   Cl    Cl    0.207840 0.397204 0.683813 -0.726434
Cr1   Cr    Cr6+3 0.392930 0.397900 0.502230 1.047384
Cr2   Cr    Cr6+3 0.398240 0.708600 0.501260 0.988011
Cr3   Cr    Cr6+3 0.708800 0.393470 0.496460 1.001307
Cr4   Cr    Cr6+3 0.937620 0.938540 0.007640 1.006025
Cr5   Cr    Cr6+3 0.625150 0.937450 0.994520 1.008454
Cr6   Cr    Cr6+3 0.937990 0.625080 0.001190 1.006862
H1    H     H_    0.647934 0.921383 0.776348 0.129112
H2    H     H_    0.513351 0.892985 0.807626 0.144305
H3    H     H_    0.171839 0.866944 0.694847 0.126731
H4    H     H_    0.798069 0.422461 0.294557 0.131424
H5    H     H_    0.798980 0.445064 0.167828 0.126394
H6    H     H_    0.497105 0.892580 0.185678 0.126049
H7    H     H_    0.487170 0.866848 0.315134 0.116570
H8    H     H_    0.462057 0.151741 0.316591 0.125168
H9    H     H_    0.464753 0.136603 0.189591 0.124912
H10   H     H_    0.839025 0.175486 0.182251 0.115463
H11   H     H_    0.834938 0.193128 0.311316 0.115217
H12   H     H_    0.949606 0.553324 0.783049 0.155834
H13   H     H_    0.065250 0.898130 0.335743 0.124855
H14   H     H_    0.026330 0.920813 0.209591 0.139355
H15   H     H_    0.169489 0.474567 0.191722 0.122163
H16   H     H_    0.212042 0.450621 0.319617 0.135789
H17   H     H_    0.622010 0.880850 0.663604 0.133729
H18   H     H_    0.894781 0.729721 0.764969 0.104732
H19   H     H_    0.847133 0.709538 0.649238 0.106111
H20   H     H_    0.701858 0.519970 0.843294 0.148330
H21   H     H_    0.543715 0.669430 0.820321 0.111629
H22   H     H_    0.562551 0.564058 0.716368 0.108061
H23   H     H_    0.912897 0.529012 0.660685 0.191166
H24   H     H_    0.947141 0.152863 0.818837 0.183075
H25   H     H_    0.000875 0.116949 0.725741 0.155479
H26   H     H_    0.111611 0.135097 0.790515 0.144962
H27   H     H_    0.997312 0.347801 0.724956 0.212133
H28   H     H_    0.920441 0.381237 0.812856 0.187495
H29   H     H_    0.729481 0.342984 0.756782 0.160079
H30   H     H_    0.793324 0.348335 0.671512 0.206619
H31   H     H_    0.184672 0.001399 0.590725 0.164878
H32   H     H_    0.158645 0.142252 0.650543 0.179458
H33   H     H_    0.193906 0.150555 0.557866 0.153015
H34   H     H_    0.870897 0.994766 0.654681 0.112420
H35   H     H_    0.404192 0.084814 0.633588 0.216173
H36   H     H_    0.435267 0.950869 0.569612 0.175560
H37   H     H_    0.390916 0.815803 0.670376 0.195699
H38   H     H_    0.356342 0.955700 0.727630 0.132562
H39   H     H_    0.911024 0.929057 0.782183 0.121817
H40   H     H_    0.504931 0.288106 0.834776 0.146021
H41   H     H_    0.468360 0.354565 0.710318 0.177978
H42   H     H_    0.190505 0.469478 0.827837 0.153486
H43   H     H_    0.172906 0.871294 0.821620 0.146621
O1    O     O_R   0.507430 0.255570 0.581420 -0.489614
O2    O     O_R   0.837200 0.593290 0.915250 -0.527638
O3    O     O_R   0.065330 0.635370 0.931590 -0.521439
O4    O     O_R   0.280190 0.527390 0.578910 -0.434677
O5    O     O_R   0.068300 0.828790 0.091860 -0.525742
O6    O     O_R   0.798730 0.057480 0.079370 -0.505510
O7    O     O_R   0.584680 0.080480 0.076790 -0.523484
O8    O     O_R   0.626790 0.809640 0.067050 -0.499867
O9    O     O_R   0.816010 0.596460 0.076500 -0.516788
O10   O     O_R   0.045680 0.638310 0.081070 -0.500718
O11   O     O_3   0.833590 0.833690 0.001120 -0.278109
O12   O     O_R   0.524460 0.695920 0.424060 -0.502166
O13   O     O_R   0.260310 0.739740 0.584580 -0.560709
O14   O     O_R   0.532250 0.695150 0.573830 -0.516013
O15   O     O_R   0.744930 0.503430 0.576380 -0.527721
O16   O     O_R   0.699250 0.276390 0.571950 -0.522545
O17   O     O_R   0.499020 0.256400 0.419850 -0.531561
O18   O     O_R   0.272400 0.528160 0.429140 -0.506228
O19   O     O_R   0.251910 0.740570 0.423020 -0.522389
O20   O     O_R   0.736530 0.504260 0.414810 -0.524931
O21   O     O_R   0.691460 0.277160 0.422180 -0.511139
O22   O     O_3   0.499990 0.499990 0.499980 -0.248213
O23   O     O_R   0.089490 0.825610 0.930610 -0.524353
O24   O     O_R   0.818370 0.054540 0.929880 -0.498721
O25   O     O_R   0.605870 0.077310 0.915530 -0.523867
O26   O     O_R   0.646440 0.806700 0.917570 -0.515443

loop_
_geom_bond_atom_site_label_1
_geom_bond_atom_site_label_2
_ccdc_geom_bond_type
C3    H41   S    
C18   H7    S    
C40   O12   A    
C55   C56   A    
Cr1   O22   S    
Cr2   O14   S    
C36   O2    A    
C47   H29   S    
C49   H24   S    
C45   H19   S    
C6    Cl1   S    
C52   H33   S    
C7    C8    A    
C45   C46   S    
C27   C33   A    
C17   H6    S    
C55   H39   S    
Cr1   O17   S    
Cr5   O8    S    
C36   O26   A    
C30   C31   A    
Cr6   O11   S    
C24   H10   S    
C27   C29   A    
C22   C38   S    
C23   C43   S    
C12   H21   S    
C52   H32   S    
C25   H11   S    
C1    O13   A    
C16   O16   A    
Cr5   O11   S    
C16   O1    A    
C31   C32   A    
C8    C9    A    
C5    C16   S    
C48   H28   S    
C1    C11   S    
C43   H1    S    
C7    H42   S    
C30   C41   S    
C52   H31   S    
C9    C10   A    
C37   O3    A    
C12   C53   S    
Cr4   O23   S    
C47   C53   S    
Cr6   O9    S    
C51   H35   S    
C23   C46   S    
C48   H27   S    
C13   C14   A    
C49   H25   S    
C46   H12   S    
C25   C26   A    
C42   O17   A    
C50   C51   S    
C10   H3    S    
C51   H36   S    
C4    C34   S    
C13   C19   A    
C21   H9    S    
Cr4   O11   S    
C51   C52   S    
Cr5   O26   S    
C5    C54   A    
C44   H17   S    
C34   C44   S    
C24   C25   A    
Cr5   O7    S    
C10   C11   A    
C6    C11   A    
C38   O7    A    
C18   C19   A    
Cr2   O22   S    
C12   H20   S    
Cr6   O3    S    
C43   C44   S    
C29   C30   A    
C1    O4    A    
C46   H18   S    
C47   C48   S    
C12   C23   S    
Cr3   O22   S    
C43   H2    S    
C39   O8    A    
C40   O20   A    
C17   C18   A    
C47   H30   S    
C20   H8    S    
C34   C45   S    
Cr3   O16   S    
C35   O24   A    
C15   C39   S    
Cr4   O24   S    
C34   C53   S    
Cr6   O10   S    
C42   O21   A    
C48   C49   S    
C28   C33   S    
Cr2   O12   S    
C39   O9    A    
C22   C24   A    
C8    C37   S    
C41   O10   A    
C38   O6    A    
C27   H13   S    
Cr4   O5    S    
C35   O25   A    
Cr1   O1    S    
C28   O19   A    
C26   C42   S    
C31   H15   S    
C13   H4    S    
C44   C50   S    
C15   C17   A    
C54   C55   A    
Cr2   O13   S    
C35   C56   S    
Cr1   O4    S    
C50   H37   S    
Cr5   O25   S    
Cr3   O21   S    
C49   H26   S    
C3    C5    A    
C28   O18   A    
C6    C7    A    
Cr2   O19   S    
Cr1   O18   S    
C32   C33   A    
Cr3   O20   S    
C2    C3    A    
C9    H43   S    
C2    C56   A    
C32   H16   S    
C20   C26   A    
C2    H40   S    
C37   O23   A    
C4    O15   A    
C45   H23   S    
Cr3   O15   S    
C19   C40   S    
C54   H34   S    
C29   H14   S    
C20   C21   A    
C50   H38   S    
C23   C36   S    
C41   O5    A    
C14   H5    S    
C14   C15   A    
C4    O14   A    
C53   H22   S    
Cr6   O2    S    
C21   C22   A    
Cr4   O6    S    
