data_mof_unit_39433.cif
_audit_creation_date              2012-12-10T18:47:40-0500
_audit_creation_method            fapswitch 2.2
_symmetry_space_group_name_H-M    P1
_symmetry_Int_Tables_number       1
_space_group_crystal_system       triclinic
_cell_length_a                    9.858403
_cell_length_b                    10.735159
_cell_length_c                    15.534357
_cell_angle_alpha                 90.028823
_cell_angle_beta                  66.019059
_cell_angle_gamma                 90.385211
_cell_volume                      1502.07519958

loop_
_atom_site_label
_atom_site_type_symbol
_atom_type_description
_atom_site_fract_x
_atom_site_fract_y
_atom_site_fract_z
_atom_type_partial_charge
C1    C     C_R   0.502436 0.739987 0.497628 0.928333
C2    C     C_R   0.497565 0.260013 0.502370 0.928313
C3    C     C_R   0.339568 0.436414 0.103392 -0.178111
C4    C     C_R   0.660540 0.563165 0.896549 -0.178128
C5    C     C_R   0.238716 0.408696 0.064829 -0.061201
C6    C     C_R   0.761392 0.590904 0.935106 -0.061106
C7    C     C_R   0.638339 0.940178 0.458741 0.292621
C8    C     C_R   0.361662 0.059820 0.541249 0.292628
C9    C     C_R   0.632387 0.067699 0.462070 -0.206551
C10   C     C_R   0.367615 0.932300 0.537923 -0.206544
C11   C     C_R   0.495702 0.127578 0.502784 -0.178742
C12   C     C_R   0.504299 0.872421 0.497210 -0.178740
C13   C     C_R   0.968881 0.429228 0.436821 0.462925
C14   C     C_R   0.031119 0.570771 0.563180 0.462904
C15   C     C_R   0.112168 0.429253 0.437162 -0.151868
C16   C     C_R   0.887832 0.570746 0.562838 -0.151926
C17   C     C_R   0.405517 0.497965 0.676908 0.925406
C18   C     C_R   0.594483 0.502027 0.323091 0.925412
C19   C     C_R   0.342748 0.487675 0.780141 -0.182444
C20   C     C_R   0.657255 0.512243 0.219855 -0.182509
C21   C     C_R   0.171490 0.400822 0.929815 0.360581
C22   C     C_R   0.828563 0.598946 0.070138 0.360553
C23   C     C_R   0.207269 0.426827 0.834250 0.258044
C24   C     C_R   0.792755 0.573042 0.165720 0.258073
C25   C     C_R   0.434794 0.527488 0.822879 -0.248863
C26   C     C_R   0.565215 0.472369 0.177128 -0.248885
C27   C     C_R   0.409196 0.492926 0.914789 0.065775
C28   C     C_R   0.590861 0.506800 0.085184 0.065807
C29   C     C_R   0.272424 0.433322 0.970114 0.019505
C30   C     C_R   0.727647 0.566377 0.029841 0.019495
C31   C     C_R   0.517351 0.514969 0.952231 0.098448
C32   C     C_R   0.482729 0.484687 0.047731 0.098501
H1    H     H_    0.132917 0.369013 0.111041 0.231804
H2    H     H_    0.867216 0.630532 0.888878 0.231836
H3    H     H_    0.470999 0.415779 0.219054 0.168883
H4    H     H_    0.528977 0.584144 0.780992 0.168898
H5    H     H_    0.299750 0.419486 0.177940 0.165633
H6    H     H_    0.700376 0.579994 0.821986 0.165665
H7    H     H_    0.735309 0.120109 0.431208 0.239631
H8    H     H_    0.264692 0.879891 0.568784 0.239635
H9    H     H_    0.198774 0.372609 0.387063 0.178064
H10   H     H_    0.801226 0.627390 0.612938 0.178087
N1    N     N_R   0.142780 0.500030 0.500020 -0.123866
N2    N     N_R   0.857220 0.499970 0.499980 -0.123869
O1    O     O_R   0.385370 0.683250 0.500010 -0.588216
O2    O     O_R   0.614630 0.316750 0.499990 -0.588219
O3    O     O_R   0.614700 0.683220 0.500000 -0.584312
O4    O     O_R   0.385300 0.316780 0.500000 -0.584316
O5    O     O_R   0.319830 0.500020 0.632250 -0.530264
O6    O     O_R   0.680170 0.499980 0.367750 -0.530270
O7    O     O_R   0.549160 0.499990 0.632240 -0.636796
O8    O     O_R   0.450840 0.500010 0.367760 -0.636785
Zn1   Zn    Zn3+2 0.346870 0.500020 0.500000 1.058815
Zn2   Zn    Zn3+2 0.653130 0.499980 0.500000 1.058809
Br1   Br    Br    0.929573 0.623996 0.219477 -0.324386
Br2   Br    Br    0.070438 0.375949 0.780483 -0.324557
Cl1   Cl    Cl    0.003609 0.320657 0.996685 -0.528999
Cl2   Cl    Cl    0.996453 0.679084 0.003243 -0.529002
Br3   Br    Br    0.832668 0.868554 0.397453 -0.360058
Br4   Br    Br    0.167330 0.131440 0.602521 -0.360048
Cl3   Cl    Cl    0.937506 0.336911 0.353543 -0.569765
Cl4   Cl    Cl    0.062493 0.663086 0.646458 -0.569738

loop_
_geom_bond_atom_site_label_1
_geom_bond_atom_site_label_2
_ccdc_geom_bond_type
C22   Cl2   S    
C19   C23   A    
C21   Cl1   S    
C14   C16   A    
C16   H10   S    
C17   O7    A    
C27   C29   A    
C15   N1    A    
C16   N2    A    
C5    C29   A    
C31   C32   A    
C28   C32   A    
C3    C5    A    
O7    Zn2   S    
C2    O4    A    
O2    Zn2   S    
C28   C30   A    
C18   O8    A    
C23   Br2   S    
C6    C30   A    
C8    Br4   S    
C24   Br1   S    
C9    C11   A    
C1    O1    A    
O6    Zn2   S    
C1    C12   S    
C10   C12   A    
C8    C11   A    
O5    Zn1   S    
C2    C11   S    
C15   H9    S    
C7    Br3   S    
C26   C28   A    
O4    Zn1   S    
N1    Zn1   S    
C4    H6    S    
C18   C20   S    
C13   C15   A    
C21   C23   A    
C3    C32   A    
C19   C25   A    
C22   C24   A    
C7    C12   A    
C4    C31   A    
C25   C27   A    
C25   H4    S    
C27   C31   A    
C14   Cl4   S    
N2    Zn2   S    
C26   H3    S    
C9    H7    S    
C13   Cl3   S    
O8    Zn1   S    
C18   O6    A    
C4    C6    A    
C17   O5    A    
C7    C9    A    
C20   C24   A    
O3    Zn2   S    
C1    O3    A    
C10   H8    S    
C22   C30   A    
C17   C19   S    
C13   N2    A    
C21   C29   A    
O1    Zn1   S    
C8    C10   A    
C2    O2    A    
C6    H2    S    
C3    H5    S    
C14   N1    A    
C20   C26   A    
C5    H1    S    
