data_mof_unit_68463.cif
_audit_creation_date              2012-12-11T18:15:33-0500
_audit_creation_method            fapswitch 2.2
_symmetry_space_group_name_H-M    P1
_symmetry_Int_Tables_number       1
_space_group_crystal_system       triclinic
_cell_length_a                    20.267716
_cell_length_b                    20.15014
_cell_length_c                    8.402126
_cell_angle_alpha                 90.0
_cell_angle_beta                  91.571005
_cell_angle_gamma                 89.934507
_cell_volume                      3430.11364809

loop_
_atom_site_label
_atom_site_type_symbol
_atom_type_description
_atom_site_fract_x
_atom_site_fract_y
_atom_site_fract_z
_atom_type_partial_charge
Ba1   Ba    Ba6+2 0.999980 0.452130 0.155200 1.661844
Ba2   Ba    Ba6+2 0.999980 0.547870 0.655200 1.677898
Ba3   Ba    Ba6+2 0.499980 0.952130 0.155200 1.661878
Ba4   Ba    Ba6+2 0.499980 0.047870 0.655200 1.677893
C1    C     C_3   0.947919 0.140218 0.350763 0.105435
C2    C     C_3   0.971815 0.876486 0.876586 0.133412
C3    C     C_3   0.447868 0.640273 0.351026 0.105169
C4    C     C_3   0.471755 0.376459 0.876374 0.133450
C5    C     C_R   0.151852 0.348261 0.818886 0.062088
C6    C     C_R   0.151361 0.652355 0.320602 0.077121
C7    C     C_R   0.651860 0.848267 0.818867 0.062177
C8    C     C_R   0.651348 0.152362 0.320622 0.077190
C9    C     C_R   0.116774 0.341005 0.674718 -0.380001
C10   C     C_R   0.115897 0.660041 0.177130 -0.362919
C11   C     C_R   0.616788 0.841017 0.674687 -0.380266
C12   C     C_R   0.615885 0.160049 0.177148 -0.362802
C13   C     C_R   0.128116 0.288053 0.572673 0.037363
C14   C     C_R   0.127058 0.713043 0.075156 -0.001810
C15   C     C_R   0.628142 0.788074 0.572622 0.037241
C16   C     C_R   0.627021 0.213070 0.075211 -0.001993
C17   C     C_R   0.175491 0.240358 0.612992 0.296693
C18   C     C_R   0.175102 0.760087 0.114440 0.288125
C19   C     C_R   0.675516 0.740378 0.612942 0.296828
C20   C     C_R   0.675035 0.260138 0.114544 0.288316
C21   C     C_R   0.208734 0.242842 0.764851 -0.126037
C22   C     C_R   0.208363 0.757628 0.266323 -0.118414
C23   C     C_R   0.708746 0.742851 0.764819 -0.126031
C24   C     C_R   0.708329 0.257649 0.266380 -0.118252
C25   C     C_R   0.200027 0.299243 0.864327 -0.103122
C26   C     C_R   0.199558 0.701346 0.366129 -0.096201
C27   C     C_R   0.700035 0.799249 0.864305 -0.103031
C28   C     C_R   0.699536 0.201360 0.366166 -0.096398
C29   C     C_R   0.795010 0.698687 0.949555 -0.058502
C30   C     C_R   0.795100 0.301503 0.450282 -0.068512
C31   C     C_R   0.295008 0.198684 0.949568 -0.058504
C32   C     C_R   0.295107 0.801498 0.450270 -0.068053
C33   C     C_R   0.786334 0.755273 0.047958 -0.047322
C34   C     C_R   0.786325 0.245098 0.549133 -0.030395
C35   C     C_R   0.286332 0.255271 0.047968 -0.047321
C36   C     C_R   0.286342 0.745084 0.549101 -0.030098
C37   C     C_R   0.847996 0.653460 0.988432 0.096195
C38   C     C_R   0.848113 0.346665 0.488843 0.085545
C39   C     C_R   0.347995 0.153459 0.988438 0.096188
C40   C     C_R   0.348114 0.846665 0.488842 0.085504
C41   C     C_R   0.889543 0.666912 0.120530 -0.092930
C42   C     C_R   0.889662 0.333455 0.621165 -0.104960
C43   C     C_R   0.389543 0.166911 0.120535 -0.092956
C44   C     C_R   0.389665 0.833455 0.621161 -0.104840
C45   C     C_3   0.026140 0.211165 0.919377 0.371916
C46   C     C_3   0.987067 0.818151 0.364974 0.270122
C47   C     C_3   0.525981 0.710991 0.918780 0.372346
C48   C     C_3   0.487057 0.318150 0.364873 0.270200
C49   C     C_R   0.873265 0.715867 0.231731 0.007828
C50   C     C_R   0.873881 0.284168 0.731889 0.049679
C51   C     C_R   0.373265 0.215867 0.231738 0.007822
C52   C     C_R   0.373891 0.784159 0.731866 0.049447
C53   C     C_R   0.822845 0.761002 0.192870 -0.130157
C54   C     C_R   0.823536 0.238968 0.693059 -0.098634
C55   C     C_R   0.322845 0.261002 0.192877 -0.130167
C56   C     C_R   0.323554 0.738954 0.693025 -0.098747
C57   C     C_R   0.750166 0.689834 0.818313 0.400929
C58   C     C_R   0.750459 0.310238 0.318533 0.394577
C59   C     C_R   0.250159 0.189829 0.818338 0.400882
C60   C     C_R   0.250461 0.810238 0.318529 0.394656
C61   C     C_3   0.063203 0.146369 0.952314 0.256950
C62   C     C_3   0.022350 0.881172 0.421168 0.212639
C63   C     C_3   0.563039 0.646248 0.952308 0.257400
C64   C     C_3   0.522440 0.381117 0.421068 0.212411
C65   C     C_3   0.801647 0.465410 0.783699 0.687654
C66   C     C_3   0.801145 0.534065 0.281950 0.680847
C67   C     C_3   0.301645 0.965413 0.783685 0.687478
C68   C     C_3   0.301149 0.034069 0.281954 0.680889
C69   C     C_3   0.734468 0.449005 0.707662 -0.184561
C70   C     C_3   0.733860 0.550225 0.205944 -0.174082
C71   C     C_3   0.234465 0.949013 0.707648 -0.184274
C72   C     C_3   0.233863 0.050227 0.205949 -0.173987
C73   C     C_3   0.189856 0.540460 0.995820 0.305706
C74   C     C_3   0.190592 0.459703 0.494705 0.305406
C75   C     C_3   0.689841 0.040467 0.995818 0.305711
C76   C     C_3   0.690607 0.959711 0.494708 0.305425
C77   C     C_3   0.252193 0.582609 0.002283 -0.378844
C78   C     C_3   0.253098 0.417650 0.499899 -0.379200
C79   C     C_3   0.752173 0.082625 0.002298 -0.378851
C80   C     C_3   0.753117 0.917665 0.499890 -0.379228
C81   C     C_3   0.979791 0.208555 0.381585 0.310196
C82   C     C_3   0.004205 0.810816 0.930721 0.347306
C83   C     C_3   0.479757 0.708617 0.381426 0.310786
C84   C     C_3   0.504136 0.310790 0.930539 0.347503
C85   C     C_R   0.239459 0.304327 0.004991 -0.027535
C86   C     C_R   0.239252 0.696171 0.506488 -0.001947
C87   C     C_R   0.739462 0.804329 0.004979 -0.027495
C88   C     C_R   0.739235 0.196183 0.506519 -0.002115
H1    H     H_    0.953306 0.245513 0.305065 0.075416
H2    H     H_    0.964905 0.772586 0.940890 -0.033547
H3    H     H_    0.453368 0.745477 0.304586 0.075861
H4    H     H_    0.464838 0.272551 0.940581 -0.033435
H5    H     H_    0.717253 0.490631 0.630447 0.101646
H6    H     H_    0.716664 0.508344 0.129638 0.103733
H7    H     H_    0.217250 0.990642 0.630446 0.101772
H8    H     H_    0.216667 0.008345 0.129647 0.103681
H9    H     H_    0.737419 0.403315 0.634801 0.048926
H10   H     H_    0.736668 0.595656 0.132077 0.047820
H11   H     H_    0.237415 0.903326 0.634774 0.049022
H12   H     H_    0.236669 0.095657 0.132080 0.047805
H13   H     H_    0.697661 0.440905 0.801361 0.122932
H14   H     H_    0.697129 0.558687 0.299662 0.130565
H15   H     H_    0.197659 0.940908 0.801349 0.122882
H16   H     H_    0.197132 0.058689 0.299668 0.130518
H17   H     H_    0.170656 0.535964 0.117243 0.016236
H18   H     H_    0.171620 0.463884 0.616445 0.018691
H19   H     H_    0.670634 0.035971 0.117233 0.016222
H20   H     H_    0.671641 0.963893 0.616454 0.018703
H21   H     H_    0.152885 0.564995 0.915333 0.058475
H22   H     H_    0.153595 0.435285 0.414204 0.057401
H23   H     H_    0.652873 0.064996 0.915314 0.058527
H24   H     H_    0.653608 0.935287 0.414221 0.057318
H25   H     H_    0.289578 0.559656 0.084299 0.126764
H26   H     H_    0.290293 0.440046 0.583227 0.129869
H27   H     H_    0.789551 0.059685 0.084353 0.126680
H28   H     H_    0.790316 0.940070 0.583190 0.129862
H29   H     H_    0.241274 0.633277 0.045241 0.055194
H30   H     H_    0.242275 0.366654 0.540609 0.056658
H31   H     H_    0.741241 0.133296 0.045216 0.055148
H32   H     H_    0.742303 0.866670 0.540629 0.056643
H33   H     H_    0.272880 0.586365 0.881565 0.123964
H34   H     H_    0.273968 0.414800 0.379212 0.118558
H35   H     H_    0.772873 0.086371 0.881592 0.123948
H36   H     H_    0.773978 0.914808 0.379194 0.118535
H37   H     H_    0.974402 0.222292 0.508919 -0.040310
H38   H     H_    0.029129 0.818264 0.048495 -0.032132
H39   H     H_    0.474282 0.722519 0.508541 -0.040743
H40   H     H_    0.529006 0.318230 0.048375 -0.032369
H41   H     H_    0.959472 0.123562 0.228316 0.141278
H42   H     H_    0.948284 0.869069 0.756615 0.105647
H43   H     H_    0.459665 0.623355 0.229020 0.141699
H44   H     H_    0.448229 0.369039 0.756401 0.105655
H45   H     H_    0.083767 0.380132 0.635379 0.082420
H46   H     H_    0.083275 0.620750 0.137309 0.076136
H47   H     H_    0.583774 0.880140 0.635359 0.082478
H48   H     H_    0.583279 0.120749 0.137303 0.076113
H49   H     H_    0.812441 0.800760 0.275288 0.068649
H50   H     H_    0.813692 0.198840 0.774814 0.071148
H51   H     H_    0.312441 0.300759 0.275293 0.068661
H52   H     H_    0.313712 0.698823 0.774776 0.071163
H53   H     H_    0.235497 0.347185 0.081282 0.110424
H54   H     H_    0.235540 0.653164 0.582366 0.110630
H55   H     H_    0.735495 0.847184 0.081277 0.110358
H56   H     H_    0.735528 0.153175 0.582391 0.110758
H57   H     H_    0.051672 0.250273 0.991115 0.032191
H58   H     H_    0.024654 0.782125 0.323577 -0.052933
H59   H     H_    0.551697 0.750248 0.989606 0.031048
H60   H     H_    0.524585 0.282098 0.323299 -0.053213
H61   H     H_    0.028982 0.223290 0.790466 -0.101332
H62   H     H_    0.952141 0.831316 0.265717 0.023120
H63   H     H_    0.528571 0.722761 0.789662 -0.101455
H64   H     H_    0.452093 0.331379 0.265741 0.023277
H65   H     H_    0.116999 0.154036 0.935894 -0.047996
H66   H     H_    0.062119 0.868447 0.510045 0.060876
H67   H     H_    0.616779 0.653754 0.934788 -0.048930
H68   H     H_    0.562270 0.368318 0.509726 0.060846
H69   H     H_    0.057087 0.131269 0.078010 0.117669
H70   H     H_    0.986551 0.914480 0.479353 0.112077
H71   H     H_    0.557287 0.631599 0.078395 0.117771
H72   H     H_    0.486721 0.414430 0.479512 0.112027
H73   H     H_    0.837344 0.472915 0.687629 -0.041776
H74   H     H_    0.836752 0.526221 0.185834 -0.037865
H75   H     H_    0.337342 0.972921 0.687616 -0.041732
H76   H     H_    0.336755 0.026223 0.185838 -0.037915
O1    O     O_2   0.130070 0.404060 0.104920 -0.472480
O2    O     O_2   0.130070 0.595940 0.604920 -0.467257
O3    O     O_2   0.630070 0.904060 0.104920 -0.472475
O4    O     O_2   0.630070 0.095940 0.604920 -0.467255
O5    O     O_3   0.793737 0.478026 0.378061 -0.618790
O6    O     O_3   0.793911 0.521886 0.878251 -0.619468
O7    O     O_3   0.293741 0.978032 0.378072 -0.618632
O8    O     O_3   0.293911 0.021885 0.878253 -0.619446
O9    O     O_3   0.959957 0.204926 0.964255 -0.609768
O10   O     O_3   0.952209 0.791894 0.492047 -0.609631
O11   O     O_3   0.459898 0.704945 0.964506 -0.609578
O12   O     O_3   0.452236 0.291893 0.492004 -0.609634
O13   O     O_3   0.924190 0.533610 0.949240 -0.508576
O14   O     O_3   0.924190 0.466390 0.449240 -0.506764
O15   O     O_3   0.424190 0.033610 0.949240 -0.508573
O16   O     O_3   0.424190 0.966390 0.449240 -0.506774
O17   O     O_3   0.075780 0.466370 0.861070 -0.499348
O18   O     O_3   0.075780 0.533630 0.361070 -0.501287
O19   O     O_3   0.575780 0.966370 0.861070 -0.499353
O20   O     O_3   0.575780 0.033630 0.361070 -0.501291
O21   O     O_3   0.022320 0.344950 0.359800 -0.489279
O22   O     O_3   0.022320 0.655050 0.859800 -0.468282
O23   O     O_3   0.522320 0.844950 0.359800 -0.489311
O24   O     O_3   0.522320 0.155050 0.859800 -0.468283
O25   O     O_2   0.130749 0.292830 0.241550 -0.466299
O26   O     O_2   0.134814 0.701008 0.749278 -0.452257
O27   O     O_2   0.630708 0.792782 0.241423 -0.466139
O28   O     O_2   0.634826 0.201000 0.749353 -0.452394
O29   O     O_3   0.206315 0.477686 0.938738 -0.638910
O30   O     O_3   0.206675 0.522656 0.438435 -0.640041
O31   O     O_3   0.706310 0.977693 0.938749 -0.638931
O32   O     O_3   0.706680 0.022664 0.438423 -0.640034
O33   O     O_3   0.046814 0.206174 0.342294 -0.609016
O34   O     O_3   0.050486 0.791098 0.818845 -0.571594
O35   O     O_3   0.546796 0.706170 0.342487 -0.608975
O36   O     O_3   0.550475 0.291094 0.818780 -0.571546
O37   O     O_2   0.869860 0.403670 0.205810 -0.411861
O38   O     O_2   0.869860 0.596330 0.705810 -0.409717
O39   O     O_2   0.369860 0.903670 0.205810 -0.411952
O40   O     O_2   0.369860 0.096330 0.705810 -0.409749
O41   O     O_3   0.977590 0.344880 0.951200 -0.509291
O42   O     O_3   0.977590 0.655120 0.451200 -0.480709
O43   O     O_3   0.477590 0.844880 0.951200 -0.509147
O44   O     O_3   0.477590 0.155120 0.451200 -0.480679
O45   O     O_2   0.871338 0.287656 0.066476 -0.474832
O46   O     O_2   0.866067 0.703925 0.561695 -0.442827
O47   O     O_2   0.371289 0.787735 0.066398 -0.474795
O48   O     O_2   0.366079 0.203942 0.561724 -0.442864
P1    P     P_3+3 0.136530 0.426510 0.931350 0.968796
P2    P     P_3+3 0.136530 0.573490 0.431350 0.973725
P3    P     P_3+3 0.636530 0.926510 0.931350 0.968850
P4    P     P_3+3 0.636530 0.073490 0.431350 0.973724
P5    P     P_3+3 0.863410 0.426100 0.379280 1.047027
P6    P     P_3+3 0.863410 0.573900 0.879280 1.050210
P7    P     P_3+3 0.363410 0.926100 0.379280 1.047060
P8    P     P_3+3 0.363410 0.073900 0.879280 1.050211
P9    P     P_3+3 0.919526 0.280653 0.927643 0.947883
P10   P     P_3+3 0.916504 0.716979 0.430905 0.978128
P11   P     P_3+3 0.419509 0.780670 0.927652 0.947790
P12   P     P_3+3 0.416508 0.216982 0.430907 0.978161
P13   P     P_3+3 0.084165 0.714848 0.878586 1.030254
P14   P     P_3+3 0.082813 0.283908 0.379652 0.996120
P15   P     P_3+3 0.584155 0.214856 0.878602 1.030151
P16   P     P_3+3 0.582814 0.783909 0.379633 0.996386
N1    N     N_3   0.876244 0.144975 0.362818 -0.516436
H77   H     H_    0.856231 0.097642 0.344759 0.206251
H78   H     H_    0.857897 0.174273 0.268651 0.174108
N2    N     N_3   0.920941 0.895925 0.987538 -0.486928
H79   H     H_    0.900272 0.940786 0.948007 0.216326
H80   H     H_    0.882892 0.860980 0.979977 0.138912
N3    N     N_3   0.376176 0.645118 0.362103 -0.516569
H81   H     H_    0.356160 0.597740 0.344882 0.206363
H82   H     H_    0.358063 0.674038 0.267061 0.174530
N4    N     N_3   0.420879 0.395908 0.987309 -0.486905
H83   H     H_    0.400211 0.440766 0.947754 0.216483
H84   H     H_    0.382830 0.360963 0.979758 0.138869
O49   O     O_3   0.039058 0.095662 0.852482 -0.699931
H85   H     H_    0.063253 0.099302 0.751575 0.292150
O50   O     O_3   0.048765 0.915055 0.292217 -0.731304
H86   H     H_    0.086266 0.887907 0.255864 0.282504
O51   O     O_3   0.538500 0.595261 0.853937 -0.699668
H87   H     H_    0.562610 0.598277 0.752840 0.292480
O52   O     O_3   0.548782 0.415038 0.292077 -0.731220
H88   H     H_    0.586151 0.387806 0.255274 0.282500
O53   O     O_3   0.190908 0.194702 0.497238 -0.713791
H89   H     H_    0.239129 0.186928 0.503561 0.363086
O54   O     O_3   0.191726 0.804518 0.997102 -0.721647
H90   H     H_    0.240213 0.810616 0.002886 0.361733
O55   O     O_3   0.690938 0.694728 0.497180 -0.713737
H91   H     H_    0.739156 0.686945 0.503530 0.363073
O56   O     O_3   0.691595 0.304638 0.997301 -0.721443
H92   H     H_    0.740100 0.310634 0.002797 0.361742
N5    N     N_3   0.950389 0.631893 0.136648 -0.455765
H93   H     H_    0.946923 0.595374 0.223892 0.192764
H94   H     H_    0.986977 0.666539 0.164318 0.128325
N6    N     N_3   0.950296 0.368789 0.637244 -0.455841
H95   H     H_    0.946734 0.405162 0.724803 0.194797
H96   H     H_    0.987384 0.334495 0.663904 0.136054
N7    N     N_3   0.450389 0.131892 0.136651 -0.455774
H97   H     H_    0.446923 0.095373 0.223895 0.192770
H98   H     H_    0.486977 0.166537 0.164319 0.128356
N8    N     N_3   0.450296 0.868796 0.637253 -0.455821
H99   H     H_    0.446726 0.905168 0.724811 0.194790
H100  H     H_    0.487388 0.834507 0.663925 0.135985
O57   O     O_3   0.742820 0.627800 0.751936 -0.699722
H101  H     H_    0.695406 0.620503 0.725546 0.308189
O58   O     O_3   0.744722 0.371697 0.248567 -0.695701
H102  H     H_    0.697584 0.380128 0.222002 0.306501
O59   O     O_3   0.242808 0.127793 0.751978 -0.699689
H103  H     H_    0.195388 0.120490 0.725668 0.308185
O60   O     O_3   0.244674 0.871731 0.248728 -0.696121
H104  H     H_    0.197601 0.880023 0.221307 0.306639
N9    N     N_3   0.973399 0.090683 0.464339 -0.463621
H105  H     H_    0.024677 0.087446 0.455430 0.209578
H106  H     H_    0.963054 0.106297 0.579800 0.217388
N10   N     N_3   0.020723 0.929741 0.866394 -0.435096
H107  H     H_    0.054923 0.917500 0.780233 0.186253
H108  H     H_    0.046554 0.934014 0.975306 0.242403
N11   N     N_3   0.473040 0.590984 0.465428 -0.463987
H109  H     H_    0.524297 0.587553 0.456771 0.209143
H110  H     H_    0.462690 0.606940 0.580513 0.216802
N12   N     N_3   0.520669 0.429710 0.866182 -0.435061
H111  H     H_    0.554859 0.417472 0.779996 0.186048
H112  H     H_    0.546509 0.433973 0.975084 0.242547
O61   O     O_3   0.821114 0.412259 0.880678 -0.744090
H113  H     H_    0.867488 0.421157 0.913501 0.309629
O62   O     O_3   0.820660 0.587531 0.377466 -0.744453
H114  H     H_    0.866775 0.578162 0.411994 0.308748
O63   O     O_3   0.321112 0.912258 0.880650 -0.744155
H115  H     H_    0.367482 0.921162 0.913502 0.309662
O64   O     O_3   0.320663 0.087537 0.377466 -0.744487
H116  H     H_    0.366777 0.078167 0.411998 0.308744

loop_
_geom_bond_atom_site_label_1
_geom_bond_atom_site_label_2
_ccdc_geom_bond_type
C71   H15   S    
C51   C55   A    
O42   P10   S    
O6    P6    S    
C25   C85   A    
C45   H61   S    
N10   H107  S    
C46   O10   S    
C88   H56   S    
C60   O60   S    
C34   C88   A    
Ba1   P5    S    
C79   H27   S    
C5    C9    A    
C81   H37   S    
C7    C11   A    
C76   H24   S    
O15   P8    S    
C30   C38   A    
C66   C70   S    
N4    H84   S    
N11   H110  S    
C38   P5    S    
Ba3   O16   S    
C82   O34   S    
C76   C80   S    
C69   H9    S    
O49   H85   S    
C71   H11   S    
O30   P2    S    
O25   P14   D    
C73   H21   S    
Ba4   O40   S    
C11   H47   S    
C64   H72   S    
C21   C25   A    
C23   C27   A    
C24   C28   A    
Ba1   O13   S    
C13   C17   A    
C77   H29   S    
C15   C19   A    
C74   C78   S    
C12   C16   A    
C76   H20   S    
C40   P7    S    
C63   O51   S    
C64   O52   S    
O32   P4    S    
N8    H100  S    
C32   C40   A    
C78   H26   S    
C43   N7    S    
C2    N2    S    
O14   P5    S    
Ba2   O22   S    
C13   P14   S    
C72   H8    S    
Ba3   O39   S    
O21   P14   S    
C28   C88   A    
C8    P4    S    
C29   C57   A    
C61   H69   S    
Ba2   P2    S    
C37   C41   A    
C31   C59   A    
C74   O30   S    
C32   C60   A    
C39   C43   A    
C78   H30   S    
C33   C53   A    
C40   C44   A    
C80   H36   S    
O24   P15   S    
O39   P7    D    
C36   C56   A    
C75   H23   S    
C30   C58   A    
C87   H55   S    
C70   H6    S    
C85   H53   S    
O18   P2    S    
C47   H63   S    
O51   H87   S    
O48   P12   D    
N5    H93   S    
N2    H79   S    
O55   H91   S    
C68   O7    S    
C83   H39   S    
C69   H13   S    
N6    H95   S    
C83   H3    S    
Ba2   O38   S    
C31   C39   A    
N1    H77   S    
C37   P6    S    
O4    P4    D    
C1    C81   S    
C41   C49   A    
C16   P15   S    
C67   H75   S    
O59   H103  S    
C68   H76   S    
C12   H48   S    
C47   O11   S    
Ba3   O43   S    
O35   P16   S    
Ba1   O41   S    
C8    C12   A    
O31   P3    S    
C6    C10   A    
C82   H38   S    
C4    C84   S    
Ba2   O13   S    
C67   O63   S    
C50   P9    S    
O61   H113  S    
N1    H78   S    
C41   N5    S    
C71   H7    S    
C1    H41   S    
N3    H82   S    
C47   C63   S    
C66   O62   S    
C84   O36   S    
C73   H17   S    
C18   O54   S    
O34   P13   S    
N6    H96   S    
C22   C26   A    
C27   C87   A    
C6    C26   A    
Ba3   Ba4   S    
C68   O64   S    
C7    P3    S    
C5    P1    S    
C17   C21   A    
Ba3   P7    S    
Ba4   O4    S    
C77   H33   S    
C14   C18   A    
C20   C24   A    
C79   H35   S    
C63   H67   S    
N7    H97   S    
O40   P8    D    
C2    C82   S    
C9    C13   A    
C36   C86   A    
N10   H108  S    
Ba2   O17   S    
C64   H68   S    
O38   P6    D    
C35   C85   A    
O27   P16   D    
O47   P11   D    
Ba4   O15   S    
O11   P11   S    
C65   H73   S    
C3    N11   S    
O9    P9    S    
C63   H71   S    
Ba3   O15   S    
O3    P3    D    
O56   H92   S    
C24   C58   A    
C72   H12   S    
O16   P7    S    
O1    P1    D    
C84   H4    S    
C4    H44   S    
Ba4   O24   S    
N3    H81   S    
C26   C86   A    
O5    P5    S    
O52   H88   S    
C11   C15   A    
Ba2   P6    S    
C62   H70   S    
N12   H111  S    
C38   C42   A    
C78   H34   S    
C34   C54   A    
C3    C83   S    
C10   H46   S    
Ba4   P4    S    
O60   H104  S    
C65   C69   S    
O8    P8    S    
C15   P16   S    
C45   O9    S    
C81   O33   S    
C70   H10   S    
C47   H59   S    
C72   H16   S    
O26   P13   D    
C74   H22   S    
O41   P9    S    
C55   H51   S    
O29   P1    S    
C83   O35   S    
C62   O50   S    
O20   P4    S    
C75   O31   S    
C61   H65   S    
O62   H114  S    
C49   C53   A    
C59   O59   S    
O19   P3    S    
O12   P12   S    
C29   C33   A    
C52   C56   A    
C31   C35   A    
O64   H116  S    
C49   P10   S    
C54   H50   S    
N11   H109  S    
C73   C77   S    
C80   H28   S    
C35   C55   A    
C42   C50   A    
N4    H83   S    
O7    P7    S    
C45   C61   S    
Ba2   O2    S    
C65   O61   S    
N9    H106  S    
C65   O6    S    
C61   O49   S    
C52   P11   S    
O13   P6    S    
C14   P13   S    
Ba1   O14   S    
C45   H57   S    
C53   H49   S    
O22   P13   S    
C29   C37   A    
C48   H60   S    
O36   P15   S    
C56   H52   S    
C75   C79   S    
N7    H98   S    
O53   H89   S    
N2    H80   S    
C58   O58   S    
O44   P12   S    
Ba3   P3    S    
C18   C22   A    
C57   O57   S    
N8    H99   S    
Ba1   P1    S    
C79   H31   S    
C73   O29   S    
O63   H115  S    
C10   C14   A    
C68   C72   S    
Ba3   O20   S    
C4    N12   S    
Ba1   O18   S    
C67   O8    S    
C69   H5    S    
C20   O56   S    
O17   P1    S    
C1    N9    S    
Ba4   O19   S    
C66   H74   S    
C21   C59   A    
C42   N6    S    
C76   O32   S    
Ba1   Ba2   S    
Ba2   O14   S    
O37   P5    D    
C22   C60   A    
C23   C57   A    
C16   C20   A    
O23   P16   S    
C19   C23   A    
C82   H2    S    
C48   C64   S    
C5    C25   A    
C7    C27   A    
C1    N1    S    
C8    C28   A    
C81   H1    S    
Ba2   O42   S    
C33   C87   A    
C32   C36   A    
O45   P9    D    
N5    H94   S    
N9    H105  S    
Ba4   P8    S    
C17   O53   S    
C9    H45   S    
C51   P12   S    
C48   O12   S    
C3    H43   S    
Ba3   O23   S    
C70   H14   S    
C46   H58   S    
O28   P15   D    
C4    N4    S    
O57   H101  S    
C74   H18   S    
Ba4   O16   S    
C46   C62   S    
C77   H25   S    
O33   P14   S    
O58   H102  S    
C3    N3    S    
C84   H40   S    
O54   H90   S    
C62   H66   S    
Ba1   O37   S    
C6    P2    S    
C43   C51   A    
C50   C54   A    
C44   C52   A    
C30   C34   A    
C2    N10   S    
O50   H86   S    
C80   H32   S    
Ba4   O44   S    
C75   H19   S    
C39   P8    S    
C86   H54   S    
C67   C71   S    
Ba3   O3    S    
C46   H62   S    
Ba1   O1    S    
N12   H112  S    
C48   H64   S    
O46   P10   D    
C66   O5    S    
O10   P10   S    
C44   N8    S    
C2    H42   S    
C19   O55   S    
O43   P11   S    
Ba1   O21   S    
O2    P2    D    
