data_mof_unit_58294.cif
_audit_creation_date              2012-12-10T16:43:25-0500
_audit_creation_method            fapswitch 2.2
_symmetry_space_group_name_H-M    P1
_symmetry_Int_Tables_number       1
_space_group_crystal_system       triclinic
_cell_length_a                    10.775681
_cell_length_b                    8.679866
_cell_length_c                    7.503516
_cell_angle_alpha                 102.867174
_cell_angle_beta                  95.709841
_cell_angle_gamma                 92.575615
_cell_volume                      679.166580574

loop_
_atom_site_label
_atom_site_type_symbol
_atom_type_description
_atom_site_fract_x
_atom_site_fract_y
_atom_site_fract_z
_atom_type_partial_charge
C1    C     C_R   0.496132 0.199883 0.453356 0.876483
C2    C     C_R   0.074738 0.568415 0.665590 0.047879
C3    C     C_R   0.128046 0.508587 0.501902 -0.101763
C4    C     C_R   0.051834 0.424328 0.344476 -0.204881
C5    C     C_R   0.923508 0.408535 0.346755 -0.245025
C6    C     C_R   0.871406 0.464426 0.508209 -0.121673
C7    C     C_2   0.494291 0.031883 0.427294 -0.375044
C8    C     C_2   0.505864 0.968140 0.572746 -0.378065
C9    C     C_R   0.262682 0.507343 0.501168 0.788120
C10   C     C_R   0.503903 0.800118 0.546657 0.880912
C11   C     C_R   0.736861 0.485340 0.499943 0.795448
C12   C     C_R   0.140407 0.672181 0.822255 -0.164793
C13   C     C_R   0.090160 0.700370 0.989975 -0.179792
C14   C     C_R   0.980931 0.614718 0.006011 -0.167318
C15   C     C_R   0.916141 0.512025 0.850402 0.202819
C16   C     C_R   0.951258 0.516228 0.674987 0.101194
Cu1   Cu    Cu3+1 0.513920 0.517380 0.684380 0.938635
Cu2   Cu    Cu3+1 0.486080 0.482620 0.315620 0.941353
H1    H     H_    0.090957 0.372558 0.218997 0.173090
H2    H     H_    0.597792 0.623712 0.051880 0.224313
H3    H     H_    0.229125 0.733058 0.815968 0.159179
H4    H     H_    0.140470 0.779570 0.110079 0.151929
H5    H     H_    0.949606 0.624078 0.140042 0.162518
H6    H     H_    0.863806 0.349801 0.225421 0.167355
H7    H     H_    0.483340 0.960299 0.287170 0.178281
H8    H     H_    0.516833 0.039730 0.712868 0.179537
H9    H     H_    0.402001 0.376573 0.948139 0.228938
N1    N     N_2   0.465100 0.456430 0.038520 -0.220214
N2    N     N_2   0.534900 0.543570 0.961480 -0.228528
O1    O     O_R   0.509050 0.286130 0.619770 -0.584611
O2    O     O_R   0.485540 0.256780 0.308360 -0.588011
O3    O     O_R   0.331410 0.514680 0.655740 -0.588601
O4    O     O_R   0.307900 0.485330 0.344330 -0.581287
O5    O     O_R   0.514460 0.743220 0.691640 -0.588796
O6    O     O_R   0.490950 0.713870 0.380230 -0.579692
O7    O     O_R   0.692100 0.514670 0.655670 -0.574470
O8    O     O_R   0.668590 0.485320 0.344260 -0.592095
C17   C     C_3   0.837153 0.372618 0.876533 -0.812618
H10   H     H_    0.762540 0.413358 0.963977 0.245266
H11   H     H_    0.794381 0.294766 0.744748 0.232316
H12   H     H_    0.898876 0.296092 0.939887 0.201710

loop_
_geom_bond_atom_site_label_1
_geom_bond_atom_site_label_2
_ccdc_geom_bond_type
C14   H5    S    
C9    O4    A    
C15   C17   S    
C10   O6    A    
C3    C9    S    
Cu1   O7    S    
C2    C16   A    
Cu2   O6    S    
C7    H7    S    
C2    C12   A    
C2    C3    A    
Cu2   N1    S    
C7    C8    D    
C10   O5    A    
C13   C14   A    
C17   H11   S    
Cu1   O1    S    
C5    C6    A    
C5    H6    S    
C1    O1    A    
Cu2   O8    S    
C13   H4    S    
Cu1   Cu2   S    
H2    N2    S    
C17   H10   S    
Cu2   O4    S    
Cu1   O5    S    
C6    C16   A    
C3    C4    A    
Cu1   N2    S    
C1    O2    A    
C8    H8    S    
C12   C13   A    
C17   H12   S    
C8    C10   S    
C6    C11   S    
C11   O8    A    
Cu1   O3    S    
C14   C15   A    
N1    N2    D    
Cu2   O2    S    
C9    O3    A    
C1    C7    S    
C4    H1    S    
C12   H3    S    
C15   C16   A    
C4    C5    A    
H9    N1    S    
C11   O7    A    
