data_mof_unit_21427.cif
_audit_creation_date              2012-12-11T14:37:50-0500
_audit_creation_method            fapswitch 2.2
_symmetry_space_group_name_H-M    P1
_symmetry_Int_Tables_number       1
_space_group_crystal_system       triclinic
_cell_length_a                    14.480554
_cell_length_b                    15.792328
_cell_length_c                    6.951447
_cell_angle_alpha                 89.973593
_cell_angle_beta                  80.672115
_cell_angle_gamma                 89.996289
_cell_volume                      1568.64799537

loop_
_atom_site_label
_atom_site_type_symbol
_atom_type_description
_atom_site_fract_x
_atom_site_fract_y
_atom_site_fract_z
_atom_type_partial_charge
O1    O     O_R   0.337080 0.165770 0.524980 -0.525359
O2    O     O_R   0.662920 0.834230 0.475020 -0.534284
O3    O     O_R   0.662920 0.665770 0.475020 -0.521692
O4    O     O_R   0.337080 0.334230 0.524980 -0.537498
O5    O     O_R   0.348340 0.341430 0.191390 -0.543239
O6    O     O_R   0.651660 0.658570 0.808610 -0.534135
O7    O     O_R   0.651660 0.841430 0.808610 -0.544177
O8    O     O_R   0.348340 0.158570 0.191390 -0.539245
O9    O     O_R   0.165780 0.339950 0.082750 -0.548048
O10   O     O_R   0.834220 0.660050 0.917250 -0.547612
O11   O     O_R   0.834220 0.839950 0.917250 -0.550184
O12   O     O_R   0.165780 0.160050 0.082750 -0.547319
C1    C     C_R   0.370304 0.364839 0.355878 0.587944
C2    C     C_R   0.629685 0.635183 0.644146 0.550116
C3    C     C_R   0.629702 0.864836 0.644067 0.592623
C4    C     C_R   0.370277 0.135147 0.355920 0.575528
H1    H     H_    0.642017 0.477127 0.393604 0.117177
H2    H     H_    0.457075 0.568391 0.953447 0.117634
H3    H     H_    0.410359 0.917764 0.353355 0.129078
H4    H     H_    0.360859 0.969535 0.014604 0.113645
O13   O     O_3   0.191540 0.250000 0.407620 -0.355988
O14   O     O_3   0.808460 0.750000 0.592380 -0.358007
V1    V     V_3+5 0.262540 0.250000 0.108780 1.437119
V2    V     V_3+5 0.737460 0.750000 0.891220 1.450922
O15   O     O_R   0.154530 0.164290 0.756910 -0.521859
O16   O     O_R   0.845470 0.835710 0.243090 -0.525806
O17   O     O_R   0.845470 0.664290 0.243090 -0.524461
O18   O     O_R   0.154530 0.335710 0.756910 -0.525741
C5    C     C_R   0.132089 0.133502 0.932412 0.757423
C6    C     C_R   0.868133 0.866317 0.067466 0.738183
C7    C     C_R   0.868093 0.633652 0.067556 0.759136
C8    C     C_R   0.131953 0.366385 0.932411 0.743521
H5    H     H_    0.604225 0.487284 0.972792 0.114081
H6    H     H_    0.496298 0.560249 0.373437 0.107438
H7    H     H_    0.309022 0.874200 0.763601 0.140071
H8    H     H_    0.463632 0.011231 0.604599 0.109663
V3    V     V_3+5 0.240320 0.250000 0.616280 1.473537
V4    V     V_3+5 0.759680 0.750000 0.383720 1.479666
O19   O     O_3   0.311330 0.250000 0.867310 -0.378019
O20   O     O_3   0.688670 0.750000 0.132690 -0.371849
C9    C     C_3   0.021184 0.472401 0.171961 -0.253525
C10   C     C_3   0.979041 0.527791 0.827817 -0.250030
C11   C     C_3   0.982873 0.969322 0.827228 -0.251849
C12   C     C_3   0.017561 0.030283 0.172510 -0.251732
C13   C     C_3   0.036551 0.562711 0.087875 0.553360
C14   C     C_3   0.963682 0.437463 0.911881 0.558508
C15   C     C_3   0.965739 0.060751 0.903133 0.560864
C16   C     C_3   0.034676 0.938868 0.096610 0.554401
H9    H     H_    0.038797 0.449942 0.313020 0.148678
H10   H     H_    0.961458 0.550385 0.686845 0.147824
H11   H     H_    0.968335 0.944403 0.685810 0.151174
H12   H     H_    0.032239 0.054960 0.314042 0.151213
C17   C     C_3   0.938264 0.562759 0.033085 -0.127006
C18   C     C_3   0.061933 0.437394 0.966757 -0.124598
C19   C     C_3   0.062106 0.062453 0.966914 -0.127581
C20   C     C_3   0.938305 0.937213 0.032844 -0.121800
C21   C     C_3   0.921631 0.471800 0.115248 -0.281167
C22   C     C_3   0.078615 0.528346 0.884496 -0.285368
C23   C     C_3   0.080522 0.970419 0.893018 -0.285826
C24   C     C_3   0.919934 0.029221 0.106688 -0.287086
C25   C     C_2   0.448069 0.578693 0.109822 -0.215878
C26   C     C_2   0.651461 0.467616 0.236976 -0.255922
C27   C     C_2   0.408419 0.000780 0.899650 -0.177086
C28   C     C_2   0.363252 0.885813 0.468089 -0.234042
H13   H     H_    0.857079 0.448568 0.208373 0.138718
H14   H     H_    0.143364 0.551337 0.791480 0.123561
H15   H     H_    0.146630 0.946679 0.806694 0.132128
H16   H     H_    0.853703 0.053156 0.192340 0.120628
C29   C     C_2   0.508822 0.548303 0.217581 -0.103480
C30   C     C_2   0.591421 0.498928 0.128779 -0.087040
C31   C     C_2   0.414725 0.977820 0.713477 -0.143180
C32   C     C_2   0.357184 0.908283 0.654594 -0.136717
O21   O     O_3   0.070550 0.632751 0.181192 -0.539496
C33   C     C_3   0.159360 0.613225 0.227148 -0.208430
H17   H     H_    0.209968 0.596149 0.094802 0.121138
H18   H     H_    0.154706 0.561739 0.337458 0.116948
H19   H     H_    0.187028 0.670150 0.291858 0.166050
O22   O     O_3   0.929596 0.367288 0.819190 -0.536579
C34   C     C_3   0.842547 0.387953 0.765913 -0.224668
H20   H     H_    0.850657 0.436952 0.649500 0.118533
H21   H     H_    0.791217 0.408998 0.893601 0.131119
H22   H     H_    0.813598 0.330458 0.706119 0.161471
O23   O     O_3   0.933775 0.129234 0.801277 -0.536125
C35   C     C_3   0.848542 0.107152 0.741593 -0.226396
H23   H     H_    0.794891 0.087958 0.867254 0.113915
H24   H     H_    0.858995 0.056295 0.629626 0.119490
H25   H     H_    0.821205 0.163421 0.673606 0.161068
O24   O     O_3   0.065915 0.870587 0.200156 -0.540252
C36   C     C_3   0.154313 0.890082 0.247952 -0.206431
H26   H     H_    0.150635 0.945692 0.346997 0.123696
H27   H     H_    0.206901 0.900798 0.114954 0.111820
H28   H     H_    0.178438 0.835338 0.326573 0.173005

loop_
_geom_bond_atom_site_label_1
_geom_bond_atom_site_label_2
_ccdc_geom_bond_type
C19   C23   S    
O12   C5    A    
O21   C33   S    
C35   H25   S    
C10   C22   S    
O12   V1    S    
C33   H18   S    
C35   H24   S    
C10   C17   S    
O17   V4    S    
O7    V2    S    
O14   V4    S    
O11   V2    S    
O8    V1    S    
C26   C30   D    
C13   O21   S    
C10   C14   S    
C8    C18   S    
O4    C1    A    
O9    C8    A    
O15   V3    S    
C15   C24   S    
O10   C7    A    
C22   H14   S    
O11   C6    A    
O4    V3    S    
C33   H19   S    
C16   O24   S    
C15   O23   S    
C36   H27   S    
O5    C1    A    
H8    C31   S    
O1    V3    S    
C23   H15   S    
C12   H12   S    
O7    C3    A    
C13   C17   S    
O8    C4    A    
C9    H9    S    
O15   C5    A    
C13   C22   S    
C33   H17   S    
O17   C7    A    
O18   C8    A    
C35   H23   S    
O3    V4    S    
C14   O22   S    
C17   C21   S    
O22   C34   S    
O16   V4    S    
C5    C19   S    
O10   V2    S    
C6    C20   S    
C20   C24   S    
H1    C26   S    
O6    C2    A    
O2    V4    S    
O23   C35   S    
O5    V1    S    
H3    C28   S    
O6    V2    S    
C14   C18   S    
O1    C4    A    
C7    C17   S    
C36   H28   S    
O2    C3    A    
H6    C29   S    
O3    C2    A    
H5    C30   S    
C10   H10   S    
C27   C31   D    
H7    C32   S    
O16   C6    A    
O13   V1    S    
C14   C21   S    
O14   V2    S    
C16   C23   S    
C15   C19   S    
C18   C22   S    
C25   C29   D    
C16   C20   S    
O9    V1    S    
C21   H13   S    
C34   H22   S    
H2    C25   S    
C11   C23   S    
C34   H21   S    
H4    C27   S    
C9    C21   S    
C31   C32   S    
V3    O19   S    
V4    O20   S    
C12   C19   S    
C11   H11   S    
O18   V3    S    
C12   C24   S    
V1    O19   S    
V2    O20   S    
C28   C32   D    
C29   C30   S    
C9    C18   S    
C34   H20   S    
C11   C20   S    
O13   V3    S    
O24   C36   S    
C24   H16   S    
C9    C13   S    
C36   H26   S    
C11   C15   S    
C12   C16   S    
