data_mof_unit_46729.cif
_audit_creation_date              2013-03-05T15:58:05-0500
_audit_creation_method            fapswitch 2.2
_symmetry_space_group_name_H-M    P1
_symmetry_Int_Tables_number       1
_space_group_crystal_system       triclinic
_cell_length_a                    12.613494
_cell_length_b                    13.189984
_cell_length_c                    14.92441
_cell_angle_alpha                 90.778753
_cell_angle_beta                  103.076481
_cell_angle_gamma                 81.757459
_cell_volume                      2393.17229472

loop_
_atom_site_label
_atom_site_type_symbol
_atom_site_description
_atom_site_fract_x
_atom_site_fract_y
_atom_site_fract_z
_atom_type_partial_charge
O1    O     O_R   0.366740 0.627160 0.477250 -0.562064
O2    O     O_R   0.544830 0.662520 0.507680 -0.612946
C1    C     C_R   0.437853 0.691504 0.484550 0.955787
O3    O     O_R   0.410940 0.482340 0.616930 -0.572626
O4    O     O_R   0.589030 0.517700 0.647360 -0.569554
C2    C     C_R   0.501020 0.500888 0.672534 1.011659
Zn1   Zn    Zn3+2 0.381090 0.476390 0.479680 1.113509
Zn2   Zn    Zn3+2 0.618910 0.523610 0.520320 1.034611
O5    O     O_R   0.455170 0.337480 0.492320 -0.592277
O6    O     O_R   0.633260 0.372840 0.522750 -0.612314
O7    O     O_R   0.410970 0.482300 0.352640 -0.546932
O8    O     O_R   0.589060 0.517660 0.383070 -0.676294
C3    C     C_R   0.562194 0.308390 0.513333 0.933000
C4    C     C_R   0.498356 0.500947 0.327337 0.897513
C5    C     C_R   0.539302 0.415543 0.193456 -0.247564
C6    C     C_R   0.494544 0.503576 0.231363 -0.122214
C7    C     C_R   0.452848 0.594361 0.179672 0.261018
C8    C     C_R   0.456187 0.595716 0.086473 0.004384
C9    C     C_R   0.501850 0.505958 0.047552 0.069568
C10   C     C_R   0.542982 0.415782 0.101605 0.124256
C11   C     C_R   0.412644 0.683405 0.030827 -0.101805
C12   C     C_R   0.417092 0.683735 0.938947 -0.073976
C13   C     C_R   0.463795 0.595953 0.899929 0.012865
C14   C     C_R   0.505073 0.505709 0.954311 0.009181
C15   C     C_R   0.548153 0.414705 0.915479 0.007642
C16   C     C_R   0.588399 0.325904 0.970694 -0.064686
C17   C     C_R   0.586479 0.326797 0.063168 -0.145963
C18   C     C_R   0.466158 0.595189 0.806798 0.266320
C19   C     C_R   0.503315 0.503027 0.768495 -0.246311
C20   C     C_R   0.546412 0.413665 0.821609 0.228919
H1    H     H_    0.571641 0.347016 0.236040 0.154280
H2    H     H_    0.620367 0.254849 0.942847 0.215826
H3    H     H_    0.617793 0.257376 0.104442 0.177782
C21   C     C_R   0.730786 0.049261 0.501216 0.227807
C22   C     C_R   0.601759 0.197895 0.522818 -0.193607
C23   C     C_R   0.295189 0.841682 0.495529 0.301458
C24   C     C_R   0.284361 0.936801 0.536955 -0.159378
C25   C     C_R   0.371249 0.994358 0.554720 0.224981
C26   C     C_R   0.462669 0.966323 0.513298 0.024030
C27   C     C_R   0.474187 0.869587 0.472346 0.042872
C28   C     C_R   0.543950 0.029880 0.511899 0.080991
C29   C     C_R   0.644058 0.990070 0.487979 -0.006162
C30   C     C_R   0.652834 0.894447 0.447207 -0.104552
C31   C     C_R   0.565250 0.839334 0.432729 -0.036492
C32   C     C_R   0.522388 0.134687 0.522597 -0.110170
C33   C     C_R   0.711136 0.153507 0.523585 0.197686
C34   C     C_R   0.397765 0.802363 0.476018 -0.181305
H4    H     H_    0.571835 0.770041 0.393540 0.182273
C35   C     C_R   0.085055 0.351726 0.366174 0.159533
N1    N     N_R   0.222190 0.444670 0.452360 -0.189433
C36   C     C_R   0.804398 0.621466 0.616907 0.275329
C37   C     C_R   0.914822 0.630010 0.655015 0.121815
C38   C     C_R   0.997453 0.572780 0.618887 0.182342
C39   C     C_R   0.967395 0.516273 0.537380 -0.078423
C40   C     C_R   0.855330 0.501973 0.507806 0.130045
C41   C     C_R   0.043548 0.470488 0.485736 0.016728
C42   C     C_R   0.009916 0.400238 0.415460 -0.004822
C43   C     C_R   0.901948 0.379264 0.395848 -0.087592
C44   C     C_R   0.826321 0.429799 0.440809 -0.074585
C45   C     C_R   0.150435 0.495704 0.497642 0.019169
C46   C     C_R   0.192670 0.374071 0.387403 0.347630
N2    N     N_R   0.776970 0.554790 0.547140 -0.199529
H5    H     H_    0.746335 0.407638 0.423870 0.191024
H6    H     H_    0.724847 0.863748 0.422269 0.190344
N3    N     N_R   0.838582 0.003070 0.494452 0.237055
O9    O     O_R   0.862237 0.990223 0.414234 -0.319319
O10   O     O_R   0.915272 0.980735 0.568703 -0.235459
H7    H     H_    0.439658 0.168942 0.523130 0.222505
N4    N     N_R   0.204296 0.784165 0.478911 0.238910
O11   O     O_R   0.137363 0.791335 0.534240 -0.298232
O12   O     O_R   0.176694 0.740040 0.400231 -0.301267
N5    N     N_R   0.371068 0.071525 0.623574 0.214560
O13   O     O_R   0.458000 0.073260 0.689684 -0.260557
O14   O     O_R   0.279841 0.128940 0.628936 -0.298706
H8    H     H_    0.210953 0.962589 0.561859 0.246491
N6    N     N_R   0.268612 0.329479 0.334970 0.242849
O15   O     O_R   0.322164 0.238313 0.357414 -0.365496
O16   O     O_R   0.259680 0.365124 0.252344 -0.306625
H9    H     H_    0.874434 0.323284 0.345463 0.198387
N7    N     N_R   0.052480 0.282348 0.293500 0.235351
O17   O     O_R   0.980114 0.315499 0.219268 -0.326482
O18   O     O_R   0.101260 0.188112 0.298248 -0.257022
N8    N     N_R   0.409634 0.684416 0.222432 0.171913
O19   O     O_R   0.453447 0.768073 0.223772 -0.403383
O20   O     O_R   0.327377 0.682511 0.261205 -0.324415
H10   H     H_    0.178086 0.557666 0.539947 0.212679
N9    N     N_R   0.722310 0.673113 0.660303 0.264349
O21   O     O_R   0.721443 0.644419 0.743185 -0.294816
O22   O     O_R   0.677702 0.765708 0.632766 -0.325009
N10   N     N_R   0.108561 0.561535 0.672602 0.218835
O23   O     O_R   0.161964 0.470618 0.697052 -0.313511
O24   O     O_R   0.153786 0.641735 0.702941 -0.267920
N11   N     N_R   0.942681 0.690231 0.735498 0.278949
O25   O     O_R   0.904949 0.787482 0.733486 -0.235260
O26   O     O_R   0.997313 0.646269 0.813036 -0.250343
H11   H     H_    0.373322 0.752043 0.057123 0.223058
H12   H     H_    0.381036 0.752619 0.898356 0.216807
N12   N     N_R   0.434330 0.687894 0.751646 0.200807
O27   O     O_R   0.356795 0.692904 0.677110 -0.357871
O28   O     O_R   0.487368 0.765633 0.773267 -0.298231
N13   N     N_R   0.588010 0.322487 0.779564 0.197375
O29   O     O_R   0.692729 0.288183 0.799832 -0.294503
O30   O     O_R   0.522415 0.278042 0.716289 -0.334021
N14   N     N_R   0.800905 0.212121 0.547308 0.226249
O31   O     O_R   0.813743 0.263925 0.622884 -0.266956
O32   O     O_R   0.880292 0.199116 0.503969 -0.332328

loop_
_geom_bond_atom_site_label_1
_geom_bond_atom_site_label_2
_geom_bond_distance
_ccdc_geom_bond_type
C27   C34   1.410205 A    
N9    O21   1.301336 A    
C16   H2    1.081931 S    
N11   O25   1.300907 A    
C40   C44   1.395832 A    
C8    C11   1.402394 A    
C28   C29   1.416470 A    
C9    C10   1.412248 A    
C21   C29   1.410017 A    
C37   C38   1.401606 A    
N14   O32   1.300497 A    
C42   C43   1.393662 A    
C26   C28   1.418069 A    
C38   C39   1.423615 A    
C17   H3    1.084169 S    
Zn1   O7    2.019584 S    
C10   C17   1.395412 A    
C16   C17   1.385654 A    
N13   O29   1.300961 A    
C23   C24   1.393908 A    
N6    O16   1.300800 A    
C3    C22   1.469111 S    
O4    C2    1.297786 A    
O7    C4    1.298703 A    
C5    C6    1.387721 A    
C40   N2    1.364139 A    
C35   C42   1.406248 A    
C41   C42   1.422512 A    
C23   C34   1.414838 A    
C8    C9    1.417026 A    
N4    O12   1.301284 A    
O5    C3    1.315722 A    
C6    C7    1.402342 A    
N3    O10   1.301003 A    
C13   C14   1.415631 A    
C21   C33   1.410948 A    
C19   C20   1.399948 A    
C24   H8    1.083125 S    
N13   O30   1.300174 A    
C12   H12   1.082197 S    
C11   C12   1.385114 A    
C36   N2    1.369905 A    
O3    Zn1   1.999719 S    
C21   N3    1.432847 S    
N14   O31   1.301325 A    
C30   H6    1.082116 S    
C25   N5    1.436637 S    
C46   N6    1.428632 S    
C5    C10   1.382126 A    
C39   C41   1.427392 A    
C35   C46   1.395479 A    
C36   C37   1.400342 A    
C14   C15   1.417217 A    
N7    O18   1.300753 A    
C36   N9    1.429967 S    
C26   C27   1.410151 A    
C45   H10   1.075302 S    
N7    O17   1.301117 A    
C43   C44   1.378310 A    
C33   N14   1.437823 S    
C41   C45   1.406582 A    
O1    C1    1.307010 A    
C30   C31   1.383315 A    
C24   C25   1.396212 A    
N10   O24   1.300986 A    
N8    O19   1.301006 A    
Zn2   O8    1.999719 S    
C32   H7    1.077780 S    
C7    C8    1.401495 A    
C37   N11   1.435381 S    
C13   C18   1.396836 A    
N6    O15   1.300040 A    
C43   H9    1.082309 S    
N5    O14   1.301603 A    
N8    O20   1.300595 A    
O8    C4    1.298511 A    
N3    O9    1.301032 A    
N12   O28   1.301180 A    
N9    O22   1.299665 A    
C4    C6    1.422985 S    
O3    C2    1.298860 A    
C29   C30   1.393883 A    
C22   C32   1.391093 A    
C23   N4    1.437735 S    
C18   N12   1.439083 S    
C15   C20   1.396063 A    
Zn1   O5    1.924701 S    
C39   C40   1.421384 A    
C18   C19   1.401128 A    
O1    Zn1   1.970940 S    
Zn2   O6    1.970941 S    
O2    Zn2   1.924702 S    
Zn1   N1    2.055349 S    
N5    O13   1.301306 A    
O6    C3    1.305434 A    
O4    Zn2   2.019584 S    
C5    H1    1.086219 S    
C11   H11   1.081358 S    
C44   H5    1.065065 S    
C35   N7    1.435886 S    
N1    C45   1.348600 A    
C9    C14   1.401272 A    
C15   C16   1.405396 A    
N10   O23   1.301541 A    
C25   C26   1.429227 A    
C20   N13   1.436293 S    
C1    C34   1.474426 S    
O2    C1    1.315669 A    
N4    O11   1.301540 A    
C27   C31   1.413371 A    
C2    C19   1.425881 S    
N11   O26   1.301175 A    
N12   O27   1.299794 A    
C38   N10   1.436660 S    
N1    C46   1.362767 A    
C28   C32   1.384311 A    
C12   C13   1.402873 A    
C7    N8    1.437522 S    
C22   C33   1.416937 A    
C31   H4    1.081671 S    
Zn2   N2    2.042956 S    
