data_mof_unit_5251.cif
_audit_creation_date              2012-12-11T15:15:38-0500
_audit_creation_method            fapswitch 2.2
_symmetry_space_group_name_H-M    P1
_symmetry_Int_Tables_number       1
_space_group_crystal_system       triclinic
_cell_length_a                    18.943204
_cell_length_b                    19.308392
_cell_length_c                    20.391261
_cell_angle_alpha                 107.091655
_cell_angle_beta                  106.223046
_cell_angle_gamma                 112.381796
_cell_volume                      5910.720059

loop_
_atom_site_label
_atom_site_type_symbol
_atom_type_description
_atom_site_fract_x
_atom_site_fract_y
_atom_site_fract_z
_atom_type_partial_charge
Br1   Br    Br    0.049447 0.725835 0.377669 -0.596186
Br2   Br    Br    0.477071 0.211919 0.396358 -0.540298
Br3   Br    Br    0.712017 0.717710 0.406636 -0.614179
Br4   Br    Br    0.716220 0.003201 0.929409 -0.543971
Br5   Br    Br    0.845188 0.792182 0.854172 -0.554818
C1    C     C_R   0.035034 0.084699 0.343640 0.547298
C2    C     C_R   0.244924 0.072950 0.505082 0.541511
C3    C     C_3   0.244838 0.042533 0.318461 0.219158
C4    C     C_3   0.264702 0.037306 0.249905 -0.292515
C5    C     C_3   0.183149 0.986836 0.175003 -0.994757
C6    C     C_3   0.683561 0.250882 0.473841 0.195656
C7    C     C_3   0.743457 0.325394 0.466962 -0.194261
C8    C     C_3   0.811123 0.398305 0.545076 -1.058238
C9    C     C_3   0.229849 0.149712 0.879468 0.161797
C10   C     C_3   0.161434 0.061728 0.858584 -0.236005
C11   C     C_3   0.117275 0.064247 0.910709 -1.013936
C12   C     C_3   0.945575 0.297068 0.638266 0.154307
C13   C     C_R   0.161810 0.191513 0.719414 -0.024991
C14   C     C_3   0.905403 0.283713 0.692186 -0.253826
C15   C     C_3   0.855103 0.328882 0.699376 -1.042234
C16   C     C_3   0.817398 0.090153 0.759735 0.163502
C17   C     C_3   0.775271 0.035393 0.673031 -0.312420
C18   C     C_3   0.694316 0.035696 0.632850 -0.978777
C19   C     C_3   0.670888 0.801473 0.043303 0.227776
C20   C     C_3   0.680266 0.724774 0.037962 -0.284005
C21   C     C_3   0.628205 0.675629 0.070383 -1.018901
C22   C     C_R   0.756575 0.927091 0.450067 -0.095833
C23   C     C_R   0.017800 0.775124 0.451975 0.334191
C24   C     C_R   0.244573 0.224333 0.727615 0.065040
C25   C     C_R   0.985139 0.737956 0.493105 -0.054023
C26   C     C_R   0.248542 0.003184 0.463570 -0.058249
C27   C     C_R   0.937655 0.977415 0.713491 0.095621
C28   C     C_R   0.038529 0.686092 0.577003 -0.173600
C29   C     C_R   0.989281 0.670322 0.503774 0.132590
C30   C     C_R   0.745703 0.994834 0.456707 0.041741
C31   C     C_R   0.943712 0.591315 0.442058 -0.167415
C32   C     C_R   0.951872 0.526801 0.452331 0.167677
C33   C     C_R   0.005159 0.542604 0.525825 -0.022433
C34   C     C_R   0.847460 0.777346 0.291104 -0.182915
C35   C     C_R   0.046219 0.621932 0.589337 -0.122680
C36   C     C_R   0.910205 0.447879 0.389826 -0.183727
C37   C     C_R   0.924403 0.385314 0.398825 -0.220437
C38   C     C_R   0.980477 0.401877 0.470243 0.201166
C39   C     C_R   0.020057 0.480182 0.534703 0.001231
C40   C     C_R   0.076397 0.496530 0.607103 -0.143526
C41   C     C_R   0.772277 0.725194 0.289625 -0.048552
C42   C     C_R   0.111317 0.573197 0.671865 0.421038
C43   C     C_R   0.096050 0.636135 0.662972 0.407690
C44   C     C_R   0.997622 0.341058 0.478241 -0.268295
C45   C     C_R   0.054763 0.358190 0.548899 0.088252
C46   C     C_R   0.003616 0.235313 0.572413 0.500601
C47   C     C_R   0.095971 0.435325 0.612617 -0.158233
C48   C     C_R   0.326321 0.929539 0.439866 0.466637
C49   C     C_R   0.312403 0.996056 0.439788 -0.287616
C50   C     C_R   0.352374 0.047600 0.409381 0.555819
C51   C     C_R   0.425753 0.050158 0.403057 -0.237120
C52   C     C_R   0.059987 0.289282 0.556113 -0.108172
C53   C     C_R   0.437584 0.981896 0.401963 -0.133414
C54   C     C_R   0.380673 0.916673 0.411011 0.009705
C55   C     C_R   0.488064 0.117409 0.399267 0.252635
C56   C     C_R   0.564962 0.119905 0.403537 0.430056
C57   C     C_R   0.575900 0.051568 0.403484 -0.077812
C58   C     C_R   0.771554 0.769005 0.356531 0.277417
C59   C     C_R   0.508587 0.979974 0.396205 0.062318
C60   C     C_R   0.515149 0.908186 0.389387 0.189985
C61   C     C_R   0.450135 0.837866 0.384575 -0.238952
C62   C     C_R   0.384215 0.842952 0.397608 -0.131944
C63   C     C_R   0.239943 0.204618 0.655053 -0.159312
C64   C     C_R   0.654353 0.054739 0.416158 -0.179718
C65   C     C_R   0.662806 0.986510 0.419055 0.092273
C66   C     C_R   0.590471 0.910712 0.396687 -0.268738
C67   C     C_R   0.322661 0.262081 0.797427 -0.022780
C68   C     C_R   0.328437 0.222261 0.845105 0.547536
C69   C     C_R   0.406963 0.256289 0.907503 -0.330485
C70   C     C_R   0.083411 0.244101 0.510339 -0.108902
C71   C     C_R   0.477372 0.331014 0.924456 0.173862
C72   C     C_R   0.471252 0.368664 0.875661 -0.154895
C73   C     C_R   0.394491 0.334311 0.812466 -0.267685
C74   C     C_R   0.945185 0.775321 0.522068 -0.146852
C75   C     C_R   0.696786 0.503178 0.154145 -0.170880
C76   C     C_R   0.750746 0.587217 0.207593 -0.180037
C77   C     C_R   0.630015 0.595880 0.219119 -0.111394
C78   C     C_R   0.576397 0.511587 0.166803 -0.168458
C79   C     C_R   0.608954 0.465836 0.131832 0.206942
C80   C     C_2   0.554662 0.376889 0.997256 -0.177197
C81   C     C_2   0.548229 0.386079 0.062792 -0.217228
C82   C     C_R   0.822309 0.066285 0.513434 -0.154582
C83   C     C_R   0.717247 0.634758 0.238719 0.173840
C84   C     C_R   0.917166 0.013010 0.203211 0.149054
C85   C     C_R   0.170637 0.934300 0.435761 -0.136632
C86   C     C_R   0.842064 0.936570 0.148848 -0.361447
C87   C     C_R   0.791808 0.927268 0.077938 0.567208
C88   C     C_R   0.819439 0.995985 0.061735 -0.008723
C89   C     C_R   0.887006 0.074873 0.119160 -0.265399
C90   C     C_R   0.935274 0.083531 0.189650 -0.162640
C91   C     C_R   0.863506 0.021108 0.867464 -0.336006
C92   C     C_R   0.885676 0.027913 0.808770 0.548762
C93   C     C_R   0.887841 0.897681 0.781980 -0.341630
C94   C     C_R   0.965705 0.945216 0.281779 -0.227597
C95   C     C_R   0.861521 0.889038 0.837785 0.367825
C96   C     C_R   0.984612 0.051055 0.710617 -0.125977
C97   C     C_R   0.850758 0.951832 0.882043 0.083348
C98   C     C_2   0.799524 0.980768 0.982391 0.359972
C99   C     C_2   0.844244 0.953362 0.952455 -0.188234
C100  C     C_R   0.903419 0.968309 0.768962 -0.048389
C101  C     C_R   0.974721 0.015954 0.272041 -0.091962
C102  C     C_3   0.135471 0.195119 0.340603 0.076286
C103  C     C_3   0.221370 0.229476 0.407461 -0.335141
C104  C     C_3   0.294703 0.262186 0.386622 -0.795543
C105  C     C_3   0.388634 0.177113 0.580519 0.225029
C106  C     C_3   0.399186 0.162052 0.652083 -0.418504
C107  C     C_R   0.916030 0.911737 0.646467 -0.149064
C108  C     C_3   0.482598 0.163006 0.685552 -0.959821
C109  C     C_3   0.114096 0.551749 0.777048 0.182147
C110  C     C_3   0.159019 0.606677 0.863536 -0.231929
C111  C     C_3   0.107526 0.569159 0.902284 -1.012433
C112  C     C_3   0.079064 0.720488 0.754762 0.187674
C113  C     C_3   0.123152 0.808155 0.820936 -0.287073
C114  C     C_3   0.063715 0.819642 0.854796 -0.944846
C115  C     C_3   0.322353 0.909898 0.545040 0.235658
C116  C     C_3   0.395998 0.894464 0.574643 -0.378972
C117  C     C_3   0.431543 0.924480 0.660952 -0.904973
H1    H     H_    0.907637 0.756913 0.551634 0.141270
H2    H     H_    0.893117 0.324685 0.349733 0.142117
H3    H     H_    0.829660 0.154445 0.770548 0.140348
H4    H     H_    0.773074 0.066574 0.784365 0.130428
H5    H     H_    0.820788 0.059572 0.650031 0.219807
H6    H     H_    0.758983 0.969791 0.660687 0.208883
H7    H     H_    0.647943 0.012219 0.655418 0.275135
H8    H     H_    0.664606 0.994109 0.570568 0.279453
H9    H     H_    0.709433 0.100137 0.641383 0.261320
H10   H     H_    0.604385 0.778672 0.003623 0.138540
H11   H     H_    0.679331 0.838005 0.101448 0.075187
H12   H     H_    0.658424 0.682969 0.977023 0.222765
H13   H     H_    0.965399 0.279458 0.429921 0.145621
H14   H     H_    0.748104 0.744588 0.069756 0.200589
H15   H     H_    0.650903 0.715543 0.132009 0.269149
H16   H     H_    0.635499 0.620010 0.064608 0.278751
H17   H     H_    0.559701 0.653793 0.038743 0.272370
H18   H     H_    0.140057 0.445347 0.666226 0.159208
H19   H     H_    0.709744 0.110871 0.428189 0.138570
H20   H     H_    0.875576 0.758446 0.254970 0.131146
H21   H     H_    0.594382 0.856186 0.396087 0.139641
H22   H     H_    0.454392 0.782006 0.378075 0.146360
H23   H     H_    0.338345 0.790645 0.400488 0.178740
H24   H     H_    0.818178 0.615255 0.223154 0.147237
H25   H     H_    0.602633 0.631604 0.241460 0.148199
H26   H     H_    0.146983 0.874496 0.389447 0.211496
H27   H     H_    0.487277 0.348449 0.060866 0.137089
H28   H     H_    0.525171 0.426420 0.887996 0.132524
H29   H     H_    0.722857 0.468400 0.127745 0.134617
H30   H     H_    0.390854 0.364451 0.775417 0.155053
H31   H     H_    0.612851 0.420948 0.999145 0.133080
H32   H     H_    0.413286 0.224554 0.942726 0.145648
H33   H     H_    0.508510 0.483898 0.149228 0.122385
H34   H     H_    0.824145 0.882662 0.159756 0.135046
H35   H     H_    0.899307 0.850421 0.750729 0.174991
H36   H     H_    0.885458 0.937092 0.985790 0.147435
H37   H     H_    0.004050 0.113967 0.749113 0.159964
H38   H     H_    0.907961 0.127952 0.106604 0.163817
H39   H     H_    0.860514 0.072470 0.903836 0.187150
H40   H     H_    0.989334 0.144377 0.230428 0.159462
H41   H     H_    0.131883 0.270716 0.493324 0.166321
H42   H     H_    0.835844 0.129966 0.532235 0.109134
H43   H     H_    0.925771 0.880706 0.239019 0.142782
H44   H     H_    0.292107 0.227749 0.641504 0.163136
H45   H     H_    0.137728 0.246850 0.326131 0.151374
H46   H     H_    0.125834 0.145241 0.288416 0.086165
H47   H     H_    0.233128 0.282323 0.457750 0.202076
H48   H     H_    0.869115 0.846587 0.624693 0.134038
H49   H     H_    0.220748 0.179417 0.423818 0.236534
H50   H     H_    0.284487 0.212800 0.334375 0.262439
H51   H     H_    0.355212 0.282156 0.434512 0.300830
H52   H     H_    0.300271 0.317018 0.376344 0.239004
H53   H     H_    0.431474 0.245029 0.600676 0.137079
H54   H     H_    0.413314 0.145905 0.546690 0.126958
H55   H     H_    0.400785 0.212548 0.696923 0.219386
H56   H     H_    0.345732 0.101253 0.638699 0.204023
H57   H     H_    0.483774 0.112336 0.643202 0.257400
H58   H     H_    0.488967 0.152928 0.737295 0.279084
H59   H     H_    0.141767 0.196975 0.764352 0.085041
H60   H     H_    0.537493 0.224502 0.702038 0.269436
H61   H     H_    0.108217 0.489538 0.766103 0.108482
H62   H     H_    0.048491 0.542391 0.754423 0.055042
H63   H     H_    0.222702 0.612819 0.887502 0.207814
H64   H     H_    0.168198 0.670346 0.876012 0.205716
H65   H     H_    0.044346 0.564456 0.880518 0.271652
H66   H     H_    0.142074 0.610046 0.965009 0.277562
H67   H     H_    0.098318 0.505724 0.891221 0.270924
H68   H     H_    0.058668 0.673395 0.776427 0.097155
H69   H     H_    0.021404 0.710802 0.710325 0.092384
H70   H     H_    0.072309 0.749107 0.623375 0.155368
H71   H     H_    0.180094 0.818257 0.866403 0.213771
H72   H     H_    0.144465 0.855913 0.800108 0.203134
H73   H     H_    0.007822 0.812786 0.810943 0.276585
H74   H     H_    0.098201 0.883323 0.903469 0.271227
H75   H     H_    0.041505 0.772551 0.876057 0.281767
H76   H     H_    0.273123 0.879183 0.562432 0.151810
H77   H     H_    0.344915 0.978103 0.572872 0.081923
H78   H     H_    0.373266 0.826316 0.545715 0.229126
H79   H     H_    0.448102 0.928822 0.561683 0.201522
H80   H     H_    0.455364 0.992704 0.691132 0.263608
H81   H     H_    0.904164 0.581137 0.386145 0.148553
H82   H     H_    0.485230 0.913277 0.680695 0.280238
H83   H     H_    0.381510 0.889647 0.675706 0.273251
H84   H     H_    0.202909 0.069800 0.318208 0.113360
H85   H     H_    0.206697 0.977956 0.311286 0.075969
H86   H     H_    0.301430 0.101450 0.256316 0.240093
H87   H     H_    0.303916 0.006882 0.247586 0.207648
H88   H     H_    0.145877 0.921807 0.166528 0.274517
H89   H     H_    0.199457 0.984041 0.126399 0.279567
H90   H     H_    0.143585 0.017023 0.175459 0.263054
H91   H     H_    0.721910 0.230749 0.507161 0.066594
H92   H     H_    0.868530 0.435336 0.333797 0.141694
H93   H     H_    0.650181 0.271489 0.505421 0.129953
H94   H     H_    0.775532 0.305165 0.433739 0.198069
H95   H     H_    0.705568 0.347221 0.435523 0.227868
H96   H     H_    0.781147 0.416019 0.581751 0.284436
H97   H     H_    0.847754 0.453489 0.537604 0.278909
H98   H     H_    0.856048 0.381054 0.573784 0.265456
H99   H     H_    0.201506 0.190818 0.880575 0.094467
H100  H     H_    0.280532 0.174962 0.937793 0.094201
H101  H     H_    0.113362 0.031908 0.798308 0.213194
H102  H     H_    0.191170 0.022623 0.863707 0.199672
H103  H     H_    0.712101 0.862865 0.408757 0.134103
H104  H     H_    0.164267 0.093000 0.971315 0.269626
H105  H     H_    0.068803 0.999456 0.894595 0.281318
H106  H     H_    0.084910 0.100984 0.904736 0.273416
H107  H     H_    0.894105 0.270947 0.579932 0.071635
H108  H     H_    0.986013 0.365378 0.659508 0.112983
H109  H     H_    0.862327 0.215501 0.670626 0.197454
H110  H     H_    0.956434 0.307759 0.749902 0.213965
H111  H     H_    0.896567 0.397106 0.719522 0.272584
H112  H     H_    0.830227 0.320393 0.741403 0.278056
H113  H     H_    0.800318 0.302356 0.643515 0.268733
N1    N     N_R   0.052580 0.056040 0.395500 -0.102258
N2    N     N_R   0.890210 0.849400 0.355780 -0.047938
N3    N     N_R   0.997110 0.161140 0.539580 -0.088448
N4    N     N_R   0.841950 0.845400 0.395490 -0.067700
N5    N     N_R   0.045360 0.165140 0.499870 -0.068991
N6    N     N_R   0.877490 0.041510 0.539580 -0.043746
N7    N     N_R   0.009820 0.969030 0.355780 -0.068480
N8    N     N_R   0.158050 0.154600 0.604510 -0.045633
N9    N     N_R   0.954640 0.834860 0.500130 -0.050064
N10   N     N_R   0.122510 0.958490 0.460420 -0.084393
N11   N     N_R   0.990180 0.030970 0.644220 -0.053060
N12   N     N_R   0.947420 0.943960 0.604500 -0.039677
N13   N     N_R   0.165270 0.045500 0.500140 -0.104658
N14   N     N_R   0.109790 0.150600 0.644220 -0.046874
N15   N     N_R   0.002890 0.838860 0.460420 -0.071432
N16   N     N_R   0.834730 0.954500 0.499860 -0.037384
Ni1   Ni    Ni4+2 0.104370 0.104380 0.500010 0.226288
Ni2   Ni    Ni4+2 0.895630 0.895620 0.499990 0.257909
Ni3   Ni    Ni4+2 0.006300 0.904810 0.408930 0.216733
Ni4   Ni    Ni4+2 0.993700 0.095190 0.591070 0.247344
O1    O     O_3   0.067603 0.168423 0.361032 -0.681785
O2    O     O_3   0.897041 0.096602 0.795085 -0.684349
O3    O     O_3   0.725602 0.849341 0.018743 -0.641197
O4    O     O_3   0.304767 0.157241 0.535383 -0.677644
O5    O     O_3   0.164019 0.589523 0.743816 -0.621558
O6    O     O_3   0.136907 0.713904 0.725511 -0.621545
O7    O     O_3   0.283386 0.873849 0.464072 -0.635042
O8    O     O_3   0.320647 0.095487 0.388305 -0.602169
O9    O     O_3   0.625338 0.185072 0.399390 -0.624093
O10   O     O_3   0.261351 0.144391 0.824052 -0.661901
O11   O     O_3   0.996574 0.259411 0.640111 -0.668778

loop_
_geom_bond_atom_site_label_1
_geom_bond_atom_site_label_2
_ccdc_geom_bond_type
C19   H11   S    
N15   Ni3   S    
C75   H29   S    
C111  H67   S    
C85   N10   A    
C11   H105  S    
C88   C89   A    
N8    N14   A    
C91   C97   A    
C107  N12   A    
C68   C69   A    
C92   O2    S    
C9    H99   S    
C2    O4    S    
C14   C15   S    
N6    N16   A    
C75   C79   A    
C21   H15   S    
C16   O2    S    
C88   C98   S    
C77   H25   S    
C48   C54   A    
C37   H2    S    
C105  H53   S    
C103  C104  S    
C111  H66   S    
C11   H104  S    
C32   C33   A    
C93   C100  A    
N9    N15   A    
C28   H70   S    
C50   O8    S    
C31   C32   A    
C79   C81   S    
C85   H26   S    
C64   C65   A    
C58   N4    A    
C9    C10   S    
C110  H63   S    
Br2   C55   S    
N16   Ni2   S    
C61   H22   S    
N11   Ni4   S    
C13   N14   A    
C64   H19   S    
C110  C111  S    
Br4   C98   S    
C19   O3    S    
C43   O6    S    
C115  H77   S    
C91   H39   S    
C18   H7    S    
C70   H41   S    
C114  H74   S    
C36   C37   A    
C117  H82   S    
C10   H102  S    
C20   H14   S    
C113  H71   S    
C22   N16   A    
C113  C114  S    
C57   C59   A    
C112  H69   S    
C54   C62   A    
C105  C106  S    
C30   C82   A    
C5    H88   S    
C107  H48   S    
C42   C43   A    
C30   C65   S    
C4    H87   S    
C3    C4    S    
C84   C101  S    
N4    Ni2   S    
Br1   C23   S    
C67   C73   A    
C102  C103  S    
C93   H35   S    
C65   C66   A    
N6    Ni4   S    
C31   H81   S    
C8    H96   S    
C84   C86   A    
N5    Ni1   S    
C14   H110  S    
N11   N12   A    
C29   C31   A    
C77   C83   A    
C9    O10   S    
C67   C68   A    
C24   C67   S    
C112  O6    S    
C105  H54   S    
C26   C85   A    
C82   H42   S    
C44   H13   S    
C8    H98   S    
C16   C17   S    
C32   C36   A    
C117  H83   S    
C70   N5    A    
C89   C90   A    
N1    Ni1   S    
C113  H72   S    
C96   N11   A    
N10   N13   A    
C109  C110  S    
C41   C83   S    
C40   C42   A    
C53   C59   A    
C111  H65   S    
C102  H45   S    
C46   O11   S    
C28   C35   A    
C2    C26   A    
C10   C11   S    
C25   C29   S    
C73   H30   S    
N2    Ni3   S    
C19   C20   S    
C21   H17   S    
C90   H40   S    
N3    N5    A    
C86   C87   A    
C110  H64   S    
C12   H107  S    
C104  H52   S    
C38   C44   A    
C13   H59   S    
C22   C30   A    
C20   C21   S    
C72   C73   A    
C74   H1    S    
C2    N13   A    
C77   C78   A    
C62   H23   S    
C48   O7    S    
C51   C55   A    
C18   H8    S    
C55   C56   A    
C69   H32   S    
C84   C90   A    
C3    H85   S    
C97   C99   S    
C38   C39   A    
C116  H78   S    
C33   C39   A    
C12   O11   S    
C106  H56   S    
C24   C63   A    
C19   H10   S    
C115  H76   S    
C78   C79   A    
C8    H97   S    
C34   H20   S    
C42   O5    S    
C6    C7    S    
C15   H113  S    
C91   C92   A    
C50   C51   A    
C95   C97   A    
C28   C29   A    
C1    C101  A    
C18   H9    S    
C106  C108  S    
C13   C24   A    
C80   H31   S    
C6    O9    S    
C71   C72   A    
C3    O8    S    
C3    H84   S    
C20   H12   S    
C96   H37   S    
C80   C81   D    
C27   C96   A    
C68   O10   S    
C6    H91   S    
C34   C41   A    
C46   C52   A    
C25   C74   A    
N12   Ni2   S    
C5    H90   S    
C108  H57   S    
C15   H111  S    
C115  O7    S    
C27   C100  S    
N2    N4    A    
N7    Ni3   S    
C44   C45   A    
C81   H27   S    
C37   C38   A    
C7    H94   S    
C16   H3    S    
C108  H60   S    
C7    H95   S    
C34   N2    A    
C39   C40   A    
C66   H21   S    
C4    C5    S    
Br5   C95   S    
C49   C50   A    
C35   C43   A    
C94   C101  A    
C1    N1    A    
C102  H46   S    
C11   H106  S    
C89   H38   S    
N8    Ni1   S    
C27   C107  A    
N14   Ni4   S    
C114  H75   S    
C45   C52   S    
C9    H100  S    
C17   C18   S    
C22   H103  S    
C56   O9    S    
C99   H36   S    
C75   C76   A    
C21   H16   S    
C4    H86   S    
C72   H28   S    
C87   O3    S    
C12   H108  S    
C116  C117  S    
C48   C49   A    
Br3   C58   S    
C45   C47   A    
C74   N9    A    
N10   Ni3   S    
N3    Ni4   S    
C15   H112  S    
C40   C47   A    
C41   C58   A    
N9    Ni2   S    
C59   C60   A    
C52   C70   A    
C94   N7    A    
C23   C25   A    
C69   C71   A    
C53   C54   A    
C92   C100  A    
C105  O4    S    
C60   C66   A    
C112  C113  S    
C33   C35   A    
C36   H92   S    
C114  H73   S    
C117  H80   S    
C17   H5    S    
C109  O5    S    
C109  H62   S    
C87   C88   A    
C47   H18   S    
C51   C53   A    
C102  O1    S    
C61   C62   A    
C46   N3    A    
C104  H51   S    
C60   C61   A    
C26   C49   S    
C10   H101  S    
C56   C57   A    
C1    O1    S    
C93   C95   A    
C23   N15   A    
C76   C83   A    
C82   N6    A    
C112  H68   S    
C116  H79   S    
C12   C14   S    
N13   Ni1   S    
C5    H89   S    
C86   H34   S    
C108  H58   S    
C78   H33   S    
C7    C8    S    
C57   C64   A    
C104  H50   S    
C76   H24   S    
C103  H49   S    
C98   C99   D    
C106  H55   S    
C115  C116  S    
C63   N8    A    
C16   H4    S    
C103  H47   S    
C14   H109  S    
C71   C80   S    
N1    N7    A    
C109  H61   S    
C17   H6    S    
C6    H93   S    
C94   H43   S    
C63   H44   S    
