data_mof_unit_23885.cif
_audit_creation_date              2012-10-26T18:08:30-0400
_audit_creation_method            fapswitch 2.2
_symmetry_space_group_name_H-M    P1
_symmetry_Int_Tables_number       1
_space_group_crystal_system       triclinic
_cell_length_a                    18.777022
_cell_length_b                    18.701067
_cell_length_c                    18.633515
_cell_angle_alpha                 108.428139
_cell_angle_beta                  109.618667
_cell_angle_gamma                 108.912882
_cell_volume                      5124.89831574

loop_
_atom_site_label
_atom_site_type_symbol
_atom_type_description
_atom_site_fract_x
_atom_site_fract_y
_atom_site_fract_z
_atom_type_partial_charge
C1    C     C_R   0.622477 0.617279 0.503300 0.631073
C2    C     C_R   0.776513 0.698884 0.541112 -0.062530
C3    C     C_3   0.105716 0.677190 0.845927 -0.449324
C4    C     C_R   0.689283 0.681145 0.500846 -0.007951
C5    C     C_R   0.380637 0.499920 0.380921 0.571790
C6    C     C_R   0.666574 0.733326 0.468282 0.223210
C7    C     C_R   0.729306 0.801814 0.472058 0.257924
C8    C     C_R   0.816874 0.822293 0.514148 0.007784
C9    C     C_R   0.596532 0.338811 0.626221 -0.127569
C10   C     C_R   0.590064 0.260696 0.622767 0.296961
C11   C     C_R   0.663567 0.258585 0.672494 0.316690
C12   C     C_R   0.740760 0.335253 0.730203 -0.085408
C13   C     C_3   0.178677 0.463508 0.252034 0.219093
C14   C     C_R   0.745385 0.415157 0.741424 -0.024667
C15   C     C_R   0.674955 0.416639 0.683687 -0.053393
C16   C     C_R   0.684586 0.496101 0.686382 0.052646
C17   C     C_R   0.377608 0.381809 0.496922 0.496910
C18   C     C_R   0.761147 0.573117 0.750171 0.220856
C19   C     C_R   0.826765 0.571415 0.811231 -0.095357
C20   C     C_R   0.819200 0.493598 0.808205 0.021552
C21   C     C_R   0.238151 0.408304 0.524140 -0.085992
C22   C     C_R   0.179412 0.424039 0.547560 0.233721
C23   C     C_R   0.125909 0.365046 0.561532 -0.066309
C24   C     C_3   0.260304 0.545107 0.329428 0.244071
C25   C     C_R   0.127964 0.288266 0.548207 -0.141766
C26   C     C_R   0.184611 0.269563 0.521386 -0.007828
C27   C     C_R   0.244508 0.332707 0.514340 -0.021938
C28   C     C_R   0.305542 0.315897 0.493272 -0.003899
C29   C     C_R   0.618342 0.498494 0.619582 0.578452
C30   C     C_R   0.299001 0.234157 0.469657 -0.156631
C31   C     C_R   0.237993 0.171486 0.473064 -0.150805
C32   C     C_R   0.182305 0.189003 0.500543 0.014792
C33   C     C_R   0.001336 0.618190 0.120638 0.652185
C34   C     C_R   0.122920 0.499556 0.123188 0.642325
C35   C     C_3   0.312926 0.499801 0.313462 -0.059338
C36   C     C_R   0.009092 0.381575 0.890425 0.634115
C37   C     C_R   0.885282 0.496487 0.880012 0.606711
C38   C     C_R   0.996934 0.117415 0.617944 0.606099
C39   C     C_R   0.881631 0.884150 0.504528 0.607110
C40   C     C_R   0.004766 0.885750 0.381311 0.603112
C41   C     C_3   0.328325 0.536543 0.253640 -0.137328
C42   C     C_R   0.117957 0.119651 0.500225 0.536542
C43   C     C_R   0.902476 0.704427 0.072701 0.182888
C44   C     C_R   0.895573 0.764759 0.047139 -0.069462
C45   C     C_R   0.933092 0.849634 0.109010 0.212321
C46   C     C_R   0.804219 0.643129 0.565408 0.284978
C47   C     C_R   0.961820 0.871433 0.197798 0.292075
C48   C     C_R   0.975349 0.810293 0.225079 -0.076717
C49   C     C_R   0.956786 0.731247 0.160061 -0.072889
C50   C     C_R   0.995735 0.683318 0.184013 0.009010
C51   C     C_R   0.038839 0.704500 0.270984 0.236680
C52   C     C_R   0.028725 0.762081 0.330880 0.208340
C53   C     C_3   0.273592 0.580434 0.268108 0.195428
C54   C     C_R   0.005359 0.821153 0.311953 -0.030220
C55   C     C_R   0.056914 0.249214 0.918859 0.281060
C56   C     C_R   0.086203 0.189500 0.926507 0.249911
C57   C     C_R   0.890598 0.674727 0.625300 0.325054
C58   C     C_R   0.047939 0.110857 0.852283 0.221047
C59   C     C_R   0.002096 0.103510 0.771658 0.232744
C60   C     C_R   0.007929 0.177725 0.764244 -0.105345
C61   C     C_R   0.025353 0.248894 0.837099 -0.115099
C62   C     C_R   0.008479 0.314147 0.823780 -0.012536
C63   C     C_R   0.980725 0.309976 0.741569 0.225393
C64   C     C_R   0.972818 0.243788 0.672704 0.236201
C65   C     C_3   0.190772 0.499227 0.190955 0.044059
C66   C     C_R   0.990194 0.179225 0.684718 0.005015
C67   C     C_3   0.244969 0.455719 0.176524 0.208734
C68   C     C_R   0.949434 0.760991 0.659979 -0.141118
C69   C     C_3   0.230978 0.417243 0.235921 -0.163878
C70   C     C_3   0.456238 0.185996 0.603074 -0.005640
C71   C     C_3   0.389228 0.093390 0.568304 -0.261581
C72   C     C_3   0.334939 0.088906 0.613645 -0.471695
C73   C     C_3   0.632889 0.153335 0.713020 0.032052
C74   C     C_3   0.708054 0.189254 0.803197 -0.285818
C75   C     C_3   0.676744 0.155772 0.857619 -0.480571
C76   C     C_3   0.173051 0.729467 0.366835 0.065471
C77   C     C_3   0.220638 0.807377 0.356876 -0.276077
C78   C     C_3   0.312704 0.865863 0.432279 -0.424843
C79   C     C_R   0.925000 0.811946 0.628278 -0.090645
C80   C     C_3   0.918506 0.974668 0.236665 0.075353
C81   C     C_3   0.952280 0.067328 0.252083 -0.257299
C82   C     C_3   0.887306 0.099027 0.254543 -0.469088
C83   C     C_3   0.295094 0.442877 0.075846 -0.000730
C84   C     C_3   0.288852 0.514188 0.054620 -0.260907
C85   C     C_3   0.354955 0.548848 0.027422 -0.460540
C86   C     C_3   0.971956 0.697717 0.397652 0.028119
C87   C     C_3   0.987614 0.699719 0.484345 -0.258976
C88   C     C_3   0.056152 0.673931 0.517816 -0.344503
C89   C     C_3   0.009584 0.258354 0.020290 0.048838
C90   C     C_R   0.840475 0.778590 0.560955 -0.051200
C91   C     C_3   0.913460 0.196393 0.954217 -0.293358
C92   C     C_3   0.870109 0.144616 0.990551 -0.469687
C93   C     C_3   0.218127 0.209540 0.014279 0.051397
C94   C     C_3   0.283372 0.247364 0.109561 -0.248121
C95   C     C_3   0.370449 0.255628 0.120801 -0.473488
C96   C     C_3   0.102459 0.387423 0.302426 0.050379
C97   C     C_3   0.069513 0.290979 0.248196 -0.298535
C98   C     C_3   0.116563 0.256864 0.300492 -0.470966
C99   C     C_3   0.964197 0.642745 0.728354 0.032415
C100  C     C_3   0.056266 0.658495 0.752620 -0.262528
Cl1   Cl    Cl    0.308166 0.687373 0.284780 -0.579036
Cl2   Cl    Cl    0.938171 0.242582 0.571199 -0.519707
Cl3   Cl    Cl    0.270438 0.602923 0.432238 -0.536411
Cl4   Cl    Cl    0.557347 0.710580 0.418901 -0.484895
Cl5   Cl    Cl    0.740779 0.530423 0.510965 -0.500781
Cl6   Cl    Cl    0.696225 0.865781 0.430884 -0.418317
Cl7   Cl    Cl    0.778561 0.673618 0.755412 -0.557368
Cl8   Cl    Cl    0.172250 0.517830 0.558527 -0.574060
Cl9   Cl    Cl    0.827509 0.595968 0.998883 -0.611493
Cl10  Cl    Cl    0.941947 0.926190 0.071870 -0.577258
Cl11  Cl    Cl    0.953179 0.387373 0.723242 -0.536777
Cl12  Cl    Cl    0.046186 0.019212 0.861356 -0.527850
Cl13  Cl    Cl    0.916172 0.002561 0.688244 -0.530631
Cu1   Cu    Cu3+1 0.500510 0.438210 0.438680 1.023048
Cu2   Cu    Cu3+1 0.499490 0.561790 0.561320 1.133549
Cu3   Cu    Cu3+1 0.942090 0.438230 0.003820 1.005426
Cu4   Cu    Cu3+1 0.065710 0.561800 0.003800 0.995723
Cu5   Cu    Cu3+1 0.937720 0.000020 0.437740 1.043132
Cu6   Cu    Cu3+1 0.062280 0.999990 0.562270 0.955712
H1    H     H_    0.016019 0.787742 0.707567 0.123014
H2    H     H_    0.084734 0.243568 0.558686 0.170266
H3    H     H_    0.234029 0.108667 0.453963 0.128193
H4    H     H_    0.860868 0.745588 0.978903 0.205109
H5    H     H_    0.218389 0.351413 0.224372 0.128420
H6    H     H_    0.423226 0.221427 0.583251 0.133411
H7    H     H_    0.490301 0.217850 0.675402 0.108389
H8    H     H_    0.346528 0.064580 0.497480 0.168380
H9    H     H_    0.422575 0.055263 0.578982 0.180462
H10   H     H_    0.375322 0.107640 0.682490 0.142647
H11   H     H_    0.281445 0.022190 0.581069 0.164676
H12   H     H_    0.973518 0.878183 0.660092 0.226811
H13   H     H_    0.307376 0.132887 0.611357 0.178024
H14   H     H_    0.602272 0.082025 0.680586 0.184186
H15   H     H_    0.582595 0.169460 0.719317 0.111394
H16   H     H_    0.756719 0.170266 0.796582 0.190454
H17   H     H_    0.739109 0.260501 0.837510 0.163475
H18   H     H_    0.624939 0.170563 0.861260 0.153691
H19   H     H_    0.730925 0.187527 0.924519 0.148402
H20   H     H_    0.651773 0.085155 0.829018 0.167567
H21   H     H_    0.211949 0.696274 0.372447 0.242604
H22   H     H_    0.171644 0.750914 0.428744 0.187950
H23   H     H_    0.539266 0.337777 0.584925 0.131330
H24   H     H_    0.221633 0.784580 0.294698 0.227437
H25   H     H_    0.187484 0.846841 0.356150 0.144154
H26   H     H_    0.311677 0.893367 0.493964 0.135691
H27   H     H_    0.346423 0.919274 0.421824 0.174388
H28   H     H_    0.349223 0.829823 0.437728 0.239432
H29   H     H_    0.890466 0.969288 0.279476 0.169761
H30   H     H_    0.862936 0.931133 0.169750 0.141031
H31   H     H_    0.013394 0.110035 0.314466 0.197785
H32   H     H_    0.965500 0.071445 0.199471 0.208143
H33   H     H_    0.825960 0.058150 0.192003 0.162325
H34   H     H_    0.797002 0.331369 0.765800 0.165564
H35   H     H_    0.913791 0.166281 0.265830 0.155965
H36   H     H_    0.874287 0.097594 0.308137 0.179356
H37   H     H_    0.286621 0.392302 0.017814 0.142553
H38   H     H_    0.360105 0.465541 0.128906 0.123593
H39   H     H_    0.223122 0.488084 0.000920 0.199939
H40   H     H_    0.300499 0.568211 0.112062 0.209325
H41   H     H_    0.421323 0.576014 0.080543 0.174502
H42   H     H_    0.349101 0.600500 0.012876 0.171690
H43   H     H_    0.343574 0.496797 0.968368 0.150571
H44   H     H_    0.956107 0.633000 0.350563 0.165829
H45   H     H_    0.883914 0.631560 0.862097 0.156256
H46   H     H_    0.915366 0.708349 0.373411 0.114413
H47   H     H_    0.008366 0.765564 0.532817 0.181207
H48   H     H_    0.926224 0.654590 0.476210 0.148604
H49   H     H_    0.036899 0.608345 0.470020 0.200399
H50   H     H_    0.063471 0.673996 0.579509 0.160762
H51   H     H_    0.119292 0.720262 0.530260 0.189042
H52   H     H_    0.013278 0.305656 0.076920 0.187500
H53   H     H_    0.039897 0.223916 0.046129 0.183874
H54   H     H_    0.880876 0.233770 0.939167 0.175199
H55   H     H_    0.905255 0.150547 0.893159 0.188365
H56   H     H_    0.342650 0.218923 0.450018 0.152296
H57   H     H_    0.902709 0.107765 0.007820 0.201037
H58   H     H_    0.801635 0.098241 0.941001 0.172069
H59   H     H_    0.872645 0.188159 0.049111 0.139440
H60   H     H_    0.244349 0.251875 0.988686 0.108164
H61   H     H_    0.210409 0.145243 0.977835 0.183627
H62   H     H_    0.292848 0.312069 0.147317 0.200842
H63   H     H_    0.258258 0.205453 0.135877 0.187517
H64   H     H_    0.363428 0.191500 0.084935 0.161652
H65   H     H_    0.416143 0.283332 0.190619 0.166431
H66   H     H_    0.397470 0.298854 0.096543 0.146700
H67   H     H_    0.392037 0.568735 0.258346 0.180981
H68   H     H_    0.059952 0.394579 0.330487 0.192174
H69   H     H_    0.168008 0.419102 0.359286 0.165415
H70   H     H_    0.999065 0.254462 0.223254 0.146844
H71   H     H_    0.079301 0.278729 0.191234 0.168488
H72   H     H_    0.187434 0.296204 0.329916 0.150268
H73   H     H_    0.098403 0.190062 0.257387 0.173021
H74   H     H_    0.099161 0.258099 0.351971 0.163016
H75   H     H_    0.931936 0.588386 0.738330 0.194828
H76   H     H_    0.965020 0.699830 0.772763 0.150945
H77   H     H_    0.054139 0.600639 0.708462 0.229386
H78   H     H_    0.275218 0.454188 0.510199 0.183047
H79   H     H_    0.091048 0.713710 0.744927 0.153275
H80   H     H_    0.108510 0.734648 0.891443 0.157708
H81   H     H_    0.172588 0.689797 0.862011 0.162267
H82   H     H_    0.074046 0.621087 0.854039 0.194534
H83   H     H_    0.081423 0.378013 0.581157 0.211834
O1    O     O_R   0.590610 0.538000 0.448220 -0.465811
O2    O     O_R   0.051870 0.090150 0.642080 -0.508017
O3    O     O_R   0.857220 0.909850 0.447420 -0.451059
O4    O     O_R   0.589760 0.642360 0.551800 -0.447488
O5    O     O_R   0.962410 0.909820 0.552580 -0.525662
O6    O     O_R   0.948130 0.909870 0.357940 -0.513834
O7    O     O_R   0.053320 0.909840 0.463100 -0.474636
O8    O     O_R   0.037590 0.090200 0.447440 -0.519278
O9    O     O_R   0.142780 0.090170 0.552600 -0.535036
O10   O     O_R   0.409560 0.447830 0.357350 -0.538286
O11   O     O_R   0.408700 0.552190 0.460930 -0.440945
O12   O     O_R   0.055390 0.642370 0.093280 -0.506977
O13   O     O_R   0.410240 0.357640 0.448200 -0.532868
O14   O     O_R   0.409390 0.462000 0.551780 -0.527260
O15   O     O_R   0.591300 0.447810 0.539070 -0.472469
O16   O     O_R   0.590440 0.552170 0.642650 -0.472438
O17   O     O_R   0.950990 0.538020 0.093300 -0.455544
O18   O     O_3   0.512702 0.185205 0.568475 -0.531908
O19   O     O_3   0.662051 0.181137 0.660902 -0.505402
O20   O     O_3   0.089396 0.667240 0.295218 -0.548618
O21   O     O_3   0.987736 0.954600 0.257035 -0.532652
O22   O     O_3   0.228547 0.404299 0.092516 -0.518224
O23   O     O_R   0.042570 0.447830 0.094680 -0.476540
O24   O     O_3   0.045913 0.763137 0.409550 -0.555669
O25   O     O_3   0.055727 0.304346 0.988253 -0.506441
O26   O     O_3   0.138521 0.202392 0.007503 -0.530267
O27   O     O_3   0.098436 0.427753 0.249572 -0.538476
O28   O     O_3   0.917767 0.617135 0.639200 -0.516578
O29   O     O_R   0.146970 0.552180 0.094660 -0.507615
O30   O     O_R   0.952410 0.357660 0.914340 -0.520178
O31   O     O_R   0.056810 0.462010 0.914320 -0.500690
O32   O     O_R   0.860830 0.447850 0.912960 -0.499733
O33   O     O_R   0.965230 0.552200 0.912940 -0.518594
O34   O     O_R   0.946680 0.090170 0.536920 -0.436722

loop_
_geom_bond_atom_site_label_1
_geom_bond_atom_site_label_2
_ccdc_geom_bond_type
C55   C56   A    
C40   O6    A    
C26   C32   A    
C93   C94   S    
C20   C37   S    
C85   H42   S    
C73   C74   S    
C96   H69   S    
Cu5   O6    S    
C34   O29   A    
C12   H34   S    
C87   C88   S    
C11   O19   S    
Cu1   Cu2   S    
C93   H60   S    
C10   O18   S    
C7    C8    A    
C41   C67   S    
C13   C65   S    
C77   C78   S    
C2    C46   A    
C48   C54   A    
C99   H75   S    
C91   H54   S    
C26   C27   A    
C58   Cl12  S    
C38   O34   A    
C30   C31   A    
C80   C81   S    
C22   Cl8   S    
C95   H65   S    
C87   H47   S    
Cu4   O33   S    
C51   O20   S    
C55   O25   S    
C15   C16   A    
C46   Cl5   S    
C99   H76   S    
C35   C69   S    
C9    H23   S    
Cu3   Cu4   S    
Cu2   O11   S    
C18   C19   A    
C64   Cl2   S    
C45   C47   A    
Cu1   O10   S    
C2    C90   A    
Cu5   Cu6   S    
C79   C90   A    
C33   C50   S    
C78   H26   S    
C18   Cl7   S    
C3    C100  S    
C84   H40   S    
C87   H48   S    
C38   C66   S    
C53   Cl1   S    
C65   C67   S    
C39   O5    A    
C41   H67   S    
C33   O17   A    
C3    H80   S    
Cu2   O16   S    
C37   O33   A    
C70   C71   S    
C8    C39   S    
C6    Cl4   S    
C89   C91   S    
C17   O14   A    
C53   C65   S    
C9    C10   A    
C42   O8    A    
C59   Cl13  S    
C97   C98   S    
C76   H22   S    
C70   H7    S    
C68   C79   A    
C29   O15   A    
C21   C27   A    
C60   C66   A    
C59   C60   A    
C38   O2    A    
C21   C22   A    
C96   C97   S    
C63   Cl11  S    
C85   H43   S    
C96   H68   S    
C71   H8    S    
Cu4   O12   S    
C86   H46   S    
C89   O25   S    
C36   C62   S    
C34   C65   S    
C93   H61   S    
C52   C54   A    
C81   C82   S    
C100  H77   S    
C80   H30   S    
Cu6   O7    S    
C24   C35   S    
C88   H51   S    
C74   C75   S    
C56   O26   S    
C23   H83   S    
C51   C52   A    
C17   O13   A    
C47   C48   A    
C14   C20   A    
C72   H10   S    
Cu5   O3    S    
C76   C77   S    
C89   H52   S    
C4    C6    A    
C37   O32   A    
C91   C92   S    
C84   H39   S    
C45   Cl10  S    
C43   C49   A    
C83   H37   S    
C69   H5    S    
C88   H49   S    
C36   O31   A    
C81   H32   S    
C29   O16   A    
C40   O7    A    
Cu4   O29   S    
C70   O18   S    
C98   H74   S    
C74   H17   S    
C60   C61   A    
C67   C69   S    
C64   C66   A    
C2    C4    A    
C43   C44   A    
C77   H24   S    
C62   C63   A    
C83   C84   S    
C83   H38   S    
Cu4   O31   S    
C36   O30   A    
C79   H12   S    
C74   H16   S    
C34   O23   A    
C14   C15   A    
C3    H81   S    
C7    Cl6   S    
C94   C95   S    
C50   C51   A    
C96   O27   S    
C84   C85   S    
Cu3   O17   S    
C1    O4    A    
C41   C53   S    
C92   H59   S    
C78   H28   S    
C82   H36   S    
C70   H6    S    
C98   H73   S    
C97   H71   S    
C94   H62   S    
C73   H14   S    
C40   C54   S    
C46   C57   A    
C75   H18   S    
C13   C24   S    
C71   H9    S    
C58   C59   A    
C86   O24   S    
Cu6   O5    S    
C83   O22   S    
Cu1   O15   S    
C1    O1    A    
C30   H56   S    
C99   O28   S    
C44   C45   A    
C95   H66   S    
C16   C29   S    
C52   O24   S    
C5    O10   A    
C47   O21   S    
C48   C49   A    
C88   H50   S    
C86   C87   S    
C17   C28   S    
Cu1   O13   S    
C92   H57   S    
C31   C32   A    
Cu6   O2    S    
C89   H53   S    
C21   H78   S    
C98   H72   S    
C75   H19   S    
C92   H58   S    
C33   O12   A    
C85   H41   S    
C72   H11   S    
C6    C7    A    
C24   C53   S    
C43   Cl9   S    
C5    C35   S    
C44   H4    S    
Cu6   O9    S    
C99   C100  S    
C73   O19   S    
Cu3   O23   S    
Cu5   O8    S    
C1    C4    S    
C76   O20   S    
C24   Cl3   S    
C19   C20   A    
C28   C30   A    
C25   C26   A    
C77   H25   S    
C71   C72   S    
C75   H20   S    
C68   H1    S    
C72   H13   S    
C57   O28   S    
C93   O26   S    
C95   H64   S    
C13   C69   S    
C3    H82   S    
C5    O11   A    
C55   C61   A    
C97   H70   S    
C31   H3    S    
C56   C58   A    
Cu2   O14   S    
C19   H45   S    
C23   C25   A    
C9    C15   A    
C61   C62   A    
C35   C41   S    
C82   H33   S    
C76   H21   S    
C10   C11   A    
C78   H27   S    
C13   O27   S    
C63   C64   A    
C82   H35   S    
Cu5   O34   S    
C12   C14   A    
C80   H29   S    
C8    C90   A    
C73   H15   S    
C91   H55   S    
C16   C18   A    
C49   C50   A    
Cu2   O4    S    
Cu3   O32   S    
C27   C28   A    
C32   C42   S    
C22   C23   A    
C86   H44   S    
C57   C68   A    
C67   O22   S    
C39   O3    A    
C94   H63   S    
C25   H2    S    
Cu1   O1    S    
Cu3   O30   S    
C42   O9    A    
C81   H31   S    
C11   C12   A    
C80   O21   S    
C100  H79   S    
