data_mof_unit_23376.cif
_audit_creation_date              2013-03-05T16:47:42-0500
_audit_creation_method            fapswitch 2.2
_symmetry_space_group_name_H-M    P1
_symmetry_Int_Tables_number       1
_space_group_crystal_system       triclinic
_cell_length_a                    11.097242
_cell_length_b                    12.89033
_cell_length_c                    11.955283
_cell_angle_alpha                 100.37476
_cell_angle_beta                  94.541398
_cell_angle_gamma                 92.456141
_cell_volume                      1674.0805162

loop_
_atom_site_label
_atom_site_type_symbol
_atom_site_description
_atom_site_fract_x
_atom_site_fract_y
_atom_site_fract_z
_atom_type_partial_charge
O1    O     O_R   0.506570 0.354460 0.582000 -0.556804
O2    O     O_R   0.493430 0.645540 0.418000 -0.562207
O3    O     O_R   0.490940 0.341410 0.386200 -0.498115
O4    O     O_R   0.509060 0.658590 0.613800 -0.499113
C1    C     C_R   0.505562 0.300255 0.477679 0.901238
C2    C     C_R   0.494630 0.699616 0.522323 0.790755
O5    O     O_R   0.327460 0.506540 0.597900 -0.522916
O6    O     O_R   0.672540 0.493460 0.402100 -0.533498
O7    O     O_R   0.311830 0.493480 0.402100 -0.570281
O8    O     O_R   0.688170 0.506520 0.597900 -0.570460
C3    C     C_R   0.262492 0.498181 0.499230 0.875810
C4    C     C_R   0.737484 0.501741 0.500780 0.805722
Cu1   Cu    Cu3+1 0.509250 0.507730 0.615930 1.115642
Cu2   Cu    Cu3+1 0.490750 0.492270 0.384070 1.111752
H1    H     H_    0.174752 0.496607 0.970681 0.205278
H2    H     H_    0.816694 0.501800 0.025927 0.241291
C5    C     C_R   0.162072 0.596653 0.133182 0.302394
C6    C     C_R   0.833949 0.401696 0.864583 0.200327
C7    C     C_R   0.133049 0.600046 0.247138 -0.051292
C8    C     C_R   0.864992 0.398400 0.751274 -0.078984
C9    C     C_R   0.101969 0.504268 0.284376 -0.038707
C10   C     C_R   0.896945 0.494204 0.714687 -0.005966
C11   C     C_R   0.085957 0.407774 0.204421 0.025622
C12   C     C_R   0.910634 0.590916 0.794210 -0.027273
C13   C     C_R   0.112457 0.405917 0.090052 -0.072107
C14   C     C_R   0.882177 0.592775 0.907753 -0.060709
C15   C     C_R   0.151815 0.499553 0.057408 -0.337933
C16   C     C_R   0.842377 0.498925 0.940164 -0.240788
C17   C     C_R   0.928214 0.512577 0.401522 -0.085347
C18   C     C_R   0.071723 0.487542 0.598909 -0.068696
C19   C     C_R   0.871806 0.502401 0.501534 -0.081167
C20   C     C_R   0.128157 0.497086 0.498490 -0.070741
C21   C     C_R   0.945632 0.491545 0.600989 -0.028308
C22   C     C_R   0.054091 0.507174 0.398692 -0.035398
C23   C     C_R   0.484703 0.813203 0.537708 -0.070233
C24   C     C_R   0.513160 0.186133 0.462157 -0.020336
C25   C     C_R   0.633986 0.033853 0.430694 -0.143818
C26   C     C_R   0.360104 0.963129 0.565849 -0.198597
C27   C     C_R   0.615934 0.137353 0.418268 -0.092376
C28   C     C_R   0.379081 0.859617 0.577437 -0.019162
C29   C     C_R   0.422083 0.126770 0.502899 -0.026929
C30   C     C_R   0.577861 0.874951 0.503848 -0.036182
C31   C     C_R   0.444483 0.022971 0.518608 0.083414
C32   C     C_R   0.554091 0.977961 0.486518 0.165045
H3    H     H_    0.710759 0.996463 0.393864 0.187900
H4    H     H_    0.277049 0.995219 0.593619 0.122901
N1    N     N_R   0.523180 0.519350 0.790130 -0.295087
N2    N     N_R   0.476820 0.480650 0.209870 -0.300844
C33   C     C_R   0.458259 0.365213 0.022671 0.193148
C34   C     C_R   0.541902 0.634915 0.977402 0.197347
C35   C     C_R   0.445798 0.383542 0.141271 0.372739
C36   C     C_R   0.554200 0.616547 0.858755 0.378922
C37   C     C_R   0.510286 0.563535 0.156702 0.480189
C38   C     C_R   0.489702 0.436666 0.843395 0.483317
C39   C     C_R   0.512570 0.550473 0.034134 -0.248371
C40   C     C_R   0.488037 0.449614 0.966023 -0.258367
N3    N     N_R   0.446261 0.338226 0.775098 0.150248
O9    O     O_R   0.330573 0.318587 0.750772 -0.415401
O10   O     O_R   0.519335 0.262320 0.753033 -0.285883
N4    N     N_R   0.549694 0.663308 0.224868 0.150117
O11   O     O_R   0.664578 0.686934 0.251011 -0.376021
O12   O     O_R   0.473035 0.736383 0.246315 -0.283710
N5    N     N_R   0.599440 0.703942 0.812268 0.155525
O13   O     O_R   0.544070 0.791768 0.823463 -0.236904
O14   O     O_R   0.697760 0.697412 0.760208 -0.421556
N6    N     N_R   0.398854 0.296714 0.187634 0.173371
O15   O     O_R   0.452205 0.207879 0.175983 -0.230647
O16   O     O_R   0.300598 0.304766 0.239697 -0.349243
N7    N     N_R   0.445577 0.257855 0.963170 0.196608
O17   O     O_R   0.539249 0.200482 0.961667 -0.159833
O18   O     O_R   0.338374 0.211188 0.936119 -0.265455
N8    N     N_R   0.553372 0.742430 0.036627 0.198159
O19   O     O_R   0.659913 0.790962 0.060753 -0.273159
O20   O     O_R   0.458432 0.798299 0.038889 -0.160995
N9    N     N_R   0.200250 0.690390 0.091551 0.135437
O21   O     O_R   0.199117 0.688825 0.982395 -0.239573
O22   O     O_R   0.246633 0.774683 0.160730 -0.278485
N10   N     N_R   0.794140 0.307993 0.905384 0.129294
O23   O     O_R   0.791521 0.309902 0.014304 -0.239217
O24   O     O_R   0.749249 0.223631 0.835377 -0.269180
C41   C     C_2   0.118611 0.703602 0.321523 0.425728
H5    H     H_    0.086909 0.769500 0.284676 0.158319
O25   O     O_2   0.139703 0.716342 0.424748 -0.595470
C42   C     C_2   0.878834 0.295017 0.676367 0.415177
H6    H     H_    0.911863 0.229293 0.712788 0.130459
O26   O     O_2   0.854904 0.282147 0.573378 -0.574502
C43   C     C_2   0.035618 0.312018 0.242508 0.598628
H7    H     H_    0.064112 0.297055 0.326788 0.087819
O27   O     O_2   0.957017 0.252922 0.183727 -0.425129
C44   C     C_2   0.958893 0.687886 0.756520 0.496136
H8    H     H_    0.937281 0.698954 0.669470 0.084481
O28   O     O_2   0.027130 0.753671 0.819836 -0.469150
C45   C     C_2   0.103272 0.308783 0.000763 0.579047
H9    H     H_    0.097133 0.315703 0.911344 0.018520
O29   O     O_2   0.107658 0.220808 0.024598 -0.402845
C46   C     C_2   0.888335 0.692426 0.993055 0.556564
H10   H     H_    0.886971 0.768381 0.966439 0.166992
O30   O     O_2   0.893382 0.690993 0.095102 -0.564328
C47   C     C_2   0.859342 0.534339 0.297653 0.429969
H11   H     H_    0.864263 0.613490 0.279456 0.136607
O31   O     O_2   0.804689 0.462767 0.229259 -0.456645
C48   C     C_2   0.140440 0.469978 0.704985 0.444132
H12   H     H_    0.130717 0.393783 0.730388 0.067014
O32   O     O_2   0.198013 0.542958 0.768905 -0.455360
C49   C     C_2   0.700902 0.832364 0.495515 0.461827
H13   H     H_    0.711313 0.748170 0.472584 0.069707
O33   O     O_2   0.792571 0.890205 0.522384 -0.526505
C50   C     C_2   0.303294 0.173343 0.525543 0.438024
H14   H     H_    0.254126 0.157498 0.595814 0.117731
O34   O     O_2   0.258319 0.230366 0.464409 -0.552259
C51   C     C_2   0.284677 0.805758 0.632337 0.550422
H15   H     H_    0.197207 0.839546 0.641421 0.106936
O35   O     O_2   0.302976 0.726635 0.671945 -0.455756
C52   C     C_2   0.709563 0.189012 0.360326 0.554799
H16   H     H_    0.793674 0.151024 0.344709 0.106235
O36   O     O_2   0.694830 0.271663 0.326666 -0.460459

loop_
_geom_bond_atom_site_label_1
_geom_bond_atom_site_label_2
_geom_bond_distance
_ccdc_geom_bond_type
H2    C16   1.080456 S    
N6    O16   1.296542 A    
C39   C40   1.407378 A    
N5    O14   1.296709 A    
C13   C45   1.485950 S    
C45   H9    1.085714 S    
C29   C50   1.495735 S    
C51   H15   1.086084 S    
C31   C32   1.420395 A    
C41   H5    1.084079 S    
C44   H8    1.085273 S    
C50   H14   1.081688 S    
O5    C3    1.317492 A    
C49   O33   1.221036 D    
O1    C1    1.314180 A    
C7    C9    1.423796 A    
C12   C14   1.414127 A    
N10   O24   1.300359 A    
N3    O10   1.301331 A    
C1    C24   1.456152 S    
C2    C23   1.452518 S    
N4    O12   1.301131 A    
O4    Cu1   1.949472 S    
N7    O18   1.299764 A    
C23   C30   1.406388 A    
C34   N8    1.433693 S    
H1    C15   1.081525 S    
N2    C35   1.380798 A    
C33   C35   1.413701 A    
C46   O30   1.220361 D    
C34   C36   1.413920 A    
C19   C21   1.421273 A    
C18   C20   1.419260 A    
C6    N10   1.446598 S    
N6    O15   1.301885 A    
C45   O29   1.220037 D    
C11   C43   1.492176 S    
Cu1   Cu2   2.733676 S    
C29   C31   1.413832 A    
C24   C29   1.410760 A    
O2    C2    1.313416 A    
C30   C32   1.412832 A    
C41   O25   1.217661 D    
C37   N4    1.423841 S    
C52   H16   1.086156 S    
C28   C51   1.490287 S    
C37   C39   1.446930 A    
C14   C46   1.484692 S    
N2    C37   1.389760 A    
C38   C40   1.447048 A    
C17   C47   1.482700 S    
C48   H12   1.082626 S    
C5    C15   1.401183 A    
C6    C16   1.401679 A    
C42   H6    1.084385 S    
N8    O20   1.300734 A    
Cu1   N1    2.053846 S    
O7    Cu2   2.014499 S    
N10   O23   1.300627 A    
Cu2   N2    2.053845 S    
C9    C22   1.499918 S    
C17   C22   1.404374 A    
C36   N5    1.432217 S    
N4    O11   1.298130 A    
C35   N6    1.431967 S    
C20   C22   1.423286 A    
N9    O21   1.300557 A    
N9    O22   1.300225 A    
C44   O28   1.220041 D    
C47   H11   1.080884 S    
O6    C4    1.317582 A    
C27   C52   1.491195 S    
C46   H10   1.082959 S    
C18   C48   1.485290 S    
C51   O35   1.217448 D    
C48   O32   1.220418 D    
O7    C3    1.315317 A    
O3    Cu2   1.949471 S    
O8    C4    1.314979 A    
N1    C38   1.388335 A    
O4    C2    1.299681 A    
C47   O31   1.220411 D    
C8    C10   1.422573 A    
C3    C20   1.489520 S    
C8    C42   1.486951 S    
C4    C19   1.489565 S    
C10   C12   1.419542 A    
O1    Cu1   1.942478 S    
C25   H3    1.081746 S    
C10   C21   1.497292 S    
O6    Cu2   2.010912 S    
C18   C21   1.404434 A    
C24   C27   1.417337 A    
C42   O26   1.218580 D    
N8    O19   1.300009 A    
O3    C1    1.300801 A    
O8    Cu1   2.014499 S    
C12   C44   1.495328 S    
C52   O36   1.217653 D    
N1    C36   1.381830 A    
C13   C15   1.396935 A    
C33   C40   1.421805 A    
C49   H13   1.083954 S    
C14   C16   1.399587 A    
C34   C39   1.421703 A    
C25   C32   1.400969 A    
C9    C11   1.420690 A    
C23   C28   1.415390 A    
C26   C31   1.403410 A    
C17   C19   1.416572 A    
C26   C28   1.389230 A    
N3    O9    1.297442 A    
C5    C7    1.418088 A    
C50   O34   1.220958 D    
C6    C8    1.417726 A    
C11   C13   1.417422 A    
N7    O17   1.300731 A    
O2    Cu2   1.942479 S    
C30   C49   1.497243 S    
C26   H4    1.078188 S    
N5    O13   1.301991 A    
O5    Cu1   2.010912 S    
C43   H7    1.084984 S    
C25   C27   1.389869 A    
C5    N9    1.446823 S    
C43   O27   1.219897 D    
C33   N7    1.433130 S    
C7    C41   1.487183 S    
C38   N3    1.421732 S    
