data_mof_unit_6734.cif
_audit_creation_date              2012-10-26T21:04:02-0400
_audit_creation_method            fapswitch 2.2
_symmetry_space_group_name_H-M    P1
_symmetry_Int_Tables_number       1
_space_group_crystal_system       triclinic
_cell_length_a                    15.192913
_cell_length_b                    13.839563
_cell_length_c                    10.879736
_cell_angle_alpha                 90.000065
_cell_angle_beta                  90.340071
_cell_angle_gamma                 90.002181
_cell_volume                      2287.56864405

loop_
_atom_site_label
_atom_site_type_symbol
_atom_type_description
_atom_site_fract_x
_atom_site_fract_y
_atom_site_fract_z
_atom_type_partial_charge
C1    C     C_R   0.329777 0.500134 0.505308 0.544159
C2    C     C_R   0.547661 0.107505 0.412038 -0.143632
C3    C     C_R   0.453590 0.209202 0.586755 0.065366
C4    C     C_R   0.546404 0.209200 0.413243 0.065368
C5    C     C_R   0.499989 0.055133 0.500000 -0.032094
C6    C     C_R   0.455831 0.893440 0.406521 -0.020856
C7    C     C_R   0.544144 0.893448 0.593492 -0.020872
C8    C     C_R   0.456279 0.790922 0.410032 0.059772
C9    C     C_R   0.543709 0.790929 0.589976 0.059757
C10   C     C_R   0.499987 0.946053 0.500005 -0.060242
C11   C     C_R   0.498669 0.499629 0.262536 0.540951
C12   C     C_R   0.670223 0.500137 0.494687 0.544147
C13   C     C_R   0.501333 0.499630 0.737464 0.540951
C14   C     C_R   0.496751 0.581440 0.061779 -0.065974
C15   C     C_R   0.503268 0.581440 0.938221 -0.065982
C16   C     C_R   0.497527 0.497314 0.130032 -0.017224
C17   C     C_R   0.502482 0.497315 0.869967 -0.017225
C18   C     C_R   0.499314 0.409080 0.064626 -0.151945
C19   C     C_R   0.500693 0.409080 0.935373 -0.151941
C20   C     C_3   0.506618 0.689656 0.929663 0.185491
C21   C     C_3   0.493392 0.689655 0.070335 0.185502
C22   C     C_R   0.094283 0.579738 0.463158 -0.112665
C23   C     C_R   0.185528 0.419812 0.558517 -0.030534
C24   C     C_R   0.905726 0.579740 0.536827 -0.112677
C25   C     C_R   0.185551 0.583117 0.471806 0.239058
C26   C     C_R   0.814458 0.583123 0.528172 0.239036
C27   C     C_R   0.232792 0.500839 0.512796 -0.023365
C28   C     C_R   0.767209 0.500844 0.487191 -0.023371
C29   C     C_2   0.407272 0.945228 0.307422 0.197881
C30   C     C_2   0.592696 0.945244 0.692595 0.197879
C31   C     C_3   0.662649 0.671294 0.905729 0.023151
C32   C     C_3   0.746234 0.729366 0.881581 -0.219851
C33   C     C_3   0.828105 0.665723 0.889695 -0.481191
C34   C     C_R   0.814466 0.419815 0.441473 -0.030526
C35   C     C_3   0.337360 0.671269 0.094248 0.023164
C36   C     C_3   0.253770 0.729329 0.118375 -0.219856
C37   C     C_3   0.171902 0.665674 0.110248 -0.481199
C38   C     C_3   0.225618 0.735227 0.531627 0.006458
C39   C     C_3   0.218084 0.836580 0.477117 -0.271671
C40   C     C_3   0.233070 0.914385 0.574436 -0.466964
C41   C     C_3   0.774421 0.735224 0.468316 0.006434
C42   C     C_3   0.781797 0.836594 0.522804 -0.271615
C43   C     C_3   0.766768 0.914360 0.425452 -0.466984
C44   C     C_2   0.229244 0.339195 0.624975 0.234761
C45   C     C_R   0.093590 0.419059 0.550058 -0.098466
C46   C     C_2   0.770744 0.339199 0.375016 0.234766
C47   C     C_R   0.906404 0.419060 0.449933 -0.098463
C48   C     C_R   0.048152 0.498362 0.502162 -0.044537
C49   C     C_R   0.951849 0.498362 0.497828 -0.044534
C50   C     C_R   0.452322 0.107507 0.587961 -0.143643
Cu1   Cu    Cu3+1 0.500000 0.596430 0.500000 0.949115
Cu2   Cu    Cu3+1 0.500000 0.403570 0.500000 0.937810
H1    H     H_    0.499431 0.340456 0.112467 0.140191
H2    H     H_    0.943253 0.358164 0.414418 0.171818
H3    H     H_    0.414692 0.069900 0.657349 0.117207
H4    H     H_    0.585288 0.069896 0.342651 0.117216
H5    H     H_    0.417369 0.248425 0.655764 0.121940
H6    H     H_    0.582627 0.248421 0.344233 0.121939
H7    H     H_    0.397228 0.022665 0.312040 0.131156
H8    H     H_    0.602724 0.022685 0.687987 0.131161
H9    H     H_    0.658501 0.612615 0.836032 0.159093
H10   H     H_    0.667664 0.639838 0.999667 0.109834
H11   H     H_    0.742613 0.761535 0.788356 0.223372
H12   H     H_    0.500571 0.340456 0.887532 0.140191
H13   H     H_    0.751759 0.788794 0.949918 0.185089
H14   H     H_    0.834621 0.634258 0.983238 0.138462
H15   H     H_    0.887483 0.709840 0.870382 0.148384
H16   H     H_    0.824284 0.606426 0.821030 0.178428
H17   H     H_    0.341501 0.612589 0.163943 0.159097
H18   H     H_    0.332357 0.639813 0.000308 0.109824
H19   H     H_    0.257379 0.761502 0.211598 0.223385
H20   H     H_    0.248249 0.788755 0.050034 0.185076
H21   H     H_    0.165400 0.634201 0.016707 0.138470
H22   H     H_    0.112520 0.709785 0.129540 0.148375
H23   H     H_    0.420466 0.750349 0.341307 0.209425
H24   H     H_    0.175717 0.606383 0.178921 0.178422
H25   H     H_    0.287859 0.729618 0.585398 0.169140
H26   H     H_    0.169600 0.725344 0.596636 0.107545
H27   H     H_    0.267541 0.845492 0.403817 0.195964
H28   H     H_    0.151698 0.845898 0.435295 0.160998
H29   H     H_    0.183595 0.907738 0.648715 0.156075
H30   H     H_    0.226689 0.986911 0.531641 0.177815
H31   H     H_    0.300254 0.907783 0.614507 0.151987
H32   H     H_    0.712244 0.729518 0.414423 0.169097
H33   H     H_    0.830518 0.725407 0.403432 0.107551
H34   H     H_    0.579522 0.750362 0.658703 0.209402
H35   H     H_    0.732292 0.845434 0.596049 0.195970
H36   H     H_    0.848145 0.846025 0.564699 0.161014
H37   H     H_    0.816303 0.907798 0.351245 0.156094
H38   H     H_    0.773012 0.986899 0.468241 0.177788
H39   H     H_    0.699625 0.907633 0.385290 0.151996
H40   H     H_    0.291390 0.350753 0.672030 0.111631
H41   H     H_    0.708600 0.350759 0.327958 0.111626
H42   H     H_    0.450245 0.720160 0.876871 0.152269
H43   H     H_    0.549762 0.720170 0.123127 0.152271
H44   H     H_    0.059480 0.641756 0.426244 0.118258
H45   H     H_    0.940534 0.641759 0.573739 0.118265
H46   H     H_    0.056736 0.358165 0.585575 0.171820
N1    N     N_R   0.500000 0.258690 0.500000 -0.223262
N2    N     N_R   0.500000 0.741330 0.500000 -0.283453
O1    O     O_R   0.371460 0.581430 0.500010 -0.467314
O2    O     O_2   0.622669 0.902282 0.781159 -0.492154
O3    O     O_3   0.588293 0.732801 0.895122 -0.534891
O4    O     O_3   0.411713 0.732785 0.104877 -0.534887
O5    O     O_3   0.227705 0.666634 0.434790 -0.572461
O6    O     O_3   0.772314 0.666648 0.565168 -0.572457
O7    O     O_2   0.195086 0.259440 0.630669 -0.516813
O8    O     O_2   0.804893 0.259442 0.369325 -0.516809
O9    O     O_R   0.628540 0.581430 0.499990 -0.467287
O10   O     O_R   0.371470 0.418560 0.500010 -0.514572
O11   O     O_R   0.628530 0.418560 0.499990 -0.514568
O12   O     O_R   0.499990 0.581450 0.319660 -0.511213
O13   O     O_R   0.500010 0.581450 0.680340 -0.511224
O14   O     O_R   0.500010 0.418580 0.319660 -0.518738
O15   O     O_R   0.499990 0.418580 0.680340 -0.518736
O16   O     O_2   0.377313 0.902263 0.218849 -0.492163

loop_
_geom_bond_atom_site_label_1
_geom_bond_atom_site_label_2
_ccdc_geom_bond_type
C7    C10   A    
C22   C48   A    
C37   H22   S    
Cu1   O12   S    
C23   C45   A    
C41   C42   S    
C31   H9    S    
C35   C36   S    
C40   H31   S    
C26   O6    S    
C25   O5    S    
C47   C49   A    
C20   O3    S    
C43   H37   S    
C12   C28   S    
C14   C21   S    
C36   C37   S    
C24   C26   A    
C45   H46   S    
C38   C39   S    
C1    O10   A    
C45   C48   A    
Cu1   N2    S    
C15   C17   A    
C18   C19   A    
C11   O14   A    
C37   H21   S    
C18   H1    S    
C21   O4    S    
C29   H7    S    
C35   H18   S    
C22   C25   A    
C30   H8    S    
C34   C46   S    
C23   C27   A    
C44   H40   S    
C36   H19   S    
C28   C34   A    
Cu1   O9    S    
C7    C30   S    
C31   H10   S    
C12   O9    A    
C3    C50   A    
C33   H14   S    
C15   C20   S    
Cu2   O15   S    
C43   H38   S    
C41   O6    S    
C24   H45   S    
C40   H30   S    
C35   O4    S    
C39   C40   S    
C6    C8    A    
C21   H43   S    
Cu2   O11   S    
C41   H32   S    
C8    H23   S    
C43   H39   S    
C23   C44   S    
Cu1   Cu2   S    
C46   O8    D    
C31   O3    S    
C2    C4    A    
C9    H34   S    
C11   C16   S    
C31   C32   S    
Cu2   O10   S    
C19   H12   S    
C30   O2    D    
Cu1   O13   S    
C13   O15   A    
C47   H2    S    
C3    H5    S    
C48   C49   S    
C29   O16   D    
C9    N2    A    
C14   C16   A    
C5    C50   A    
C2    C5    A    
C42   H36   S    
C42   C43   S    
C1    O1    A    
C41   H33   S    
C33   H15   S    
C44   O7    D    
C24   C49   A    
C7    C9    A    
C20   H42   S    
C11   O12   A    
C22   H44   S    
C40   H29   S    
C37   H24   S    
C32   H11   S    
C6    C10   A    
C34   C47   A    
C38   H25   S    
Cu2   O14   S    
C25   C27   A    
C38   H26   S    
Cu2   N1    S    
C26   C28   A    
C50   H3    S    
C13   C17   S    
C39   H28   S    
C38   O5    S    
C8    N2    A    
C5    C10   S    
C2    H4    S    
C32   C33   S    
C46   H41   S    
C17   C19   A    
C3    N1    A    
C6    C29   S    
C20   C21   S    
C35   H17   S    
C16   C18   A    
C4    N1    A    
C4    H6    S    
C1    C27   S    
C14   C15   A    
C42   H35   S    
C12   O11   A    
C13   O13   A    
Cu1   O1    S    
C36   H20   S    
C33   H16   S    
C39   H27   S    
C32   H13   S    
