data_mof_unit_56961.cif
_audit_creation_date              2012-12-10T17:12:29-0500
_audit_creation_method            fapswitch 2.2
_symmetry_space_group_name_H-M    P1
_symmetry_Int_Tables_number       1
_space_group_crystal_system       triclinic
_cell_length_a                    11.655286
_cell_length_b                    13.001861
_cell_length_c                    11.840276
_cell_angle_alpha                 100.308571
_cell_angle_beta                  93.040024
_cell_angle_gamma                 92.501675
_cell_volume                      1760.2528421

loop_
_atom_site_label
_atom_site_type_symbol
_atom_type_description
_atom_site_fract_x
_atom_site_fract_y
_atom_site_fract_z
_atom_type_partial_charge
C1    C     C_R   0.500827 0.299335 0.477865 0.797298
C2    C     C_R   0.501812 0.701005 0.522166 0.820873
C3    C     C_R   0.374203 0.413149 0.028013 -0.006690
C4    C     C_R   0.605749 0.603005 0.976419 0.017112
C5    C     C_R   0.391755 0.418065 0.148206 0.614651
C6    C     C_R   0.604532 0.584884 0.855283 0.617047
C7    C     C_R   0.554140 0.536513 0.153859 0.240219
C8    C     C_R   0.441675 0.465780 0.845265 0.253389
C9    C     C_R   0.538398 0.536264 0.033259 -0.112562
C10   C     C_R   0.451366 0.469652 0.967570 -0.102459
C11   C     C_R   0.284313 0.499449 0.500579 0.822327
C12   C     C_R   0.715624 0.499708 0.499226 0.795642
C13   C     C_1   0.162567 0.498900 0.501463 -0.173857
C14   C     C_1   0.837253 0.498737 0.497829 -0.219810
C15   C     C_1   0.059854 0.498502 0.500511 -0.005584
C16   C     C_1   0.939908 0.498397 0.498662 -0.013766
C17   C     C_R   0.501268 0.815464 0.536268 -0.140141
C18   C     C_R   0.505413 0.185526 0.464012 -0.145102
C19   C     C_R   0.530314 0.014093 0.350139 -0.288493
C20   C     C_R   0.476531 0.987198 0.649478 -0.306149
C21   C     C_R   0.532524 0.123029 0.359162 0.434781
C22   C     C_R   0.488487 0.879508 0.644698 0.464532
C23   C     C_R   0.485538 0.139098 0.559522 -0.311821
C24   C     C_R   0.514107 0.861003 0.438621 -0.320548
C25   C     C_R   0.490790 0.031735 0.552031 0.113834
C26   C     C_R   0.511763 0.968656 0.446448 0.113303
Cu1   Cu    Cu3+1 0.508350 0.507730 0.615930 0.967283
Cu2   Cu    Cu3+1 0.491650 0.492270 0.384070 0.961718
H1    H     H_    0.527727 0.812808 0.356201 0.170160
H2    H     H_    0.466769 0.186659 0.640737 0.167673
H3    H     H_    0.545146 0.965480 0.268317 0.137969
H4    H     H_    0.457848 0.036981 0.729046 0.134562
N1    N     N_R   0.520920 0.519350 0.790130 -0.246448
N2    N     N_R   0.479080 0.480650 0.209870 -0.246927
O1    O     O_R   0.505930 0.354460 0.582000 -0.610750
O2    O     O_R   0.494070 0.645540 0.418000 -0.610830
O3    O     O_R   0.491820 0.341410 0.386200 -0.539593
O4    O     O_R   0.508180 0.658590 0.613800 -0.491449
O5    O     O_R   0.344250 0.506540 0.597900 -0.597617
O6    O     O_R   0.655750 0.493460 0.402100 -0.603474
O7    O     O_R   0.330140 0.493480 0.402100 -0.516488
O8    O     O_R   0.669860 0.506520 0.597900 -0.572958
O9    O     O_3   0.481521 0.833867 0.742167 -0.591220
C27   C     C_3   0.548237 0.889974 0.839543 0.103720
H5    H     H_    0.543054 0.842230 0.908251 0.191359
H6    H     H_    0.510304 0.964994 0.874687 0.108758
C28   C     C_3   0.676377 0.907118 0.817414 -0.350211
H7    H     H_    0.710909 0.832128 0.777153 0.263749
H8    H     H_    0.686522 0.963135 0.757555 0.199247
C29   C     C_3   0.747445 0.951343 0.928810 -0.932982
H9    H     H_    0.718402 0.029623 0.966157 0.244460
H10   H     H_    0.839562 0.959632 0.910690 0.258281
H11   H     H_    0.738914 0.898448 0.992175 0.268821
O10   O     O_3   0.552068 0.167539 0.263446 -0.628804
C30   C     C_3   0.666910 0.155652 0.231698 0.027015
H12   H     H_    0.665464 0.144430 0.136488 0.156557
H13   H     H_    0.707322 0.086075 0.256555 0.133218
C31   C     C_3   0.741038 0.255031 0.281635 -0.301435
H14   H     H_    0.703242 0.322928 0.251163 0.238893
H15   H     H_    0.742157 0.268582 0.377065 0.204090
C32   C     C_3   0.864358 0.246638 0.244887 -0.943825
H16   H     H_    0.904938 0.180516 0.276434 0.259494
H17   H     H_    0.915461 0.320164 0.281792 0.266721
H18   H     H_    0.865612 0.234273 0.149672 0.255952
N3    N     N_3   0.343727 0.409937 0.781667 -0.616963
H19   H     H_    0.282338 0.462203 0.764973 0.243724
H20   H     H_    0.364950 0.358584 0.709243 0.257827
N4    N     N_3   0.656910 0.587063 0.213371 -0.617488
H21   H     H_    0.714302 0.530675 0.227658 0.238846
H22   H     H_    0.639502 0.637047 0.288545 0.259339
O11   O     O_3   0.677752 0.646279 0.803347 -0.584602
C33   C     C_3   0.788716 0.604898 0.796667 0.086462
H23   H     H_    0.823324 0.623092 0.716556 0.182952
H24   H     H_    0.786848 0.517964 0.789230 0.120250
C34   C     C_3   0.873351 0.656291 0.896332 -0.403969
H25   H     H_    0.857837 0.740806 0.920881 0.254638
H26   H     H_    0.861796 0.616775 0.970802 0.212858
C35   C     C_3   0.998056 0.644984 0.864284 -0.899998
H27   H     H_    0.015555 0.561003 0.838153 0.254433
H28   H     H_    0.056976 0.679412 0.939630 0.261596
H29   H     H_    0.015693 0.686785 0.792493 0.260328
O12   O     O_3   0.310605 0.370933 0.206927 -0.578467
C36   C     C_3   0.308352 0.260165 0.178834 0.121226
H30   H     H_    0.347992 0.230357 0.252677 0.196677
H31   H     H_    0.356065 0.228774 0.101935 0.131801
C37   C     C_3   0.183197 0.216884 0.161825 -0.359661
H32   H     H_    0.138120 0.244162 0.241291 0.226924
H33   H     H_    0.138586 0.246569 0.089904 0.244652
C38   C     C_3   0.175604 0.097435 0.135777 -0.923704
H34   H     H_    0.218072 0.068318 0.055274 0.259787
H35   H     H_    0.083840 0.068701 0.124646 0.258906
H36   H     H_    0.217650 0.065855 0.207801 0.261377
N5    N     N_3   0.273311 0.354009 0.973143 -0.598063
H37   H     H_    0.296432 0.291899 0.911098 0.238480
H38   H     H_    0.217574 0.403137 0.939223 0.248712
N6    N     N_3   0.659844 0.700219 0.036977 -0.595864
H39   H     H_    0.733043 0.687701 0.085915 0.240873
H40   H     H_    0.601321 0.739795 0.090666 0.223397

loop_
_geom_bond_atom_site_label_1
_geom_bond_atom_site_label_2
_ccdc_geom_bond_type
C30   H12   S    
C4    C9    A    
N5    H37   S    
C18   C21   A    
Cu1   O8    S    
C34   H25   S    
C19   H3    S    
C28   H8    S    
Cu1   N1    S    
C1    C18   S    
C19   C21   A    
C24   C26   A    
C21   O10   S    
C37   H33   S    
C20   C25   A    
Cu2   O6    S    
Cu1   O4    S    
C31   H15   S    
C15   C16   S    
Cu2   O7    S    
C32   H17   S    
C19   C26   A    
C24   H1    S    
C12   O8    A    
C7    N4    S    
C4    N6    S    
C36   H30   S    
Cu1   O5    S    
N4    H21   S    
N3    H20   S    
N6    H40   S    
C28   H7    S    
C29   H10   S    
C38   H35   S    
C9    C10   A    
C27   C28   S    
C1    O3    A    
C31   C32   S    
Cu2   N2    S    
C8    N3    S    
N5    H38   S    
N6    H39   S    
C2    C17   S    
C33   C34   S    
C27   H6    S    
C28   C29   S    
C6    O11   S    
C29   H11   S    
C18   C23   A    
C17   C24   A    
C23   H2    S    
C33   H24   S    
C35   H27   S    
Cu1   O1    S    
C25   C26   A    
C12   O6    A    
C32   H18   S    
O9    C27   S    
C2    O4    A    
C22   O9    S    
C5    N2    A    
C29   H9    S    
C3    N5    S    
C38   H36   S    
C11   O5    A    
C34   H26   S    
C4    C6    A    
C36   H31   S    
C12   C14   S    
O12   C36   S    
C13   C15   T    
C7    N2    A    
C14   C16   T    
C27   H5    S    
C1    O1    A    
C20   H4    S    
C2    O2    A    
C7    C9    A    
O10   C30   S    
C37   H32   S    
C20   C22   A    
C33   H23   S    
C3    C5    A    
C37   C38   S    
C17   C22   A    
C6    N1    A    
C30   H13   S    
C31   H14   S    
O11   C33   S    
C3    C10   A    
C5    O12   S    
C11   C13   S    
C35   H29   S    
Cu2   O3    S    
C11   O7    A    
C35   H28   S    
C8    N1    A    
C23   C25   A    
C32   H16   S    
C34   C35   S    
C36   C37   S    
Cu2   O2    S    
C8    C10   A    
N3    H19   S    
C30   C31   S    
Cu1   Cu2   S    
N4    H22   S    
C38   H34   S    
