data_mof_unit_32754.cif
_audit_creation_date              2013-03-05T16:42:12-0500
_audit_creation_method            fapswitch 2.2
_symmetry_space_group_name_H-M    P1
_symmetry_Int_Tables_number       1
_space_group_crystal_system       triclinic
_cell_length_a                    14.92628
_cell_length_b                    10.861097
_cell_length_c                    10.017965
_cell_angle_alpha                 88.417932
_cell_angle_beta                  90.210003
_cell_angle_gamma                 91.131579
_cell_volume                      1623.12655583

loop_
_atom_site_label
_atom_site_type_symbol
_atom_site_description
_atom_site_fract_x
_atom_site_fract_y
_atom_site_fract_z
_atom_type_partial_charge
O1    O     O_R   0.500010 0.316790 0.614690 -0.616811
O2    O     O_R   0.500000 0.316760 0.385350 -0.583079
C1    C     C_R   0.502997 0.260669 0.501278 0.998069
O3    O     O_R   0.367850 0.499990 0.614680 -0.622338
O4    O     O_R   0.367840 0.499950 0.385340 -0.591360
C2    C     C_R   0.327725 0.504606 0.499538 0.997470
Zn1   Zn    Zn3+2 0.500010 0.500020 0.653130 1.035902
Zn2   Zn    Zn3+2 0.499990 0.499980 0.346870 1.127121
O5    O     O_R   0.500000 0.683240 0.614650 -0.636007
O6    O     O_R   0.499990 0.683210 0.385310 -0.599334
O7    O     O_R   0.632160 0.500050 0.614660 -0.624605
O8    O     O_R   0.632150 0.500010 0.385320 -0.539559
C3    C     C_R   0.500728 0.739259 0.497475 0.967227
C4    C     C_R   0.672941 0.501374 0.500112 1.006794
C5    C     C_R   0.815659 0.613113 0.459031 -0.083619
C6    C     C_R   0.769538 0.503598 0.497532 -0.238579
C7    C     C_R   0.814740 0.393999 0.525179 0.295093
C8    C     C_R   0.906129 0.387863 0.495602 -0.063685
C9    C     C_R   0.953819 0.497988 0.461923 0.056946
C10   C     C_R   0.908278 0.609243 0.432802 0.026506
C11   C     C_R   0.951234 0.274217 0.498941 -0.155440
C12   C     C_R   0.045130 0.274580 0.502801 0.257791
C13   C     C_R   0.093083 0.388175 0.497449 -0.072570
C14   C     C_R   0.047677 0.498247 0.464804 0.002101
C15   C     C_R   0.095837 0.610205 0.442113 0.003038
C16   C     C_R   0.051039 0.714144 0.393931 -0.135149
C17   C     C_R   0.958120 0.712886 0.381137 -0.027753
C18   C     C_R   0.185623 0.394546 0.520117 0.270162
C19   C     C_R   0.232192 0.505528 0.496163 -0.288944
C20   C     C_R   0.188652 0.614472 0.460553 0.202724
H1    H     H_    0.088852 0.794990 0.359420 0.231229
C21   C     C_R   0.468778 0.057146 0.603819 0.100006
C22   C     C_R   0.508265 0.128406 0.500360 -0.102302
C23   C     C_R   0.539407 0.069044 0.383708 -0.125606
C24   C     C_R   0.524255 0.941063 0.373509 -0.127703
C25   C     C_R   0.500414 0.871350 0.490188 -0.083853
C26   C     C_R   0.476661 0.933042 0.602473 0.094477
C27   C     C_3   0.489217 0.913367 0.749157 -0.391817
C28   C     C_3   0.472831 0.053078 0.755846 -0.301814
H2    H     H_    0.435689 0.851908 0.792773 0.175356
C29   C     C_R   0.421798 0.508711 0.069505 0.084113
N1    N     N_R   0.499390 0.499140 0.142800 -0.153921
C30   C     C_R   0.577847 0.508667 0.071842 0.279595
C31   C     C_R   0.577890 0.510870 0.929651 -0.151552
N2    N     N_R   0.499390 0.499180 0.857150 -0.140861
C32   C     C_R   0.422138 0.505008 0.928666 0.107861
C33   C     C_3   0.343383 0.418891 0.924191 -0.437002
C34   C     C_3   0.338814 0.427572 0.076456 0.111570
H3    H     H_    0.286241 0.461218 0.869484 0.210564
H4    H     H_    0.361592 0.327029 0.888210 0.268518
C35   C     C_2   0.771336 0.733042 0.476798 0.947216
O9    O     O_2   0.698172 0.752520 0.426796 -0.586066
O10   O     O_R   0.813913 0.823598 0.552117 -0.737885
H5    H     H_    0.778138 0.901772 0.555388 0.392577
C36   C     C_2   0.536712 0.881403 0.244153 1.112746
O11   O     O_2   0.611953 0.857671 0.206127 -0.536960
O12   O     O_R   0.461303 0.849356 0.168441 -0.685187
H6    H     H_    0.476757 0.802154 0.086110 0.352884
C37   C     C_2   0.582137 0.873134 0.790122 1.064140
O13   O     O_2   0.639081 0.853528 0.706393 -0.564901
O14   O     O_R   0.603480 0.863069 0.925509 -0.763720
H7    H     H_    0.668408 0.841342 0.941807 0.406237
C38   C     C_2   0.381703 0.069935 0.818842 0.980146
O15   O     O_2   0.375662 0.082969 0.939215 -0.494673
O16   O     O_R   0.304021 0.052428 0.742783 -0.667133
H8    H     H_    0.247674 0.051417 0.799039 0.401971
C39   C     C_2   0.547412 0.133551 0.812774 1.014951
O17   O     O_2   0.625142 0.120968 0.778599 -0.518793
O18   O     O_R   0.526881 0.225300 0.901423 -0.741953
H9    H     H_    0.582338 0.270313 0.933674 0.357980
N3    N     N_R   0.661876 0.517166 0.139276 0.222066
O19   O     O_R   0.698989 0.625133 0.154515 -0.292174
O20   O     O_R   0.710897 0.419794 0.151915 -0.309385
C40   C     C_2   0.665999 0.518277 0.865311 1.049348
O21   O     O_2   0.710144 0.425335 0.856804 -0.541332
O22   O     O_R   0.701557 0.632315 0.822454 -0.759602
H10   H     H_    0.763706 0.625870 0.783052 0.359478
C41   C     C_2   0.255803 0.494343 0.119160 0.911799
O23   O     O_2   0.183398 0.439666 0.123432 -0.542648
O24   O     O_R   0.260806 0.619900 0.145784 -0.746079
H11   H     H_    0.200113 0.654864 0.166623 0.360444
N4    N     N_R   0.772058 0.297111 0.604088 0.218719
O25   O     O_R   0.695621 0.249704 0.568225 -0.361683
O26   O     O_R   0.810575 0.255029 0.712377 -0.277173
N5    N     N_R   0.353031 0.309673 0.148671 0.245931
O27   O     O_R   0.426175 0.249185 0.131459 -0.290852
O28   O     O_R   0.293936 0.265174 0.233109 -0.263231
C42   C     C_2   0.901307 0.156206 0.479483 1.075415
O29   O     O_2   0.915401 0.066590 0.552401 -0.504138
O30   O     O_R   0.837195 0.148822 0.377827 -0.717307
H12   H     H_    0.806639 0.064758 0.374827 0.356509
N6    N     N_R   0.091230 0.160157 0.495050 0.244796
O31   O     O_R   0.132491 0.133254 0.385809 -0.241017
O32   O     O_R   0.093767 0.084196 0.597665 -0.235886
N7    N     N_R   0.230393 0.295014 0.586927 0.232642
O33   O     O_R   0.295005 0.238724 0.528729 -0.321518
O34   O     O_R   0.213329 0.271434 0.712294 -0.366933
N8    N     N_R   0.237210 0.730481 0.456434 0.189507
O35   O     O_R   0.214878 0.817462 0.535909 -0.291973
O36   O     O_R   0.304860 0.748771 0.376500 -0.332052
C43   C     C_2   0.917683 0.814919 0.300723 0.943278
O37   O     O_2   0.951411 0.918445 0.301741 -0.556648
O38   O     O_R   0.843958 0.791367 0.218238 -0.719356
H13   H     H_    0.822978 0.867923 0.168063 0.380203
C44   C     C_2   0.597282 0.135069 0.281507 1.016590
O39   O     O_2   0.652281 0.212455 0.316406 -0.530870
O40   O     O_R   0.592291 0.105807 0.146841 -0.726906
H14   H     H_    0.643303 0.144900 0.093187 0.373489

loop_
_geom_bond_atom_site_label_1
_geom_bond_atom_site_label_2
_geom_bond_distance
_ccdc_geom_bond_type
C35   O10   1.397619 S    
C36   O11   1.221816 D    
C38   O16   1.397856 S    
C43   O37   1.223144 D    
C8    C11   1.417141 A    
C29   N1    1.373170 A    
C24   C25   1.417656 A    
O12   H6    1.012784 S    
C33   H3    1.112352 S    
N5    O27   1.299714 A    
Zn1   O7    2.011182 S    
C44   O40   1.395913 S    
C16   C17   1.392217 A    
C26   C27   1.490761 S    
C40   O22   1.395150 S    
C18   N7    1.431235 S    
Zn1   N2    2.043689 S    
C25   C26   1.376194 A    
Zn2   N1    2.044624 S    
C23   C24   1.410316 A    
O4    C2    1.295886 A    
O7    C4    1.300556 A    
C41   O24   1.397241 S    
C1    C22   1.440512 S    
C5    C6    1.407748 A    
C7    N4    1.438542 S    
C21   C28   1.523430 S    
C34   C41   1.516805 S    
O5    C3    1.307143 A    
N7    O33   1.300340 A    
C6    C7    1.400376 A    
C29   C32   1.412628 A    
C5    C35   1.487857 S    
C27   C37   1.514216 S    
C11   C42   1.487015 S    
C16   H1    1.083600 S    
C43   O38   1.397539 S    
C11   C12   1.401837 A    
O18   H9    1.009641 S    
O3    Zn1   2.008523 S    
C22   C23   1.433473 A    
C33   H4    1.109300 S    
N5    O28   1.301245 A    
C5    C10   1.409812 A    
C37   O14   1.393923 S    
C40   O21   1.221417 D    
C24   C36   1.478735 S    
C39   O17   1.222186 D    
O22   H10   1.013912 S    
C3    C25   1.434603 S    
O3    C2    1.297950 A    
N3    O20   1.300912 A    
C41   O23   1.223145 D    
C8    C9    1.413151 A    
C15   C16   1.397083 A    
C21   C26   1.355785 A    
C17   C43   1.488262 S    
C35   O9    1.219654 D    
C39   O18   1.392311 S    
C30   C31   1.424001 A    
C19   C20   1.398242 A    
C33   C34   1.532740 S    
Zn2   O8    2.008522 S    
N6    O32   1.301140 A    
C7    C8    1.400230 A    
C13   C18   1.399676 A    
C14   C15   1.413665 A    
C31   C40   1.466521 S    
O8    C4    1.299550 A    
N8    O35   1.301314 A    
N4    O26   1.301819 A    
N4    O25   1.296115 A    
C36   O12   1.398649 S    
C4    C6    1.441872 S    
N1    C30   1.372843 A    
O40   H14   1.013197 S    
C31   N2    1.381865 A    
C15   C20   1.397004 A    
Zn1   O5    2.016490 S    
C32   C33   1.489023 S    
C18   C19   1.394942 A    
C30   N3    1.425010 S    
O1    Zn1   2.037406 S    
C23   C44   1.500067 S    
C28   C39   1.520818 S    
C34   N5    1.471930 S    
O2    Zn2   2.016491 S    
C42   O30   1.397722 S    
O24   H11   1.013816 S    
O6    C3    1.292570 A    
O4    Zn2   2.011182 S    
N7    O34   1.299926 A    
O10   H5    1.013253 S    
C10   C17   1.423393 A    
C28   C38   1.518039 S    
C44   O39   1.220441 D    
C20   N8    1.440787 S    
N8    O36   1.299824 A    
C21   C22   1.400998 A    
C9    C10   1.420843 A    
O2    C1    1.297503 A    
N3    O19   1.299561 A    
C27   H2    1.113662 S    
O30   H12   1.013667 S    
C27   C28   1.545075 S    
N6    O31   1.300788 A    
C29   C34   1.506597 S    
C9    C14   1.401103 A    
O14   H7    1.013551 S    
C13   C14   1.415730 A    
C38   O15   1.221915 D    
N2    C32   1.363210 A    
C37   O13   1.222133 D    
C2    C19   1.426445 S    
C42   O29   1.221855 D    
Zn2   O6    2.037408 S    
O16   H8    1.013829 S    
O38   H13   1.013969 S    
C12   N6    1.436479 S    
C12   C13   1.413901 A    
O1    C1    1.305399 A    
