data_mof_unit_45590.cif
_audit_creation_date              2012-12-10T17:35:37-0500
_audit_creation_method            fapswitch 2.2
_symmetry_space_group_name_H-M    P1
_symmetry_Int_Tables_number       1
_space_group_crystal_system       triclinic
_cell_length_a                    10.721421
_cell_length_b                    12.317776
_cell_length_c                    13.181596
_cell_angle_alpha                 116.979326
_cell_angle_beta                  77.40025
_cell_angle_gamma                 101.543526
_cell_volume                      1503.72804765

loop_
_atom_site_label
_atom_site_type_symbol
_atom_type_description
_atom_site_fract_x
_atom_site_fract_y
_atom_site_fract_z
_atom_type_partial_charge
C1    C     C_R   0.513247 0.854611 0.286301 0.772527
C2    C     C_3   0.122438 0.998656 0.498559 0.065840
C3    C     C_3   0.074150 0.116468 0.599315 -0.403492
C4    C     C_3   0.041517 0.885437 0.512823 -0.381435
C5    C     C_R   0.298822 0.282685 0.011690 -0.194006
C6    C     C_R   0.447294 0.228681 0.834297 -0.075490
C7    C     C_R   0.608088 0.813389 0.086381 -0.273825
C8    C     C_R   0.625519 0.737918 0.969461 -0.159687
C9    C     C_R   0.566838 0.617327 0.926754 0.365523
C10   C     C_R   0.491340 0.569298 0.004115 -0.008486
C11   C     C_R   0.456530 0.653091 0.120129 0.040495
C12   C     C_R   0.739793 0.000619 0.501051 0.776415
C13   C     C_R   0.446441 0.442878 0.971699 0.087649
C14   C     C_R   0.347534 0.406738 0.045257 0.165461
C15   C     C_R   0.298900 0.494655 0.151503 -0.237728
C16   C     C_R   0.353705 0.615842 0.189310 -0.179833
C17   C     C_R   0.502103 0.350456 0.871686 -0.178772
C18   C     C_R   0.346634 0.194176 0.905275 -0.202447
C19   C     C_R   0.523142 0.772948 0.162662 -0.096403
C20   C     C_R   0.708050 0.348155 0.330690 -0.288558
C21   C     C_R   0.324257 0.758817 0.644390 0.066420
C22   C     C_R   0.284839 0.661187 0.674442 -0.230962
C23   C     C_R   0.480243 0.145382 0.713567 0.811941
C24   C     C_R   0.350127 0.557511 0.619220 -0.112209
C25   C     C_R   0.456791 0.550421 0.533025 0.009634
C26   C     C_R   0.493256 0.652733 0.504767 0.291783
C27   C     C_R   0.528754 0.446415 0.474186 -0.010282
C28   C     C_R   0.634996 0.447305 0.388863 0.176931
C29   C     C_R   0.668057 0.547115 0.361961 -0.281999
C30   C     C_R   0.598740 0.647176 0.418349 -0.185783
C31   C     C_R   0.501008 0.341008 0.496261 0.098411
C32   C     C_R   0.676194 0.248006 0.356978 0.111702
C33   C     C_R   0.260288 0.999290 0.499042 0.769170
C34   C     C_3   0.958324 0.991446 0.380737 0.017827
C35   C     C_3   0.103126 0.993659 0.383231 -0.373095
C36   C     C_3   0.930534 0.118666 0.599550 0.198585
C37   C     C_3   0.898482 0.888106 0.516751 -0.444767
C38   C     C_3   0.878589 0.999568 0.498558 0.022573
Cu1   Cu    Cu3+1 0.529690 0.098270 0.475420 0.976134
Cu2   Cu    Cu3+1 0.470310 0.901730 0.524580 0.916696
H1    H     H_    0.947345 0.074728 0.372063 0.201162
H2    H     H_    0.055561 0.884551 0.593699 0.180950
H3    H     H_    0.875459 0.121413 0.682567 0.110364
H4    H     H_    0.086734 0.120030 0.682470 0.134317
H5    H     H_    0.302417 0.100025 0.877005 0.146201
H6    H     H_    0.220841 0.469086 0.207221 0.143379
H7    H     H_    0.221720 0.254705 0.066457 0.133509
H8    H     H_    0.589275 0.370714 0.821398 0.215680
H9    H     H_    0.659684 0.904882 0.116958 0.169892
H10   H     H_    0.684295 0.774263 0.911284 0.176257
H11   H     H_    0.311470 0.680272 0.272042 0.165006
H12   H     H_    0.732284 0.171205 0.312568 0.116296
H13   H     H_    0.748960 0.548213 0.296491 0.146946
H14   H     H_    0.789465 0.348273 0.265434 0.133566
H15   H     H_    0.422027 0.332293 0.559464 0.130200
H16   H     H_    0.272854 0.838800 0.687543 0.121989
H17   H     H_    0.315398 0.484719 0.645928 0.155582
H18   H     H_    0.203319 0.665840 0.740723 0.156947
H19   H     H_    0.632026 0.718413 0.391084 0.201076
H20   H     H_    0.143769 0.911684 0.310933 0.159795
H21   H     H_    0.158042 0.075267 0.371980 0.172664
H22   H     H_    0.133552 0.198544 0.592160 0.209227
H23   H     H_    0.845797 0.894392 0.601656 0.189396
H24   H     H_    0.859220 0.800251 0.450186 0.186686
H25   H     H_    0.073060 0.799339 0.439830 0.177988
N1    N     N_R   0.574690 0.246280 0.438200 -0.181534
N2    N     N_R   0.426100 0.754320 0.561190 -0.205552
O1    O     O_R   0.537340 0.972510 0.318130 -0.586304
O2    O     O_R   0.487200 0.806530 0.359650 -0.604418
O3    O     O_R   0.707380 0.082980 0.479220 -0.531460
O4    O     O_R   0.657240 0.917000 0.520740 -0.610982
O5    O     O_R   0.512800 0.193470 0.640350 -0.539330
O6    O     O_R   0.462660 0.027490 0.681870 -0.589151
O7    O     O_R   0.342760 0.083000 0.479260 -0.597710
O8    O     O_R   0.292620 0.917020 0.520780 -0.600213
Cl1   Cl    Cl    0.571113 0.543629 0.775981 -0.667412
C39   C     C_3   0.910539 0.878353 0.274525 -0.418435
C40   C     C_3   0.961362 0.891949 0.162625 -0.856773
H26   H     H_    0.927868 0.973755 0.166724 0.240148
H27   H     H_    0.068119 0.901065 0.146388 0.255946
H28   H     H_    0.924410 0.809552 0.089546 0.256411
H29   H     H_    0.940543 0.793155 0.266463 0.214570
H30   H     H_    0.803902 0.866025 0.283627 0.194414
Cl2   Cl    Cl    0.910417 0.258864 0.596797 -0.629748

loop_
_geom_bond_atom_site_label_1
_geom_bond_atom_site_label_2
_ccdc_geom_bond_type
C2    C35   S    
C31   N1    A    
Cu2   O4    S    
Cu1   O1    S    
C17   H8    S    
C7    C8    A    
C39   C40   S    
C5    H7    S    
C11   C19   A    
C29   C30   A    
C29   H13   S    
C26   N2    A    
C3    C36   S    
C28   C29   A    
C34   C39   S    
C4    H25   S    
C40   H27   S    
C39   H30   S    
C15   C16   A    
C1    O1    A    
Cu2   O6    S    
C34   C35   S    
Cu1   O7    S    
C32   H12   S    
C33   O8    A    
C8    C9    A    
Cu2   N2    S    
Cu1   O5    S    
C16   H11   S    
C9    Cl1   S    
C9    C10   A    
C21   C22   A    
C21   N2    A    
C34   H1    S    
C23   O6    A    
C37   H23   S    
C6    C18   A    
C3    H4    S    
C1    C19   S    
Cu2   O2    S    
C27   C31   A    
C24   C25   A    
C7    H9    S    
C20   H14   S    
Cu1   Cu2   S    
C40   H26   S    
C24   H17   S    
C5    C18   A    
C20   C28   A    
C25   C26   A    
C1    O2    A    
C35   H20   S    
C2    C4    S    
C37   C38   S    
C11   C16   A    
C30   H19   S    
C35   H21   S    
C5    C14   A    
C2    C33   S    
C12   O4    A    
C26   C30   A    
C7    C19   A    
Cu1   N1    S    
C22   C24   A    
C18   H5    S    
C8    H10   S    
C37   H24   S    
C32   N1    A    
C20   C32   A    
C3    H22   S    
C6    C17   A    
C12   O3    A    
C34   C38   S    
C23   O5    A    
C10   C13   A    
C22   H18   S    
C21   H16   S    
C25   C27   A    
Cu2   O8    S    
C13   C17   A    
C36   C38   S    
C2    C3    S    
C40   H28   S    
C4    H2    S    
C39   H29   S    
C36   Cl2   S    
C6    C23   S    
Cu1   O3    S    
C12   C38   S    
C10   C11   A    
C33   O7    A    
C4    C37   S    
C27   C28   A    
C14   C15   A    
C36   H3    S    
C15   H6    S    
C31   H15   S    
C13   C14   A    
