data_mof_unit_57009.cif
_audit_creation_date              2012-12-10T18:14:42-0500
_audit_creation_method            fapswitch 2.2
_symmetry_space_group_name_H-M    P1
_symmetry_Int_Tables_number       1
_space_group_crystal_system       triclinic
_cell_length_a                    10.770697
_cell_length_b                    9.477662
_cell_length_c                    27.786226
_cell_angle_alpha                 89.459147
_cell_angle_beta                  88.001373
_cell_angle_gamma                 90.767799
_cell_volume                      2834.32711981

loop_
_atom_site_label
_atom_site_type_symbol
_atom_type_description
_atom_site_fract_x
_atom_site_fract_y
_atom_site_fract_z
_atom_type_partial_charge
C1    C     C_R   0.259465 0.499086 0.499383 0.842827
C2    C     C_R   0.466393 0.626605 0.279463 0.292981
C3    C     C_R   0.497202 0.504338 0.253642 0.208004
C4    C     C_R   0.495038 0.511056 0.101940 -0.083413
C5    C     C_R   0.396044 0.443906 0.128609 -0.107951
C6    C     C_R   0.301668 0.374561 0.103206 0.316615
C7    C     C_R   0.595403 0.570743 0.126283 -0.015707
C8    C     C_R   0.499063 0.501937 0.354653 -0.134636
C9    C     C_R   0.506931 0.498287 0.645316 -0.152846
C10   C     C_R   0.384493 0.483462 0.975958 -0.002945
C11   C     C_R   0.602704 0.567081 0.973319 0.052634
C12   C     C_R   0.499830 0.500584 0.407576 0.811964
C13   C     C_R   0.494606 0.523280 0.949346 0.048213
C14   C     C_R   0.272773 0.466155 0.950492 0.233385
C15   C     C_R   0.277181 0.459803 0.900374 -0.135099
C16   C     C_R   0.388649 0.482483 0.874039 -0.086369
C17   C     C_R   0.496449 0.520087 0.898296 -0.047108
C18   C     C_R   0.605914 0.555174 0.871400 -0.025386
C19   C     C_R   0.605864 0.550062 0.820936 0.607892
C20   C     C_R   0.393568 0.474767 0.823565 0.599081
C21   C     C_R   0.435861 0.600029 0.720931 -0.108413
C22   C     C_R   0.436688 0.597727 0.670969 -0.184997
C23   C     C_R   0.739529 0.501005 0.496962 0.793954
C24   C     C_R   0.578894 0.400509 0.670717 0.194540
C25   C     C_R   0.574301 0.399845 0.721446 0.313097
C26   C     C_R   0.503651 0.501416 0.746461 0.212142
C27   C     C_R   0.390946 0.464462 0.026556 0.005633
C28   C     C_R   0.494618 0.517621 0.050831 0.080549
C29   C     C_R   0.598831 0.574936 0.024359 0.054260
C30   C     C_R   0.302013 0.383428 0.053145 -0.167570
C31   C     C_R   0.694342 0.634435 0.099988 -0.087872
C32   C     C_R   0.711570 0.599993 0.945285 -0.169134
C33   C     C_R   0.712829 0.594301 0.895318 -0.099319
C34   C     C_R   0.503447 0.499391 0.592373 0.924713
C35   C     C_R   0.696420 0.636288 0.050010 -0.168118
C36   C     C_3   0.061649 0.535747 0.548901 0.156316
C37   C     C_3   0.066739 0.353668 0.479720 0.138618
C38   C     C_3   0.920339 0.508955 0.548621 -0.366670
C39   C     C_3   0.927140 0.367258 0.471234 -0.395202
C40   C     C_3   0.077258 0.615226 0.462984 -0.502794
C41   C     C_3   0.120602 0.497866 0.498557 -0.004410
C42   C     C_3   0.876982 0.502211 0.495950 0.044381
C43   C     C_3   0.933890 0.629543 0.466836 -0.392392
C44   C     C_3   0.622546 0.085411 0.484610 -0.284163
C45   C     C_3   0.624183 0.918525 0.486931 -0.284276
C46   C     C_3   0.474332 0.079992 0.550360 0.256985
C47   C     C_3   0.465340 0.913026 0.549519 0.224468
C48   C     C_3   0.407387 0.082694 0.468405 -0.201195
C49   C     C_3   0.412184 0.916607 0.466300 -0.186548
C50   C     C_R   0.397971 0.446449 0.179464 0.658783
C51   C     C_R   0.594719 0.565665 0.176642 0.630954
C52   C     C_R   0.528790 0.380815 0.278550 0.293789
C53   C     C_R   0.528852 0.379805 0.328756 -0.243467
C54   C     C_R   0.468181 0.625226 0.329642 -0.243820
Cu1   Cu    Cu3+1 0.499860 0.642410 0.500020 0.947790
Cu2   Cu    Cu3+1 0.499860 0.357590 0.500020 0.984026
H1    H     H_    0.443933 0.720167 0.349011 0.180285
H2    H     H_    0.771473 0.682885 0.117977 0.205305
H3    H     H_    0.798672 0.620010 0.875485 0.205279
H4    H     H_    0.077189 0.650489 0.554870 0.175140
H5    H     H_    0.114926 0.327364 0.444929 0.110488
H6    H     H_    0.895841 0.407818 0.567444 0.254445
H7    H     H_    0.876288 0.271059 0.484366 0.208511
H8    H     H_    0.120043 0.719501 0.470976 0.214134
H9    H     H_    0.106636 0.588479 0.425400 0.187645
H10   H     H_    0.646479 0.122608 0.447282 0.173175
H11   H     H_    0.655956 0.876811 0.451358 0.179826
H12   H     H_    0.312932 0.114367 0.480189 0.218799
H13   H     H_    0.317198 0.872590 0.472893 0.189391
H14   H     H_    0.422797 0.126530 0.431423 0.158048
H15   H     H_    0.439709 0.884856 0.429040 0.151398
H16   H     H_    0.234890 0.319328 0.035063 0.211291
H17   H     H_    0.553595 0.283882 0.347415 0.182474
N1    N     N_R   0.496559 0.505634 0.201992 -0.455936
N2    N     N_R   0.501469 0.507104 0.798137 -0.454490
N3    N     N_3   0.500250 0.143650 0.501060 -0.175104
N4    N     N_3   0.500250 0.856350 0.501060 -0.167978
O1    O     O_R   0.317570 0.620260 0.500030 -0.569998
O2    O     O_R   0.317570 0.379740 0.500030 -0.536183
O3    O     O_R   0.499900 0.620250 0.430280 -0.596885
O4    O     O_R   0.499900 0.379750 0.430280 -0.602656
O5    O     O_R   0.682190 0.620260 0.500010 -0.602299
O6    O     O_R   0.682190 0.379740 0.500010 -0.595239
O7    O     O_R   0.499860 0.620280 0.569750 -0.577284
O8    O     O_R   0.499860 0.379720 0.569750 -0.521224
O9    O     O_2   0.302355 0.392528 0.206581 -0.443141
O10   O     O_2   0.291509 0.434839 0.800063 -0.482881
O11   O     O_2   0.691265 0.620557 0.200268 -0.486489
O12   O     O_2   0.709110 0.588102 0.794803 -0.481705
Br1   Br    Br    0.574085 0.212478 0.244898 -0.369794
H18   H     H_    0.798790 0.626710 0.960985 0.175643
Br2   Br    Br    0.692773 0.277296 0.637179 -0.432595
Br3   Br    Br    0.661203 0.258625 0.756948 -0.322062
H19   H     H_    0.774780 0.689628 0.032439 0.163346
Br4   Br    Br    0.133616 0.447816 0.604949 -0.321230
Br5   Br    Br    0.084318 0.189715 0.521732 -0.435602
Br6   Br    Br    0.419580 0.796403 0.247171 -0.370333
H20   H     H_    0.872189 0.594805 0.568635 0.165720
H21   H     H_    0.911693 0.373126 0.431844 0.153098
H22   H     H_    0.909735 0.729984 0.485171 0.198805
H23   H     H_    0.895863 0.634041 0.430122 0.182688
H24   H     H_    0.697177 0.125459 0.507657 0.183207
H25   H     H_    0.694087 0.885022 0.513129 0.166422
H26   H     H_    0.553636 0.107334 0.573138 0.125786
H27   H     H_    0.532211 0.873649 0.575956 0.111894
Br7   Br    Br    0.334114 0.161235 0.586774 -0.272410
Br8   Br    Br    0.302725 0.836615 0.573142 -0.435156
Br9   Br    Br    0.171546 0.257727 0.132434 -0.307059
H28   H     H_    0.381204 0.673461 0.652403 0.224538
H29   H     H_    0.381660 0.678497 0.740028 0.187368
H30   H     H_    0.191285 0.443237 0.881929 0.221376
Br10  Br    Br    0.107922 0.484998 0.979023 -0.496566

loop_
_geom_bond_atom_site_label_1
_geom_bond_atom_site_label_2
_ccdc_geom_bond_type
C10   C27   A    
C21   C26   A    
C25   Br3   S    
Cu2   N3    S    
C23   O5    A    
C48   N3    S    
C44   H10   S    
C51   N1    A    
C38   H20   S    
C46   N3    S    
C21   H29   S    
Cu2   O4    S    
C52   C53   A    
C14   Br10  S    
C23   C42   S    
C23   O6    A    
C31   H2    S    
C28   C29   A    
C38   C42   S    
C50   N1    A    
C5    C6    A    
Cu1   N4    S    
C9    C22   A    
C32   H18   S    
C15   C16   A    
C20   O10   S    
C12   O3    A    
C18   C19   A    
C44   N3    S    
C3    N1    S    
C45   H25   S    
C52   Br1   S    
C40   C43   S    
C2    Br6   S    
C16   C17   A    
C47   H27   S    
C45   H11   S    
C16   C20   A    
C33   H3    S    
C49   H13   S    
C21   C22   A    
C27   C30   A    
C1    O1    A    
C36   C41   S    
C34   O7    A    
C4    C7    A    
C24   Br2   S    
C4    C28   A    
C26   N2    S    
C39   C42   S    
C7    C31   A    
C15   H30   S    
C24   C25   A    
C2    C54   A    
C8    C54   A    
Cu1   O1    S    
C44   H24   S    
C25   C26   A    
C46   H26   S    
C48   H12   S    
C37   Br5   S    
C34   O8    A    
C8    C53   A    
C43   H23   S    
C19   O12   S    
C39   H21   S    
C8    C12   S    
C22   H28   S    
Cu1   Cu2   S    
C17   C18   A    
C43   H22   S    
Cu1   O5    S    
Cu2   O2    S    
C11   C29   A    
C1    C41   S    
C40   C41   S    
C6    C30   A    
C11   C32   A    
C47   Br8   S    
C40   H9    S    
C10   C14   A    
C9    C34   S    
C1    O2    A    
C31   C35   A    
C5    C50   A    
C42   C43   S    
C47   N4    S    
C44   C45   S    
Cu2   O6    S    
C35   H19   S    
C46   C47   S    
C48   C49   S    
C37   H5    S    
C53   H17   S    
C48   H14   S    
C4    C5    A    
C36   H4    S    
C10   C13   A    
C51   O11   S    
C30   H16   S    
C3    C52   A    
C9    C24   A    
C39   H7    S    
C29   C35   A    
C40   H8    S    
C13   C17   A    
C32   C33   A    
C36   C38   S    
C2    C3    A    
C7    C51   A    
C37   C39   S    
Cu1   O3    S    
C11   C13   A    
C36   Br4   S    
Cu2   O8    S    
C46   Br7   S    
C19   N2    A    
C49   N4    S    
C12   O4    A    
C37   C41   S    
C18   C33   A    
C50   O9    S    
C20   N2    A    
C49   H15   S    
C27   C28   A    
C6    Br9   S    
C14   C15   A    
C45   N4    S    
Cu1   O7    S    
C38   H6    S    
C54   H1    S    
