data_mof_unit_65929.cif
_audit_creation_date              2013-03-05T16:30:24-0500
_audit_creation_method            fapswitch 2.2
_symmetry_space_group_name_H-M    P1
_symmetry_Int_Tables_number       1
_space_group_crystal_system       triclinic
_cell_length_a                    10.832256
_cell_length_b                    19.45318
_cell_length_c                    18.18713
_cell_angle_alpha                 88.082545
_cell_angle_beta                  90.784696
_cell_angle_gamma                 90.517869
_cell_volume                      3829.77896796

loop_
_atom_site_label
_atom_site_type_symbol
_atom_site_description
_atom_site_fract_x
_atom_site_fract_y
_atom_site_fract_z
_atom_type_partial_charge
O1    O     O_R   0.499950 0.400180 0.561980 -0.582641
O2    O     O_R   0.500050 0.599820 0.438020 -0.571874
O3    O     O_R   0.500010 0.400190 0.438070 -0.596364
O4    O     O_R   0.499990 0.599810 0.561930 -0.584559
C1    C     C_R   0.500270 0.367158 0.501347 0.848185
C2    C     C_R   0.495809 0.632657 0.498527 0.852485
O5    O     O_R   0.319610 0.500000 0.561950 -0.617383
O6    O     O_R   0.680390 0.500000 0.438050 -0.561469
O7    O     O_R   0.319670 0.500010 0.438050 -0.549483
O8    O     O_R   0.680330 0.499990 0.561950 -0.494914
C3    C     C_R   0.262410 0.498086 0.499618 0.868526
C4    C     C_R   0.737502 0.502932 0.500525 0.906629
Cu1   Cu    Cu3+1 0.499960 0.500000 0.573360 1.037539
Cu2   Cu    Cu3+1 0.500040 0.500000 0.426640 1.030340
H1    H     H_    0.230934 0.184578 0.450684 0.214140
H2    H     H_    0.749524 0.811566 0.560240 0.216806
C5    C     C_R   0.186941 0.281861 0.398633 0.328373
C6    C     C_R   0.792205 0.712159 0.607801 0.324490
C7    C     C_R   0.144218 0.348640 0.408502 0.319332
C8    C     C_R   0.837510 0.646358 0.595436 0.359036
C9    C     C_R   0.124629 0.371620 0.480094 -0.231031
C10   C     C_R   0.875178 0.629353 0.524340 -0.252667
C11   C     C_R   0.146869 0.327024 0.542279 -0.178370
C12   C     C_R   0.869375 0.679514 0.465671 -0.162724
C13   C     C_R   0.182645 0.258405 0.530468 0.385639
C14   C     C_R   0.820210 0.745034 0.479236 0.399117
C15   C     C_R   0.203483 0.237051 0.459219 -0.294590
C16   C     C_R   0.784296 0.760811 0.550021 -0.315120
C17   C     C_R   0.931712 0.438979 0.491268 -0.015866
C18   C     C_R   0.068184 0.561708 0.512382 -0.040009
C19   C     C_R   0.871285 0.501485 0.502598 -0.054728
C20   C     C_R   0.128556 0.499667 0.498677 -0.079352
C21   C     C_R   0.938737 0.562610 0.514372 -0.019846
C22   C     C_R   0.061116 0.438370 0.488627 -0.013721
C23   C     C_R   0.466632 0.747470 0.427870 -0.098374
C24   C     C_R   0.502026 0.250125 0.570568 -0.118043
C25   C     C_R   0.465428 0.819968 0.429169 0.427507
C26   C     C_R   0.502315 0.177802 0.567606 0.435752
C27   C     C_R   0.476979 0.852783 0.496474 -0.070280
C28   C     C_R   0.502796 0.146425 0.499318 -0.081451
C29   C     C_R   0.485816 0.814445 0.562380 -0.207474
C30   C     C_R   0.506106 0.186156 0.434192 -0.197728
H3    H     H_    0.493190 0.839937 0.614343 0.207382
H4    H     H_    0.506718 0.161792 0.381494 0.205543
C31   C     C_R   0.488572 0.743187 0.561823 -0.158235
C32   C     C_R   0.507301 0.257413 0.436343 -0.146779
H5    H     H_    0.497941 0.715150 0.614007 0.205954
H6    H     H_    0.508806 0.286448 0.384505 0.191661
C33   C     C_R   0.483431 0.708615 0.495242 -0.136881
C34   C     C_R   0.503973 0.290755 0.503753 -0.150146
C35   C     C_R   0.372678 0.966933 0.503823 -0.014115
C36   C     C_R   0.606663 0.032339 0.490181 -0.018008
C37   C     C_R   0.382884 0.038730 0.502452 -0.027080
C38   C     C_R   0.596430 0.960541 0.491574 -0.033347
H7    H     H_    0.301027 0.069808 0.507371 0.200997
H8    H     H_    0.678353 0.929418 0.487246 0.209243
C39   C     C_R   0.498217 0.071340 0.495702 0.003861
C40   C     C_R   0.481145 0.927959 0.498403 0.002337
C41   C     C_R   0.588137 0.469014 0.728097 0.583221
C42   C     C_R   0.574284 0.542058 0.274117 0.562184
C43   C     C_R   0.579748 0.469964 0.804878 -0.200228
C44   C     C_R   0.566933 0.541718 0.197087 -0.201851
H9    H     H_    0.652728 0.446937 0.838497 0.208600
H10   H     H_    0.629499 0.574123 0.165096 0.215071
C45   C     C_R   0.478364 0.499430 0.838567 0.082924
C46   C     C_R   0.479586 0.500409 0.161320 0.067956
C47   C     C_R   0.386722 0.530478 0.792134 -0.108597
C48   C     C_R   0.401917 0.457628 0.205881 -0.121369
C49   C     C_R   0.402804 0.531698 0.715122 -0.046829
C50   C     C_R   0.417062 0.457503 0.283183 -0.029737
H11   H     H_    0.334259 0.556690 0.679983 0.146814
H12   H     H_    0.359405 0.424536 0.317460 0.181971
N1    N     N_R   0.499990 0.500020 0.683620 -0.209372
N2    N     N_R   0.500010 0.499980 0.316380 -0.220321
C51   C     C_R   0.465512 0.561128 0.958091 -0.169574
C52   C     C_R   0.488988 0.438895 0.041657 -0.183125
H13   H     H_    0.458009 0.609076 0.926359 0.199357
H14   H     H_    0.499655 0.391104 0.073327 0.193482
C53   C     C_R   0.463726 0.562425 0.035366 0.408423
C54   C     C_R   0.485732 0.437286 0.964437 0.408326
C55   C     C_R   0.476407 0.500889 0.078446 -0.000877
C56   C     C_R   0.474840 0.498903 0.921347 0.000799
C57   C     C_2   0.249332 0.933388 0.510692 0.484258
H15   H     H_    0.240258 0.877789 0.511642 0.081754
O9    O     O_2   0.155819 0.967526 0.515408 -0.451419
C58   C     C_2   0.730206 0.065791 0.484048 0.476111
H16   H     H_    0.739606 0.121344 0.484120 0.084714
O10   O     O_2   0.823563 0.031607 0.478822 -0.449369
Cl1   Cl    Cl    0.715164 0.425997 0.693106 -0.495561
Cl2   Cl    Cl    0.679904 0.598663 0.313912 -0.554878
C59   C     C_2   0.270615 0.559363 0.819914 0.448724
H17   H     H_    0.216217 0.593862 0.784563 0.087016
O11   O     O_2   0.231250 0.543043 0.880643 -0.451977
C60   C     C_2   0.301278 0.414539 0.175380 0.487626
H18   H     H_    0.266925 0.370554 0.207307 0.154540
O12   O     O_2   0.252150 0.428926 0.116121 -0.450179
Cl3   Cl    Cl    0.439837 0.642161 0.075789 -0.447949
Cl4   Cl    Cl    0.490254 0.356319 0.924022 -0.451274
Cl5   Cl    Cl    0.213895 0.251268 0.310440 -0.523990
Cl6   Cl    Cl    0.746441 0.735760 0.695868 -0.485166
Cl7   Cl    Cl    0.103796 0.401419 0.331093 -0.576264
Cl8   Cl    Cl    0.856630 0.587378 0.670568 -0.490236
C61   C     C_2   0.127913 0.352512 0.617828 0.537275
H19   H     H_    0.082510 0.401127 0.625545 0.082013
O13   O     O_2   0.165192 0.320918 0.672653 -0.397262
C62   C     C_2   0.920139 0.663257 0.392483 0.613160
H20   H     H_    0.935751 0.610267 0.378622 0.090813
O14   O     O_2   0.948498 0.708268 0.347360 -0.407797
Cl9   Cl    Cl    0.192169 0.194812 0.601618 -0.409372
Cl10  Cl    Cl    0.799425 0.809460 0.409795 -0.424598
C63   C     C_2   0.861355 0.373305 0.483884 0.388565
H21   H     H_    0.890970 0.335359 0.445641 0.115099
O15   O     O_2   0.773534 0.359538 0.523094 -0.541135
C64   C     C_2   0.138653 0.626625 0.523345 0.335083
H22   H     H_    0.110188 0.662041 0.564602 0.112171
O16   O     O_2   0.224473 0.642815 0.483566 -0.583168
C65   C     C_2   0.443154 0.713657 0.356992 0.584968
H23   H     H_    0.377376 0.671431 0.354012 0.101808
O17   O     O_2   0.497504 0.732319 0.301348 -0.388002
C66   C     C_2   0.502459 0.281457 0.643574 0.547841
H24   H     H_    0.571916 0.319122 0.657041 0.131258
O18   O     O_2   0.425744 0.264809 0.689516 -0.379818
Cl11  Cl    Cl    0.443610 0.870829 0.347377 -0.427447
Cl12  Cl    Cl    0.507488 0.125511 0.649360 -0.431403

loop_
_geom_bond_atom_site_label_1
_geom_bond_atom_site_label_2
_geom_bond_distance
_ccdc_geom_bond_type
H2    C16   1.082659 S    
C46   C48   1.420608 A    
C18   C64   1.487435 S    
C63   H21   1.084586 S    
C64   H22   1.085132 S    
C27   C29   1.392997 A    
O5    C3    1.285936 A    
C6    Cl6   1.759829 S    
O1    C1    1.294700 A    
Cu2   N2    2.005323 S    
C23   C25   1.411489 A    
C12   C14   1.416320 A    
C65   O17   1.220836 D    
C41   Cl1   1.754710 S    
C58   O10   1.221854 D    
C8    Cl8   1.765819 S    
C62   H20   1.084647 S    
C42   C44   1.402354 A    
C30   C32   1.387980 A    
O4    Cu1   1.945786 S    
C49   H11   1.081128 S    
C44   H10   1.083401 S    
C25   Cl11  1.773050 S    
C11   C61   1.493686 S    
C63   O15   1.219193 D    
C66   O18   1.220506 D    
C45   C47   1.420258 A    
C23   C33   1.428345 A    
C19   C21   1.410904 A    
C49   N1    1.366793 A    
C18   C20   1.408993 A    
C41   N1    1.373483 A    
C13   Cl9   1.762670 S    
C31   H5    1.082701 S    
Cu1   Cu2   2.668426 S    
C29   H3    1.083509 S    
O2    C2    1.292324 A    
C30   H4    1.083450 S    
C36   C58   1.486705 S    
O2    Cu2   1.959686 S    
C36   C38   1.399507 A    
C32   H6    1.082940 S    
C37   H7    1.084070 S    
C38   H8    1.084010 S    
C41   C43   1.401371 A    
C44   C46   1.403040 A    
C52   H14   1.083390 S    
C5    C15   1.392568 A    
C6    C16   1.392771 A    
C54   C56   1.414920 A    
C59   H17   1.085765 S    
C53   C55   1.415261 A    
C37   C39   1.401057 A    
C58   H16   1.084610 S    
C9    C22   1.488654 S    
C27   C40   1.464283 S    
C17   C22   1.403384 A    
C48   C60   1.482159 S    
C47   C49   1.413172 A    
C20   C22   1.408597 A    
O7    Cu2   1.967629 S    
C50   N2    1.363731 A    
C59   O11   1.220446 D    
O7    C3    1.286754 A    
H1    C15   1.082520 S    
C57   H15   1.084721 S    
C31   C33   1.404877 A    
O6    C4    1.288984 A    
C47   C59   1.483913 S    
C61   O13   1.219614 D    
C35   C40   1.410422 A    
C60   O12   1.220599 D    
C5    Cl5   1.758396 S    
O3    Cu2   1.945790 S    
O8    C4    1.284081 A    
O4    C2    1.299929 A    
C57   O9    1.221805 D    
C8    C10   1.411869 A    
C3    C20   1.450393 S    
C9    C11   1.421401 A    
C4    C19   1.449645 S    
C10   C12   1.422769 A    
C1    C34   1.486343 S    
C23   C65   1.484514 S    
C12   C62   1.491812 S    
C35   C57   1.486610 S    
C24   C34   1.427551 A    
C66   H24   1.076997 S    
C38   C40   1.400468 A    
C10   C21   1.492638 S    
C14   Cl10  1.762894 S    
O6    Cu2   1.961760 S    
C28   C39   1.464681 S    
C18   C21   1.403445 A    
C54   Cl4   1.761629 S    
C53   Cl3   1.761318 S    
C43   H9    1.083637 S    
C52   C54   1.405763 A    
Cu1   N1    2.005323 S    
C28   C30   1.393196 A    
O3    C1    1.299153 A    
O8    Cu1   1.967628 S    
C52   C55   1.407159 A    
C64   O16   1.218474 D    
C51   C56   1.407207 A    
C42   Cl2   1.747342 S    
C13   C15   1.395843 A    
C32   C34   1.407090 A    
C14   C16   1.394705 A    
C24   C26   1.409770 A    
C25   C27   1.402938 A    
C65   H23   1.084758 S    
C46   C55   1.506886 S    
C26   C28   1.402144 A    
C7    Cl7   1.767043 S    
C45   C56   1.506232 S    
C62   O14   1.220038 D    
C42   N2    1.367863 A    
C5    C7    1.400958 A    
C6    C8    1.401263 A    
C11   C13   1.417398 A    
C2    C33   1.484048 S    
C17   C63   1.490681 S    
C60   H18   1.083826 S    
C24   C66   1.479339 S    
C36   C39   1.410712 A    
C43   C45   1.401212 A    
O5    Cu1   1.961761 S    
O1    Cu1   1.959688 S    
C17   C19   1.408635 A    
C51   H13   1.083403 S    
C61   H19   1.084046 S    
C48   C50   1.413121 A    
C29   C31   1.387172 A    
C50   H12   1.080115 S    
C35   C37   1.399469 A    
C51   C53   1.406867 A    
C26   Cl12  1.773755 S    
C7    C9    1.410113 A    
