data_mof_unit_46989.cif
_audit_creation_date              2013-03-05T15:54:34-0500
_audit_creation_method            fapswitch 2.2
_symmetry_space_group_name_H-M    P1
_symmetry_Int_Tables_number       1
_space_group_crystal_system       triclinic
_cell_length_a                    19.148071
_cell_length_b                    19.203794
_cell_length_c                    12.455743
_cell_angle_alpha                 89.588932
_cell_angle_beta                  131.009736
_cell_angle_gamma                 90.864431
_cell_volume                      3455.77250466

loop_
_atom_site_label
_atom_site_type_symbol
_atom_site_description
_atom_site_fract_x
_atom_site_fract_y
_atom_site_fract_z
_atom_type_partial_charge
O1    O     O_R   0.608610 0.924520 0.551740 -0.606739
O2    O     O_R   0.608610 0.075480 0.551740 -0.602449
O3    O     O_R   0.108610 0.424520 0.551740 -0.606742
O4    O     O_R   0.108610 0.575480 0.551740 -0.602445
O5    O     O_R   0.564110 0.924510 0.685150 -0.544370
O6    O     O_R   0.564110 0.075490 0.685150 -0.531831
O7    O     O_R   0.064110 0.424510 0.685150 -0.544367
O8    O     O_R   0.064110 0.575490 0.685150 -0.531831
C1    C     C_R   0.614005 0.900091 0.657735 0.851058
C2    C     C_R   0.608217 0.103587 0.648197 0.820320
C3    C     C_R   0.114005 0.400090 0.657735 0.851041
C4    C     C_R   0.108217 0.603588 0.648197 0.820322
Cu1   Cu    Cu3+1 0.526340 0.000000 0.421010 0.982666
Cu2   Cu    Cu3+1 0.026340 0.500000 0.421010 0.982660
Cu3   Cu    Cu3+1 0.473640 0.000000 0.578990 0.963356
Cu4   Cu    Cu3+1 0.973640 0.500000 0.578990 0.963363
O9    O     O_R   0.435880 0.075470 0.314850 -0.532893
O10   O     O_R   0.435880 0.924530 0.314850 -0.557516
O11   O     O_R   0.935880 0.575470 0.314850 -0.532894
O12   O     O_R   0.935880 0.424530 0.314850 -0.557520
O13   O     O_R   0.391380 0.075460 0.448260 -0.600911
O14   O     O_R   0.391380 0.924540 0.448260 -0.610013
O15   O     O_R   0.891380 0.575460 0.448260 -0.600911
O16   O     O_R   0.891380 0.424540 0.448260 -0.610016
C5    C     C_R   0.390008 0.101476 0.349300 0.815387
C6    C     C_R   0.386292 0.899867 0.345113 0.824146
C7    C     C_R   0.890007 0.601475 0.349299 0.815399
C8    C     C_R   0.886287 0.399871 0.345106 0.824152
C9    C     C_R   0.695569 0.265443 0.181414 -0.196321
C10   C     C_R   0.742857 0.756595 0.247966 -0.191088
C11   C     C_R   0.195620 0.765402 0.181484 -0.196405
C12   C     C_R   0.242860 0.256597 0.247970 -0.191135
H1    H     H_    0.262565 0.835643 0.357227 0.160941
H2    H     H_    0.297935 0.177394 0.404025 0.173314
H3    H     H_    0.762509 0.335688 0.357151 0.160954
H4    H     H_    0.797936 0.677394 0.404027 0.173329
H5    H     H_    0.555372 0.193837 0.957792 0.206172
H6    H     H_    0.621951 0.848433 0.063343 0.137338
H7    H     H_    0.055388 0.693834 0.957817 0.206141
H8    H     H_    0.121947 0.348430 0.063338 0.137347
H9    H     H_    0.644840 0.249173 0.189474 0.169014
H10   H     H_    0.705273 0.779220 0.275745 0.141909
H11   H     H_    0.144906 0.749118 0.189568 0.168974
H12   H     H_    0.205273 0.279220 0.275746 0.141890
C13   C     C_R   0.322453 0.841769 0.258181 -0.069714
C14   C     C_R   0.339402 0.165450 0.279627 -0.095522
C15   C     C_R   0.822433 0.341783 0.258155 -0.069727
C16   C     C_R   0.839397 0.665446 0.279622 -0.095544
C17   C     C_R   0.737928 0.180045 0.726789 -0.357546
C18   C     C_R   0.751529 0.832404 0.749857 -0.405253
C19   C     C_R   0.237929 0.680044 0.726788 -0.357531
C20   C     C_R   0.251524 0.332397 0.749850 -0.405389
C21   C     C_R   0.315817 0.719933 0.832144 0.416582
C22   C     C_R   0.336896 0.303208 0.863284 0.449484
C23   C     C_R   0.815813 0.219937 0.832144 0.416581
C24   C     C_R   0.836888 0.803207 0.863285 0.449451
C25   C     C_R   0.330469 0.738925 0.955620 0.360851
C26   C     C_R   0.350865 0.278121 0.982159 0.395988
C27   C     C_R   0.830462 0.238928 0.955618 0.360841
C28   C     C_R   0.850853 0.778108 0.982147 0.395939
C29   C     C_R   0.755043 0.232245 0.953407 -0.067085
C30   C     C_R   0.780784 0.785473 0.991185 -0.117564
C31   C     C_R   0.255052 0.732241 0.953415 -0.067108
C32   C     C_R   0.280795 0.285483 0.991198 -0.117583
C33   C     C_R   0.674229 0.194570 0.840945 0.026846
C34   C     C_R   0.702784 0.827399 0.888651 0.050382
C35   C     C_R   0.174235 0.694570 0.840951 0.026829
C36   C     C_R   0.202791 0.327403 0.888659 0.050397
C37   C     C_R   0.257821 0.760848 0.061605 0.113120
C38   C     C_R   0.287635 0.255555 0.103312 0.098986
C39   C     C_R   0.757803 0.260859 0.061585 0.113105
C40   C     C_R   0.787625 0.755548 0.103300 0.098997
C41   C     C_R   0.689917 0.241160 0.070095 0.137993
C42   C     C_R   0.734190 0.782281 0.134559 0.174036
C43   C     C_R   0.189944 0.741141 0.070130 0.137985
C44   C     C_R   0.234196 0.282285 0.134566 0.174051
C45   C     C_R   0.611696 0.204228 0.958956 -0.231109
C46   C     C_R   0.666198 0.829584 0.044439 -0.270654
C47   C     C_R   0.111710 0.704224 0.958975 -0.231098
C48   C     C_R   0.166199 0.329585 0.044440 -0.270654
C49   C     C_R   0.600204 0.187778 0.840212 -0.156370
C50   C     C_R   0.645423 0.845935 0.918648 -0.124759
C51   C     C_R   0.100210 0.687781 0.840220 -0.156220
C52   C     C_R   0.145424 0.345935 0.918649 -0.124772
C53   C     C_R   0.319977 0.814183 0.151906 -0.137909
C54   C     C_R   0.338455 0.195560 0.175824 -0.160830
C55   C     C_R   0.819964 0.314191 0.151892 -0.137939
C56   C     C_R   0.838445 0.695552 0.175813 -0.160812
C57   C     C_R   0.262155 0.815184 0.276074 -0.219419
C58   C     C_R   0.295044 0.198157 0.320110 -0.181608
C59   C     C_R   0.762110 0.315219 0.276013 -0.219398
C60   C     C_R   0.795041 0.698155 0.320108 -0.181567
C61   C     C_R   0.671094 0.162618 0.735464 -0.152914
C62   C     C_R   0.687106 0.849849 0.763664 -0.144365
C63   C     C_R   0.171095 0.662618 0.735465 -0.152918
C64   C     C_R   0.187109 0.349849 0.763668 -0.144301
H13   H     H_    0.361424 0.838705 0.132159 0.197845
H14   H     H_    0.372360 0.169054 0.145884 0.257528
H15   H     H_    0.861424 0.338705 0.132162 0.197857
H16   H     H_    0.872345 0.669043 0.145867 0.257542
H17   H     H_    0.733940 0.157875 0.643219 0.183285
H18   H     H_    0.739287 0.847626 0.655014 0.181364
H19   H     H_    0.233939 0.657876 0.643215 0.183288
H20   H     H_    0.239250 0.347599 0.654974 0.181286
H21   H     H_    0.531797 0.170430 0.747943 0.179878
H22   H     H_    0.582147 0.872640 0.850718 0.196931
H23   H     H_    0.031803 0.670434 0.747953 0.179872
H24   H     H_    0.082142 0.372632 0.850710 0.196919
C65   C     C_R   0.688623 0.007447 0.302257 -0.282594
C66   C     C_R   0.188625 0.507432 0.302260 -0.282619
H25   H     H_    0.706639 0.997801 0.490050 0.141495
H26   H     H_    0.206638 0.497793 0.490052 0.141501
H27   H     H_    0.729352 0.031823 0.153108 0.138865
H28   H     H_    0.229361 0.531793 0.153116 0.138868
H29   H     H_    0.762507 0.011381 0.362208 0.156486
H30   H     H_    0.262510 0.511360 0.362212 0.156482
N1    N     N_R   0.566260 0.000000 0.302220 -0.236955
N2    N     N_R   0.066260 0.500000 0.302220 -0.236949
C67   C     C_R   0.343197 0.987613 0.623182 -0.029425
C68   C     C_R   0.843197 0.487615 0.623183 -0.029416
C69   C     C_R   0.311004 0.970881 0.693057 0.275364
C70   C     C_R   0.811003 0.470883 0.693058 0.275377
C71   C     C_R   0.373799 0.971989 0.841721 -0.179502
C72   C     C_R   0.873800 0.471989 0.841721 -0.179496
C73   C     C_R   0.466874 0.993892 0.922314 -0.102262
C74   C     C_R   0.966875 0.493889 0.922315 -0.102264
C75   C     C_R   0.500074 0.002341 0.848024 0.147493
C76   C     C_R   0.000075 0.502338 0.848024 0.147489
C77   C     C_R   0.528893 0.000862 0.075117 -0.089436
C78   C     C_R   0.028895 0.500857 0.075118 -0.089436
C79   C     C_R   0.624063 0.009103 0.153042 0.063061
C80   C     C_R   0.124066 0.509089 0.153044 0.063060
C81   C     C_R   0.656443 0.019468 0.084148 -0.330710
C82   C     C_R   0.156449 0.519449 0.084153 -0.330718
C83   C     C_R   0.600784 0.010960 0.935990 0.452873
C84   C     C_R   0.100787 0.510951 0.935991 0.452875
C85   C     C_R   0.500834 0.004280 0.155717 0.475552
C86   C     C_R   0.000835 0.504280 0.155717 0.475557
C87   C     C_R   0.657901 0.999881 0.375032 -0.010043
C88   C     C_R   0.157901 0.499874 0.375033 -0.010073
N3    N     N_R   0.434410 0.000000 0.697680 -0.228619
N4    N     N_R   0.934410 0.500000 0.697680 -0.228619
H31   H     H_    0.296825 0.985643 0.508329 0.175135
H32   H     H_    0.796824 0.485647 0.508329 0.175134
H33   H     H_    0.349530 0.952279 0.893188 0.213150
H34   H     H_    0.849531 0.452279 0.893189 0.213150
N5    N     N_R   0.409650 0.028135 0.088386 0.114448
O17   O     O_R   0.351289 0.988571 0.081801 -0.372771
O18   O     O_R   0.378866 0.083319 0.008563 -0.359526
N6    N     N_R   0.909652 0.528138 0.088385 0.114440
O19   O     O_R   0.851291 0.488576 0.081803 -0.372764
O20   O     O_R   0.878868 0.583320 0.008556 -0.359525
N7    N     N_R   0.215777 0.950289 0.613680 0.113891
O21   O     O_R   0.157290 0.950450 0.475196 -0.407201
O22   O     O_R   0.186586 0.931101 0.678934 -0.356815
N8    N     N_R   0.715776 0.450294 0.613681 0.113886
O23   O     O_R   0.657286 0.450463 0.475196 -0.407199
O24   O     O_R   0.686586 0.431104 0.678934 -0.356842
O25   O     O_3   0.645285 0.001787 0.881925 -0.533330
C89   C     C_3   0.742807 0.015403 0.977305 0.084750
H35   H     H_    0.779867 0.978477 0.068354 0.147373
H36   H     H_    0.757273 0.070359 0.015125 0.156709
C90   C     C_3   0.784545 0.004751 0.908090 -0.795240
H37   H     H_    0.733038 0.010004 0.791572 0.255525
H38   H     H_    0.840924 0.043615 0.950558 0.221450
H39   H     H_    0.815550 0.952396 0.934036 0.203352
O26   O     O_3   0.145286 0.501786 0.881921 -0.533327
C91   C     C_3   0.242809 0.515395 0.977303 0.084709
H40   H     H_    0.279866 0.478459 0.068336 0.147372
H41   H     H_    0.257284 0.570346 0.015147 0.156705
C92   C     C_3   0.284544 0.504754 0.908078 -0.795163
H42   H     H_    0.233031 0.510002 0.791560 0.255518
H43   H     H_    0.340911 0.543627 0.950532 0.221462
H44   H     H_    0.315563 0.452404 0.934025 0.203388
O27   O     O_3   0.419543 0.747496 0.087245 -0.583632
C93   C     C_3   0.474836 0.795791 0.084607 0.097440
H45   H     H_    0.434103 0.840561 0.012831 0.132043
H46   H     H_    0.510209 0.769253 0.053306 0.220539
C94   C     C_3   0.551163 0.823434 0.234543 -0.835645
H47   H     H_    0.593688 0.779772 0.307794 0.258391
H48   H     H_    0.596125 0.860645 0.234829 0.195771
H49   H     H_    0.521626 0.850625 0.274280 0.278779
O28   O     O_3   0.436063 0.250052 0.092783 -0.564162
C95   C     C_3   0.493628 0.301814 0.197365 0.081425
H50   H     H_    0.455320 0.338175 0.211706 0.143375
H51   H     H_    0.528229 0.332681 0.167518 0.172985
C96   C     C_3   0.567273 0.266801 0.340117 -0.761996
H52   H     H_    0.605110 0.227715 0.330711 0.235390
H53   H     H_    0.617420 0.306437 0.420557 0.235802
H54   H     H_    0.534530 0.240103 0.377068 0.241919
O29   O     O_3   0.919536 0.247497 0.087245 -0.583644
C97   C     C_3   0.974835 0.295788 0.084613 0.097466
H55   H     H_    0.934106 0.340560 0.012839 0.132052
H56   H     H_    0.010207 0.269247 0.053313 0.220537
C98   C     C_3   0.051163 0.323429 0.234551 -0.835694
H57   H     H_    0.093686 0.279766 0.307800 0.258377
H58   H     H_    0.096126 0.360639 0.234840 0.195774
H59   H     H_    0.021626 0.350620 0.274289 0.278787
O30   O     O_3   0.936048 0.750032 0.092763 -0.564158
C99   C     C_3   0.993631 0.801794 0.197335 0.081431
H60   H     H_    0.955338 0.838174 0.211675 0.143376
H61   H     H_    0.028238 0.832642 0.167477 0.172949
C100  C     C_3   0.067270 0.766782 0.340089 -0.761961
H62   H     H_    0.105049 0.727645 0.330656 0.235436
H63   H     H_    0.117467 0.806409 0.420498 0.235749
H64   H     H_    0.034529 0.740141 0.377097 0.241903
O31   O     O_3   0.382810 0.732613 0.822446 -0.594616
C101  C     C_3   0.343315 0.767120 0.693119 0.024691
H65   H     H_    0.288153 0.804278 0.660872 0.163890
H66   H     H_    0.314354 0.728490 0.606488 0.163254
C102  C     C_3   0.418164 0.808701 0.711794 -0.793169
H67   H     H_    0.473036 0.773264 0.739027 0.262982
H68   H     H_    0.388837 0.836618 0.612230 0.224102
H69   H     H_    0.447577 0.847278 0.798333 0.224626
O32   O     O_3   0.409127 0.299158 0.862402 -0.557465
C103  C     C_3   0.420863 0.363132 0.817631 0.014802
H70   H     H_    0.409048 0.409130 0.858054 0.138143
H71   H     H_    0.372916 0.364884 0.699522 0.155892
C104  C     C_3   0.518925 0.369704 0.873443 -0.724158
H72   H     H_    0.531709 0.328296 0.826836 0.256870
H73   H     H_    0.528481 0.420982 0.842515 0.218618
H74   H     H_    0.569243 0.366111 0.991166 0.250799
O33   O     O_3   0.882806 0.232621 0.822446 -0.594632
C105  C     C_3   0.843307 0.267116 0.693106 0.024704
H75   H     H_    0.788140 0.304272 0.660846 0.163890
H76   H     H_    0.814353 0.228478 0.606490 0.163251
C106  C     C_3   0.918151 0.308697 0.711766 -0.793155
H77   H     H_    0.973030 0.273263 0.739020 0.262972
H78   H     H_    0.888820 0.336601 0.612187 0.224103
H79   H     H_    0.947556 0.347284 0.798285 0.224630
O34   O     O_3   0.909122 0.799196 0.862414 -0.557459
C107  C     C_3   0.921026 0.863280 0.818162 0.014787
H80   H     H_    0.909299 0.909179 0.858904 0.138048
H81   H     H_    0.873110 0.865255 0.700073 0.155920
C108  C     C_3   0.019117 0.869818 0.874084 -0.724169
H82   H     H_    0.031866 0.828475 0.827321 0.256976
H83   H     H_    0.028783 0.921144 0.843450 0.218630
H84   H     H_    0.069384 0.866086 0.991784 0.250687

loop_
_geom_bond_atom_site_label_1
_geom_bond_atom_site_label_2
_geom_bond_distance
_ccdc_geom_bond_type
C7    C16   1.455464 S    
C3    C64   1.493261 S    
C100  H62   1.109589 S    
C8    C15   1.466486 S    
C35   C51   1.415519 A    
C98   H58   1.108732 S    
C23   C27   1.419797 A    
C67   H31   1.081264 S    
H26   C88   1.081969 S    
C27   O29   1.396308 S    
O33   C105  1.416678 S    
O10   C6    1.312091 A    
C103  C104  1.518532 S    
N5    O17   1.299136 A    
Cu4   N4    2.051163 S    
C92   H42   1.100724 S    
C105  H75   1.117156 S    
H2    C58   1.083190 S    
C20   C64   1.398299 A    
H25   C87   1.081969 S    
Cu3   O14   1.957399 S    
H3    C59   1.082318 S    
C86   N6    1.434803 S    
O7    C3    1.301262 A    
C92   H43   1.110923 S    
C106  H77   1.110234 S    
C36   C64   1.442396 A    
C11   H11   1.081490 S    
Cu1   O10   1.948117 S    
C32   C36   1.424145 A    
C23   O33   1.383087 S    
N8    O23   1.301695 A    
C90   H38   1.110919 S    
C75   C83   1.471971 A    
C76   C84   1.471983 A    
C17   H17   1.082438 S    
C10   C42   1.396799 A    
C71   C73   1.412935 A    
C9    C41   1.400900 A    
C74   C78   1.443340 A    
C19   H19   1.082441 S    
C95   H50   1.116588 S    
C28   C30   1.427218 A    
C75   N3    1.413921 A    
O2    Cu1   1.957727 S    
C96   H54   1.110577 S    
O14   C6    1.314422 A    
C6    C13   1.466496 S    
C52   H24   1.055479 S    
O6    Cu3   1.948481 S    
Cu3   N3    2.051163 S    
C33   C49   1.415516 A    
N8    O24   1.301728 A    
C91   C92   1.528276 S    
C12   C58   1.380713 A    
C31   C37   1.427082 A    
C68   C70   1.390990 A    
C101  H65   1.117157 S    
Cu2   N2    2.063460 S    
C68   H32   1.081264 S    
C65   C79   1.403063 A    
C16   C60   1.397476 A    
C108  H82   1.108275 S    
H8    C48   1.084701 S    
C4    C63   1.474844 S    
C66   C80   1.403064 A    
C32   C38   1.431184 A    
O4    C4    1.325211 A    
O11   C7    1.309966 A    
C101  C102  1.508800 S    
C28   O30   1.384336 S    
C53   H13   1.074865 S    
C48   C52   1.374954 A    
C34   C62   1.442417 A    
C98   H59   1.103409 S    
H4    C60   1.083186 S    
C91   H41   1.113318 S    
O30   C99   1.414604 S    
O8    Cu4   1.948481 S    
C25   O27   1.396306 S    
C94   H48   1.108733 S    
C35   C63   1.418886 A    
C108  H83   1.110481 S    
C10   C60   1.380713 A    
N1    C87   1.346546 A    
C15   C59   1.400596 A    
N2    C88   1.346547 A    
C107  H81   1.111712 S    
C40   C56   1.398417 A    
C20   C22   1.402802 A    
C25   C31   1.430040 A    
C31   C35   1.419951 A    
C67   C69   1.390990 A    
C26   C32   1.427253 A    
C22   O32   1.393658 S    
C92   H44   1.108760 S    
C49   H21   1.078998 S    
C27   C29   1.430046 A    
C83   O25   1.403541 S    
C30   C34   1.424155 A    
O31   C101  1.416674 S    
C36   C52   1.423035 A    
C97   C98   1.521306 S    
Cu2   O12   1.948117 S    
C100  H64   1.110612 S    
C90   H39   1.108751 S    
O1    C1    1.336928 A    
C103  H70   1.116618 S    
C40   C42   1.415473 A    
O26   C91   1.430049 S    
C39   C41   1.417559 A    
C21   C25   1.419790 A    
C20   H20   1.081489 S    
C99   H60   1.116594 S    
C82   C84   1.409276 A    
O12   C8    1.312090 A    
C2    C61   1.474837 S    
C11   C57   1.390931 A    
C17   C23   1.394501 A    
C72   H34   1.073479 S    
C107  C108  1.518525 S    
C18   C24   1.402725 A    
O29   C97   1.413440 S    
C24   O34   1.393586 S    
C26   O28   1.384336 S    
C19   C21   1.394498 A    
C97   H56   1.109202 S    
C78   C80   1.400070 A    
O28   C95   1.414607 S    
C89   C90   1.528264 S    
C102  H67   1.110232 S    
O5    C1    1.301260 A    
O27   C93   1.413439 S    
H1    C57   1.082314 S    
C104  H73   1.110500 S    
C100  H63   1.109758 S    
C46   C50   1.374954 A    
C11   C43   1.400903 A    
O25   C89   1.430047 S    
C45   C49   1.383215 A    
O8    C4    1.307339 A    
O5    Cu3   1.973100 S    
C102  H69   1.109073 S    
C16   C56   1.401841 A    
H28   C82   1.078095 S    
C30   C40   1.431172 A    
C68   N4    1.353436 A    
C77   C79   1.400070 A    
N7    O22   1.301728 A    
C56   H16   1.072422 S    
O3    Cu2   1.975541 S    
C69   N7    1.441050 S    
C38   C54   1.398426 A    
C39   C55   1.397712 A    
C80   C82   1.361071 A    
O7    Cu4   1.973100 S    
C102  H68   1.107389 S    
C89   H36   1.113318 S    
C18   H18   1.081504 S    
Cu4   O15   1.975204 S    
O15   C7    1.310985 A    
Cu1   Cu3   2.737938 S    
C73   C77   1.443341 A    
C38   C44   1.415480 A    
C67   N3    1.353436 A    
C108  H84   1.108852 S    
Cu2   Cu4   2.737938 S    
O1    Cu1   1.975541 S    
C70   C72   1.397446 A    
O2    C2    1.325208 A    
C105  C106  1.508802 S    
C66   H30   1.084415 S    
C9    C59   1.390924 A    
C69   C71   1.397446 A    
C37   C53   1.397714 A    
C15   C55   1.400746 A    
O16   C8    1.314417 A    
C72   C74   1.412935 A    
C22   C26   1.403540 A    
C104  H72   1.108273 S    
O13   C5    1.310994 A    
C91   H40   1.113568 S    
C74   C76   1.432988 A    
C13   C57   1.400601 A    
C9    H9    1.081484 S    
C70   N8    1.441049 S    
Cu2   O11   1.972727 S    
C85   N5    1.434803 S    
N1    C85   1.380901 A    
C44   C48   1.372357 A    
C103  H71   1.111732 S    
C79   C81   1.361069 A    
C105  H76   1.111750 S    
C12   C44   1.396805 A    
C94   H49   1.103409 S    
Cu1   N1    2.063460 S    
C14   C58   1.397476 A    
C84   O26   1.403543 S    
C94   H47   1.110480 S    
H6    C46   1.084696 S    
C18   C62   1.398297 A    
C95   H51   1.112108 S    
C95   C96   1.524156 S    
Cu1   O9    1.972727 S    
C13   C53   1.400750 A    
C65   C87   1.372664 A    
O9    C5    1.309964 A    
C89   H35   1.113569 S    
C93   C94   1.521306 S    
C66   C88   1.372662 A    
C96   H52   1.109556 S    
C106  H78   1.107394 S    
C97   H55   1.113944 S    
C104  H74   1.108889 S    
C47   C51   1.383224 A    
C29   C39   1.427092 A    
H5    C45   1.084531 S    
C99   C100  1.524146 S    
C1    C62   1.493243 S    
C33   C61   1.418883 A    
C107  H80   1.116603 S    
C21   O31   1.383082 S    
C51   H23   1.078996 S    
C37   C43   1.417549 A    
N6    O20   1.301402 A    
C50   H22   1.055473 S    
C29   C33   1.419951 A    
O4    Cu2   1.957727 S    
N5    O18   1.301403 A    
C54   H14   1.072422 S    
Cu4   O16   1.957399 S    
C96   H53   1.109758 S    
C90   H37   1.100726 S    
O3    C3    1.336934 A    
O6    C2    1.307336 A    
C65   H29   1.084415 S    
C93   H45   1.113945 S    
C98   H57   1.110481 S    
C55   H15   1.074861 S    
C24   C28   1.403501 A    
Cu3   O13   1.975204 S    
C106  H79   1.109070 S    
C77   C85   1.418010 A    
C12   H12   1.079259 S    
C101  H66   1.111751 S    
O32   C103  1.420249 S    
C42   C46   1.372354 A    
C19   C63   1.389060 A    
O34   C107  1.420209 S    
C73   C75   1.432989 A    
C81   C83   1.409274 A    
C41   C45   1.386964 A    
N6    O19   1.299136 A    
C10   H10   1.079257 S    
H27   C81   1.078096 S    
C17   C61   1.389055 A    
N7    O21   1.301694 A    
N2    C86   1.380899 A    
C43   C47   1.386975 A    
C5    C14   1.455478 S    
C99   H61   1.112112 S    
C71   H33   1.073476 S    
C34   C50   1.423029 A    
H7    C47   1.084530 S    
C93   H46   1.109201 S    
C14   C54   1.401858 A    
C76   N4    1.413926 A    
C78   C86   1.418010 A    
