data_mof_unit_32920.cif
_audit_creation_date              2012-10-26T20:52:48-0400
_audit_creation_method            fapswitch 2.2
_symmetry_space_group_name_H-M    P1
_symmetry_Int_Tables_number       1
_space_group_crystal_system       triclinic
_cell_length_a                    13.386291
_cell_length_b                    14.762302
_cell_length_c                    15.995969
_cell_angle_alpha                 89.85626
_cell_angle_beta                  90.019386
_cell_angle_gamma                 71.646993
_cell_volume                      3000.205654

loop_
_atom_site_label
_atom_site_type_symbol
_atom_type_description
_atom_site_fract_x
_atom_site_fract_y
_atom_site_fract_z
_atom_type_partial_charge
C1    C     C_R   0.499784 0.500017 0.659107 0.537446
C2    C     C_R   0.819016 0.416289 0.508555 -0.018565
C3    C     C_R   0.482179 0.422794 0.043780 0.003463
C4    C     C_R   0.701721 0.448523 0.504333 0.544766
C5    C     C_R   0.501597 0.499249 0.087052 0.042561
C6    C     C_R   0.520925 0.575227 0.042860 0.007603
C7    C     C_R   0.520033 0.574472 0.955426 -0.109357
C8    C     C_R   0.500814 0.499629 0.912481 0.007721
C9    C     C_R   0.482151 0.424394 0.955815 -0.096627
C10   C     C_1   0.500915 0.499956 0.176987 -0.083140
C11   C     C_1   0.500423 0.499859 0.823074 -0.072713
C12   C     C_R   0.968194 0.475880 0.491497 0.012705
C13   C     C_1   0.500088 0.499899 0.748096 -0.045041
C14   C     C_1   0.500456 0.500165 0.251955 -0.049025
C15   C     C_R   0.513454 0.044957 0.425719 -0.110798
C16   C     C_R   0.500090 0.500063 0.340911 0.558019
C17   C     C_R   0.497804 0.098174 0.499756 -0.029160
C18   C     C_R   0.481252 0.054181 0.573904 -0.112330
C19   C     C_R   0.482357 0.957776 0.575606 -0.006201
C20   C     C_R   0.498225 0.903591 0.500273 0.017895
C21   C     C_R   0.513351 0.949062 0.424862 0.001932
C22   C     C_1   0.499041 0.197672 0.499810 0.106883
C23   C     C_R   0.871032 0.482955 0.530082 0.002756
C24   C     C_1   0.499142 0.802882 0.500161 0.090836
C25   C     C_R   0.298464 0.551752 0.504392 0.543785
C26   C     C_R   0.022802 0.690572 0.583385 0.013580
C27   C     C_R   0.182975 0.585130 0.518572 -0.019322
C28   C     C_R   0.879341 0.327111 0.475133 -0.018124
C29   C     C_R   0.974183 0.321060 0.432721 0.035060
C30   C     C_R   0.008970 0.402280 0.431319 0.002900
C31   C     C_3   0.173888 0.757058 0.559616 -0.232951
C32   C     C_3   0.244347 0.749769 0.637442 -0.283290
C33   C     C_3   0.234078 0.848073 0.673181 -0.480067
C34   C     C_R   0.021358 0.541611 0.515693 -0.007355
C35   C     C_3   0.461985 0.341786 0.093377 -0.251287
C36   C     C_3   0.442401 0.261429 0.041608 -0.309685
C37   C     C_3   0.423782 0.184831 0.098167 -0.456321
C38   C     C_3   0.542601 0.657547 0.087447 -0.253309
C39   C     C_3   0.656785 0.628960 0.118463 -0.289435
C40   C     C_3   0.677536 0.709960 0.167153 -0.454621
C41   C     C_3   0.529498 0.898698 0.341671 -0.414226
C42   C     C_3   0.464677 0.916034 0.658947 -0.265177
C43   C     C_3   0.552557 0.912939 0.721603 -0.297385
C44   C     C_3   0.549080 0.850472 0.797071 -0.461860
C45   C     C_R   0.967061 0.626348 0.559711 0.048851
C46   C     C_3   0.781453 0.735308 0.600250 -0.403753
C47   C     C_3   0.981352 0.764180 0.651859 -0.408518
C48   C     C_3   0.843468 0.240165 0.484884 -0.386099
C49   C     C_3   0.075894 0.415209 0.358470 -0.413028
C50   C     C_3   0.038792 0.229473 0.389241 -0.246009
C51   C     C_3   0.134490 0.176260 0.442946 -0.294672
C52   C     C_3   0.201990 0.085108 0.400430 -0.455462
C53   C     C_3   0.750557 0.553821 0.654835 -0.363671
C54   C     C_R   0.861695 0.638931 0.584259 0.013402
C55   C     C_R   0.826154 0.559343 0.585905 0.025782
C56   C     C_R   0.129939 0.519209 0.504139 -0.161595
C57   C     C_R   0.126813 0.675528 0.553422 0.002199
Cu1   Cu    Cu3+1 0.499970 0.410790 0.500000 0.956945
Cu2   Cu    Cu3+1 0.500030 0.589210 0.500000 0.927402
H1    H     H_    0.534888 0.632058 0.920603 0.101686
H2    H     H_    0.327925 0.715553 0.620855 0.213087
H3    H     H_    0.217110 0.762769 0.501718 0.156979
H4    H     H_    0.108784 0.825991 0.560018 0.135150
H5    H     H_    0.493632 0.152503 0.138451 0.148871
H6    H     H_    0.353700 0.216066 0.138300 0.149529
H7    H     H_    0.409879 0.127771 0.059245 0.138083
H8    H     H_    0.371809 0.291086 0.001398 0.158369
H9    H     H_    0.511900 0.227471 0.001535 0.157400
H10   H     H_    0.531168 0.309652 0.134523 0.149917
H11   H     H_    0.392315 0.372997 0.134076 0.149231
H12   H     H_    0.525649 0.078346 0.367824 0.107993
H13   H     H_    0.662153 0.774577 0.127195 0.144828
H14   H     H_    0.626295 0.727337 0.223259 0.158006
H15   H     H_    0.760965 0.687769 0.187842 0.143795
H16   H     H_    0.674052 0.565283 0.159806 0.173241
H17   H     H_    0.711081 0.610634 0.064065 0.157612
H18   H     H_    0.528409 0.719810 0.044571 0.126339
H19   H     H_    0.487042 0.681550 0.140547 0.150449
H20   H     H_    0.526896 0.824546 0.345635 0.143834
H21   H     H_    0.466987 0.938534 0.297479 0.120477
H22   H     H_    0.607253 0.896241 0.315756 0.125315
H23   H     H_    0.467683 0.095252 0.631202 0.107353
H24   H     H_    0.471579 0.877544 0.828816 0.148442
H25   H     H_    0.562503 0.775499 0.777173 0.149986
H26   H     H_    0.611754 0.851696 0.842128 0.136890
H27   H     H_    0.630361 0.884509 0.690921 0.164006
H28   H     H_    0.544102 0.986246 0.743792 0.153108
H29   H     H_    0.388212 0.960843 0.685062 0.131531
H30   H     H_    0.459446 0.842980 0.651610 0.155445
H31   H     H_    0.704256 0.737569 0.573444 0.150647
H32   H     H_    0.770946 0.748435 0.668353 0.114248
H33   H     H_    0.802196 0.793249 0.567797 0.133899
H34   H     H_    0.174922 0.448118 0.484493 0.144610
H35   H     H_    0.937337 0.737774 0.699592 0.132311
H36   H     H_    0.045353 0.777063 0.688576 0.134702
H37   H     H_    0.933253 0.833576 0.625121 0.117370
H38   H     H_    0.911064 0.176272 0.500386 0.110779
H39   H     H_    0.788916 0.247591 0.538428 0.155958
H40   H     H_    0.805211 0.227460 0.426438 0.138554
H41   H     H_    0.079245 0.489141 0.353750 0.137277
H42   H     H_    0.156863 0.364275 0.363025 0.125593
H43   H     H_    0.039787 0.402976 0.298805 0.123109
H44   H     H_    0.155043 0.036289 0.388961 0.145657
H45   H     H_    0.467694 0.367804 0.919911 0.107391
H46   H     H_    0.232966 0.102346 0.340083 0.149550
H47   H     H_    0.269577 0.048126 0.441426 0.159691
H48   H     H_    0.183977 0.222874 0.454745 0.168255
H49   H     H_    0.107365 0.157284 0.504283 0.159185
H50   H     H_    0.991346 0.181601 0.376250 0.135823
H51   H     H_    0.065316 0.244979 0.326701 0.135770
H52   H     H_    0.782298 0.567937 0.715867 0.108797
H53   H     H_    0.672782 0.608400 0.645479 0.172334
H54   H     H_    0.740892 0.482135 0.660050 0.117775
H55   H     H_    0.253783 0.893483 0.624515 0.150666
H56   H     H_    0.152621 0.883559 0.695516 0.147085
H57   H     H_    0.288738 0.840409 0.726884 0.139144
H58   H     H_    0.224689 0.705440 0.687133 0.157285
N1    N     N_1   0.499970 0.723300 0.500020 -0.217181
N2    N     N_1   0.500030 0.276700 0.499980 -0.198273
O1    O     O_R   0.499950 0.424690 0.619690 -0.483992
O2    O     O_R   0.500000 0.575360 0.619690 -0.524442
O3    O     O_R   0.650940 0.387890 0.499980 -0.497756
O4    O     O_R   0.650990 0.538570 0.499980 -0.481533
O5    O     O_R   0.500000 0.424640 0.380310 -0.487363
O6    O     O_R   0.500050 0.575310 0.380310 -0.483029
O7    O     O_R   0.349010 0.461430 0.500020 -0.493798
O8    O     O_R   0.349060 0.612110 0.500020 -0.507369

loop_
_geom_bond_atom_site_label_1
_geom_bond_atom_site_label_2
_ccdc_geom_bond_type
Cu2   O2    S    
C52   H44   S    
C34   C56   A    
C35   C36   S    
C32   H58   S    
C43   C44   S    
C44   H24   S    
C41   H21   S    
C36   H8    S    
C7    C8    A    
C48   H38   S    
C12   C23   A    
C33   H55   S    
C36   C37   S    
C32   H2    S    
C9    H45   S    
C49   H42   S    
C38   C39   S    
C46   H33   S    
Cu2   O8    S    
C50   H51   S    
C40   H14   S    
C18   C19   A    
C26   C45   A    
C28   C48   S    
C20   C24   S    
C35   H11   S    
C8    C9    A    
C37   H6    S    
C47   H37   S    
C6    C38   S    
C39   H16   S    
C16   O6    A    
C19   C42   S    
C53   H52   S    
C52   H47   S    
C31   H3    S    
C22   N2    T    
C53   H54   S    
C50   C51   S    
C29   C50   S    
C53   C55   S    
Cu2   O4    S    
C56   H34   S    
Cu1   O3    S    
C33   H56   S    
C51   C52   S    
C31   H4    S    
C27   C57   A    
C49   H43   S    
C27   C56   A    
C51   H49   S    
C46   H32   S    
C38   H19   S    
C44   H25   S    
Cu1   Cu2   S    
C50   H50   S    
C4    O4    A    
C1    O1    A    
C2    C4    S    
C25   O7    A    
C41   H20   S    
C29   C30   A    
C3    C9    A    
C31   C32   S    
C3    C35   S    
C41   H22   S    
C37   H7    S    
C46   C54   S    
Cu1   O1    S    
C17   C18   A    
C4    O3    A    
C34   C45   A    
C39   H17   S    
C26   C47   S    
C21   C41   S    
C53   H53   S    
C30   C49   S    
C45   C54   A    
Cu1   O7    S    
Cu2   N1    S    
C10   C14   T    
C14   C16   S    
C42   H29   S    
C42   C43   S    
C12   C34   A    
C44   H26   S    
C7    H1    S    
C39   C40   S    
C37   H5    S    
C48   H39   S    
C15   C17   A    
C48   H40   S    
C54   C55   A    
C28   C29   A    
C33   H57   S    
C40   H13   S    
C12   C30   A    
C43   H27   S    
C24   N1    T    
C3    C5    A    
C52   H46   S    
C36   H9    S    
C23   C55   A    
C6    C7    A    
C46   H31   S    
C38   H18   S    
C25   C27   S    
C15   H12   S    
Cu1   O5    S    
C17   C22   S    
C42   H30   S    
C43   H28   S    
C32   C33   S    
C31   C57   S    
C19   C20   A    
C16   O5    A    
C5    C10   S    
Cu2   O6    S    
C49   H41   S    
C11   C13   T    
C5    C6    A    
C8    C11   S    
Cu1   N2    S    
C18   H23   S    
C47   H35   S    
C40   H15   S    
C25   O8    A    
C26   C57   A    
C1    O2    A    
C15   C21   A    
C1    C13   S    
C20   C21   A    
C35   H10   S    
C51   H48   S    
C2    C23   A    
C47   H36   S    
C2    C28   A    
