data_mof_unit_68141.cif
_audit_creation_date              2013-03-05T15:59:43-0500
_audit_creation_method            fapswitch 2.2
_symmetry_space_group_name_H-M    P1
_symmetry_Int_Tables_number       1
_space_group_crystal_system       triclinic
_cell_length_a                    7.099467
_cell_length_b                    14.735926
_cell_length_c                    15.71423
_cell_angle_alpha                 89.697866
_cell_angle_beta                  90.170658
_cell_angle_gamma                 87.598741
_cell_volume                      1642.50424162

loop_
_atom_site_label
_atom_site_type_symbol
_atom_site_description
_atom_site_fract_x
_atom_site_fract_y
_atom_site_fract_z
_atom_type_partial_charge
O1    O     O_R   0.638960 0.835150 0.161940 -0.589741
O2    O     O_R   0.361040 0.164850 0.838060 -0.589741
O3    O     O_R   0.309170 0.846340 0.337470 -0.597274
O4    O     O_R   0.690830 0.153660 0.662530 -0.597275
O5    O     O_R   0.138810 0.664830 0.338070 -0.609385
O6    O     O_R   0.861190 0.335170 0.661930 -0.609385
C1    C     C_R   0.475718 0.867017 0.367156 1.088229
C2    C     C_R   0.524282 0.132983 0.632844 1.088229
O7    O     O_R   0.309250 0.846350 0.162570 -0.560149
O8    O     O_R   0.690750 0.153650 0.837430 -0.560148
O9    O     O_R   0.138880 0.664840 0.161920 -0.551348
O10   O     O_R   0.861120 0.335160 0.838080 -0.551348
C3    C     C_R   0.472841 0.863457 0.129946 1.155030
C4    C     C_R   0.527159 0.136543 0.870054 1.155030
O11   O     O_R   0.638880 0.835150 0.338090 -0.593386
O12   O     O_R   0.361120 0.164850 0.661910 -0.593386
O13   O     O_3   0.472380 0.690440 0.250000 -0.255850
O14   O     O_3   0.527620 0.309560 0.750000 -0.255850
V1    V     V_3+5 0.197550 0.761040 0.250010 1.292586
V2    V     V_3+5 0.802450 0.238960 0.749990 1.292586
O15   O     O_R   0.809160 0.653640 0.162540 -0.568956
O16   O     O_R   0.190840 0.346360 0.837460 -0.568956
C5    C     C_R   0.981322 0.629461 0.136410 1.033166
C6    C     C_R   0.018678 0.370539 0.863590 1.033167
O17   O     O_R   0.809090 0.653640 0.337440 -0.557673
O18   O     O_R   0.190910 0.346360 0.662560 -0.557673
C7    C     C_R   0.977672 0.634825 0.368208 1.007532
C8    C     C_R   0.022328 0.365175 0.631792 1.007531
V3    V     V_3+5 0.697540 0.738950 0.250000 1.296409
V4    V     V_3+5 0.302460 0.261050 0.750000 1.296409
O19   O     O_3   0.972580 0.809550 0.250010 -0.282067
O20   O     O_3   0.027420 0.190450 0.749990 -0.282067
C9    C     C_3   0.116844 0.567224 0.517859 0.112226
C10   C     C_3   0.883156 0.432776 0.482141 0.112226
C11   C     C_3   0.957181 0.533804 0.575183 0.048958
C12   C     C_3   0.042819 0.466196 0.424817 0.048957
C13   C     C_3   0.016361 0.433606 0.559457 -0.403086
C14   C     C_3   0.983639 0.566394 0.440543 -0.403085
C15   C     C_3   0.175758 0.466608 0.501824 0.477128
C16   C     C_3   0.824242 0.533392 0.498176 0.477127
C17   C     C_3   0.919021 0.424416 0.022728 0.249670
C18   C     C_3   0.080979 0.575584 0.977272 0.249670
C19   C     C_3   0.095284 0.460789 0.066357 -0.053416
C20   C     C_3   0.904716 0.539211 0.933643 -0.053417
C21   C     C_3   0.999163 0.558351 0.066974 -0.449618
C22   C     C_3   0.000837 0.441649 0.933026 -0.449619
C23   C     C_3   0.824858 0.520299 0.023186 0.327953
C24   C     C_3   0.175142 0.479701 0.976814 0.327953
C25   C     C_3   0.667605 0.981200 0.464027 0.058650
C26   C     C_3   0.332395 0.018800 0.535973 0.058650
C27   C     C_3   0.563724 0.075707 0.466052 0.076199
C28   C     C_3   0.436276 0.924293 0.533948 0.076200
C29   C     C_3   0.517794 0.063156 0.562204 -0.359487
C30   C     C_3   0.482205 0.936843 0.437796 -0.359487
C31   C     C_3   0.619882 0.968625 0.559202 0.348648
C32   C     C_3   0.380118 0.031375 0.440798 0.348647
C33   C     C_3   0.634996 0.932876 0.993605 -0.049906
C34   C     C_3   0.365004 0.067124 0.006395 -0.049906
C35   C     C_3   0.498800 0.968227 0.922458 0.250436
C36   C     C_3   0.501200 0.031773 0.077541 0.250437
C37   C     C_3   0.531147 0.068735 0.943434 -0.508070
C38   C     C_3   0.468853 0.931265 0.056565 -0.508069
C39   C     C_3   0.668350 0.033004 0.016119 0.379820
C40   C     C_3   0.331649 0.966996 0.983881 0.379820
C41   C     C_3   0.910782 0.570401 0.662709 -0.799986
H1    H     H_    0.860985 0.642679 0.658456 0.293849
H2    H     H_    0.798991 0.529444 0.690372 0.256788
H3    H     H_    0.039244 0.563757 0.703048 0.241831
C42   C     C_3   0.089218 0.429599 0.337291 -0.799986
H4    H     H_    0.139014 0.357321 0.341544 0.293848
H5    H     H_    0.960755 0.436243 0.296952 0.241831
H6    H     H_    0.201008 0.470556 0.309628 0.256788
N1    N     N_R   0.489853 0.932876 0.835685 0.282792
O21   O     O_R   0.563099 0.852938 0.817759 -0.311689
O22   O     O_R   0.380428 0.974097 0.779976 -0.390803
N2    N     N_R   0.510147 0.067123 0.164315 0.282792
O23   O     O_R   0.436897 0.147061 0.182242 -0.311689
O24   O     O_R   0.619574 0.025903 0.220023 -0.390802
C43   C     C_3   0.769507 0.850664 0.981580 -0.518067
H7    H     H_    0.834068 0.853409 0.917950 0.292697
H8    H     H_    0.879141 0.847508 0.031976 0.244860
H9    H     H_    0.689435 0.787689 0.984769 0.212697
C44   C     C_3   0.230493 0.149336 0.018420 -0.518068
H10   H     H_    0.165932 0.146591 0.082050 0.292698
H11   H     H_    0.310565 0.212311 0.015230 0.212696
H12   H     H_    0.120859 0.152492 0.968024 0.244861
N3    N     N_R   0.839293 0.066076 0.053568 0.254927
O25   O     O_R   0.829191 0.146142 0.087479 -0.306666
O26   O     O_R   0.959037 0.006587 0.086599 -0.377503
N4    N     N_R   0.160707 0.933924 0.946432 0.254927
O27   O     O_R   0.040963 0.993413 0.913401 -0.377504
O28   O     O_R   0.170809 0.853858 0.912521 -0.306666
C45   C     C_3   0.199756 0.655295 0.542834 -0.731296
H13   H     H_    0.277488 0.648948 0.603885 0.296068
H14   H     H_    0.284668 0.680558 0.489943 0.271174
H15   H     H_    0.080148 0.704974 0.552340 0.226235
C46   C     C_3   0.800244 0.344705 0.457166 -0.731296
H16   H     H_    0.722512 0.351052 0.396115 0.296068
H17   H     H_    0.919852 0.295026 0.447660 0.226235
H18   H     H_    0.715331 0.319442 0.510057 0.271174
N5    N     N_R   0.359303 0.423100 0.490263 0.261865
O29   O     O_R   0.390025 0.342133 0.521549 -0.446618
O30   O     O_R   0.456653 0.448467 0.425156 -0.411318
N6    N     N_R   0.640697 0.576900 0.509737 0.261865
O31   O     O_R   0.543347 0.551533 0.574844 -0.411319
O32   O     O_R   0.609975 0.657866 0.478450 -0.446617
C47   C     C_3   0.200435 0.408869 0.136574 -0.639888
H19   H     H_    0.295777 0.354986 0.109881 0.282190
H20   H     H_    0.282442 0.456358 0.174195 0.265866
H21   H     H_    0.098904 0.374936 0.177663 0.241719
C48   C     C_3   0.799565 0.591131 0.863426 -0.639889
H22   H     H_    0.704222 0.645014 0.890119 0.282190
H23   H     H_    0.901095 0.625065 0.822337 0.241719
H24   H     H_    0.717558 0.543641 0.825805 0.265866
N7    N     N_R   0.822655 0.343839 0.049325 0.279283
O33   O     O_R   0.766876 0.335297 0.127604 -0.302739
O34   O     O_R   0.773955 0.285025 0.993027 -0.349433
N8    N     N_R   0.177345 0.656161 0.950675 0.279283
O35   O     O_R   0.233124 0.664702 0.872395 -0.302738
O36   O     O_R   0.226045 0.714975 0.006973 -0.349433
N9    N     N_R   0.634891 0.541453 0.053110 0.269200
O37   O     O_R   0.550050 0.616642 0.028129 -0.372568
O38   O     O_R   0.582425 0.505249 0.124220 -0.364726
N10   N     N_R   0.365109 0.458547 0.946890 0.269200
O39   O     O_R   0.417574 0.494750 0.875780 -0.364726
O40   O     O_R   0.449950 0.383358 0.971872 -0.372568
C49   C     C_3   0.637889 0.156507 0.420375 -0.745763
H25   H     H_    0.779351 0.167348 0.446551 0.226467
H26   H     H_    0.650423 0.142345 0.351359 0.310899
H27   H     H_    0.539598 0.215769 0.429597 0.282995
C50   C     C_3   0.362111 0.843493 0.579625 -0.745763
H28   H     H_    0.349577 0.857655 0.648641 0.310899
H29   H     H_    0.220649 0.832652 0.553449 0.226467
H30   H     H_    0.460402 0.784231 0.570403 0.282995
C51   C     C_3   0.856766 0.965503 0.420134 -0.700689
H31   H     H_    0.947990 0.020986 0.436886 0.236615
H32   H     H_    0.922871 0.898809 0.439040 0.227015
H33   H     H_    0.838694 0.968731 0.350140 0.298418
C52   C     C_3   0.143234 0.034497 0.579866 -0.700689
H34   H     H_    0.052010 0.979014 0.563114 0.236615
H35   H     H_    0.161306 0.031269 0.649860 0.298419
H36   H     H_    0.077129 0.101191 0.560960 0.227014
N11   N     N_R   0.747177 0.927739 0.623000 0.243803
O41   O     O_R   0.819098 0.846094 0.611656 -0.405717
O42   O     O_R   0.783876 0.970587 0.692807 -0.338010
N12   N     N_R   0.252823 0.072261 0.377000 0.243803
O43   O     O_R   0.216123 0.029413 0.307193 -0.338010
O44   O     O_R   0.180902 0.153906 0.388344 -0.405717

loop_
_geom_bond_atom_site_label_1
_geom_bond_atom_site_label_2
_geom_bond_distance
_ccdc_geom_bond_type
C51   H33   1.107525 S    
V4    O20   2.250635 S    
N3    O25   1.296504 A    
N5    O29   1.297764 A    
C5    C21   1.518692 S    
C10   C13   1.537816 S    
O13   V3    1.778200 S    
N1    O21   1.300158 A    
C33   C43   1.523758 S    
C48   H22   1.106679 S    
C40   N4    1.450852 S    
O4    C2    1.317928 A    
C50   H30   1.105182 S    
V1    O19   1.722286 S    
C25   C27   1.548852 S    
N6    O32   1.297765 A    
C46   H16   1.106902 S    
C51   H31   1.096730 S    
O9    V1    2.041080 S    
C35   C40   1.532521 S    
C9    C15   1.545755 S    
C36   C39   1.532520 S    
C10   C16   1.545754 S    
C11   C13   1.539540 S    
N2    O24   1.299853 A    
O3    C1    1.317927 A    
C52   H36   1.109884 S    
C23   N9    1.451650 S    
C11   C41   1.512191 S    
C7    C14   1.514853 S    
O12   V4    2.018382 S    
N11   O41   1.300500 A    
N11   O42   1.299715 A    
C10   C46   1.500947 S    
C36   C38   1.545372 S    
C27   C32   1.534407 S    
C2    O12   1.315595 A    
C42   H5    1.109770 S    
O7    C3    1.304591 A    
N8    O35   1.300478 A    
C38   C40   1.573106 S    
C9    C11   1.544994 S    
O5    C7    1.331133 A    
O7    V1    2.041826 S    
O6    C8    1.331133 A    
C3    C38   1.521243 S    
O8    V2    2.041825 S    
N7    O34   1.297954 A    
C26   C28   1.548850 S    
C17   C22   1.549928 S    
O3    V1    2.047444 S    
O14   V4    1.778202 S    
C19   C24   1.546889 S    
C35   N1    1.464411 S    
C10   C12   1.544993 S    
C28   C31   1.534407 S    
C41   H3    1.109770 S    
C34   C37   1.542649 S    
C21   C23   1.541548 S    
C25   C51   1.521154 S    
C45   H14   1.100598 S    
C34   C40   1.546797 S    
C47   H20   1.102109 S    
C18   C20   1.542151 S    
C17   N7    1.455052 S    
O1    V3    2.005970 S    
N6    O31   1.298449 A    
C46   H17   1.108649 S    
C28   C30   1.558383 S    
O11   V3    2.018382 S    
N12   O44   1.300500 A    
C29   C31   1.544108 S    
O17   V3    1.996854 S    
C13   C15   1.544306 S    
C22   C24   1.541548 S    
C35   C37   1.545372 S    
C26   C29   1.549626 S    
C31   N11   1.458565 S    
C33   C38   1.542650 S    
N2    O23   1.300152 A    
O8    C4    1.304593 A    
C43   H8    1.108176 S    
C26   C52   1.521155 S    
C18   N8    1.455052 S    
C19   C47   1.516068 S    
C1    O11   1.315595 A    
C20   C22   1.565457 S    
C41   H2    1.105687 S    
C25   C31   1.546396 S    
C4    C37   1.521243 S    
O15   V3    2.009586 S    
C36   N2    1.464410 S    
C26   C32   1.546397 S    
C27   C29   1.558383 S    
C18   C21   1.549928 S    
C42   H6    1.105687 S    
C49   H26   1.108643 S    
C16   N6    1.440373 S    
N4    O28   1.296503 A    
C44   H10   1.102437 S    
C47   H19   1.106678 S    
C15   N5    1.440373 S    
O10   V2    2.041079 S    
C37   C39   1.573105 S    
C17   C23   1.537628 S    
C48   H23   1.102762 S    
C45   H13   1.106902 S    
C18   C24   1.537628 S    
C19   C21   1.565457 S    
N9    O37   1.297159 A    
C44   H11   1.109382 S    
O18   V4    1.996856 S    
C45   H15   1.108650 S    
O15   C5    1.325711 A    
C47   H21   1.102761 S    
O16   C6    1.325710 A    
O1    C3    1.330673 A    
N1    O22   1.299859 A    
C50   H28   1.108641 S    
C46   H18   1.100600 S    
C12   C42   1.512192 S    
N10   O40   1.297159 A    
N12   O43   1.299714 A    
V2    O20   1.722286 S    
C51   H32   1.109883 S    
O16   V4    2.009587 S    
C39   N3    1.450851 S    
C28   C50   1.501962 S    
C12   C15   1.532612 S    
C17   C19   1.542151 S    
C33   C39   1.546798 S    
C50   H29   1.102282 S    
C9    C45   1.500947 S    
C2    C29   1.519463 S    
C24   N10   1.451650 S    
C43   H9    1.109383 S    
C52   H34   1.096730 S    
C20   C23   1.546889 S    
C30   C32   1.544110 S    
C49   H25   1.102283 S    
O5    V1    2.032508 S    
O17   C7    1.307820 A    
O6    V2    2.032506 S    
O10   C6    1.316094 A    
O18   C8    1.307821 A    
C9    C14   1.537815 S    
O2    V4    2.005968 S    
C27   C49   1.501961 S    
C12   C14   1.539540 S    
C11   C16   1.532613 S    
C49   H27   1.105182 S    
C6    C22   1.518691 S    
V3    O19   2.250636 S    
C34   C44   1.523759 S    
C14   C16   1.544305 S    
C52   H35   1.107523 S    
N4    O27   1.300279 A    
C8    C13   1.514853 S    
O9    C5    1.316094 A    
O13   V1    2.172377 S    
C48   H24   1.102110 S    
O14   V2    2.172377 S    
C32   N12   1.458565 S    
C42   H4    1.109677 S    
O2    C4    1.330674 A    
N8    O36   1.297954 A    
N9    O38   1.298018 A    
C33   C35   1.549665 S    
C43   H7    1.102436 S    
O4    V2    2.047446 S    
C20   C48   1.516069 S    
C44   H12   1.108176 S    
N5    O30   1.298449 A    
C41   H1    1.109676 S    
N3    O26   1.300281 A    
C1    C30   1.519463 S    
N7    O33   1.300477 A    
C34   C36   1.549665 S    
C25   C30   1.549626 S    
N10   O39   1.298018 A    
