data_mof_unit_14204.cif
_audit_creation_date              2012-12-10T18:59:18-0500
_audit_creation_method            fapswitch 2.2
_symmetry_space_group_name_H-M    P1
_symmetry_Int_Tables_number       1
_space_group_crystal_system       triclinic
_cell_length_a                    10.762647
_cell_length_b                    10.825376
_cell_length_c                    9.551719
_cell_angle_alpha                 90.121992
_cell_angle_beta                  90.370177
_cell_angle_gamma                 89.818384
_cell_volume                      1112.83662865

loop_
_atom_site_label
_atom_site_type_symbol
_atom_type_description
_atom_site_fract_x
_atom_site_fract_y
_atom_site_fract_z
_atom_type_partial_charge
C1    C     C_R   0.497256 0.262386 0.499731 0.781906
C2    C     C_R   0.066901 0.391009 0.566875 0.093146
C3    C     C_R   0.129036 0.488526 0.498721 -0.090190
C4    C     C_R   0.063187 0.580115 0.427192 -0.210879
C5    C     C_R   0.935039 0.580016 0.427869 -0.233495
C6    C     C_R   0.871204 0.488218 0.499897 -0.098068
C7    C     C_R   0.452450 0.064001 0.617765 0.003788
C8    C     C_R   0.484271 0.129451 0.497362 -0.086412
C9    C     C_R   0.497005 0.064175 0.370774 -0.210911
C10   C     C_R   0.497175 0.935482 0.370859 -0.220393
C11   C     C_R   0.484527 0.870767 0.497540 -0.069749
C12   C     C_R   0.262635 0.496951 0.499624 0.779399
C13   C     C_R   0.452658 0.936753 0.617832 0.046852
C14   C     C_3   0.499797 0.928571 0.764975 -0.525216
C15   C     C_3   0.499467 0.069461 0.765917 0.256734
C16   C     C_R   0.551410 0.595939 0.074566 0.178636
C17   C     C_R   0.436779 0.413069 0.073685 -0.055070
C18   C     C_R   0.436113 0.413542 0.924804 -0.018984
C19   C     C_R   0.554727 0.593969 0.927614 0.180940
C20   C     C_3   0.688026 0.634368 0.927635 0.269879
C21   C     C_3   0.681211 0.641482 0.086706 -0.536946
C22   C     C_R   0.497429 0.737670 0.499871 0.793016
C23   C     C_R   0.737409 0.496109 0.500206 0.784794
C24   C     C_R   0.132137 0.292123 0.630527 -0.191050
C25   C     C_R   0.068355 0.195628 0.693839 -0.166421
C26   C     C_R   0.939129 0.195014 0.693808 -0.143272
C27   C     C_R   0.872771 0.291091 0.630634 -0.137991
C28   C     C_R   0.935574 0.390600 0.567102 0.085949
Cu1   Cu    Cu3+1 0.499990 0.499980 0.640670 0.976613
Cu2   Cu    Cu3+1 0.500010 0.500020 0.359330 0.944509
H1    H     H_    0.111412 0.653610 0.373274 0.148586
H2    H     H_    0.593882 0.886627 0.771463 0.192533
H3    H     H_    0.431419 0.110814 0.839560 0.114431
H4    H     H_    0.387612 0.341244 0.128802 0.130659
H5    H     H_    0.385879 0.342538 0.868524 0.120142
H6    H     H_    0.701057 0.724516 0.874071 0.044912
H7    H     H_    0.744170 0.575401 0.140998 0.242639
H8    H     H_    0.685054 0.737693 0.127302 0.144393
H9    H     H_    0.232437 0.286949 0.629981 0.135378
H10   H     H_    0.119464 0.120455 0.742035 0.131930
H11   H     H_    0.890441 0.119378 0.742556 0.147525
H12   H     H_    0.772539 0.285803 0.630594 0.171267
H13   H     H_    0.885239 0.653396 0.374286 0.145214
H14   H     H_    0.514102 0.111710 0.273127 0.170402
H15   H     H_    0.514401 0.887471 0.273238 0.161089
H16   H     H_    0.429954 0.888047 0.836578 0.166729
N1    N     N_R   0.500790 0.500930 0.147930 -0.168805
N2    N     N_R   0.500790 0.500890 0.852020 -0.165665
O1    O     O_R   0.500000 0.319640 0.618810 -0.562965
O2    O     O_R   0.500010 0.319680 0.381230 -0.591480
O3    O     O_R   0.319640 0.499980 0.618820 -0.594709
O4    O     O_R   0.319650 0.500020 0.381230 -0.579287
O5    O     O_R   0.499990 0.680320 0.618770 -0.587609
O6    O     O_R   0.500000 0.680360 0.381190 -0.586602
O7    O     O_R   0.680350 0.499980 0.618770 -0.531457
O8    O     O_R   0.680360 0.500020 0.381180 -0.580332
O9    O     O_3   0.618949 0.120855 0.779342 -0.705066
H17   H     H_    0.673139 0.083104 0.707066 0.316947
O10   O     O_3   0.769300 0.539198 0.884135 -0.516848
C29   C     C_3   0.893175 0.583187 0.881451 0.084148
H18   H     H_    0.908441 0.670375 0.941862 0.113910
H19   H     H_    0.919651 0.600858 0.771188 0.160894
C30   C     C_3   0.979729 0.485706 0.942880 -0.766724
H20   H     H_    0.966796 0.396338 0.888105 0.273305
H21   H     H_    0.077839 0.515277 0.931259 0.198260
H22   H     H_    0.959643 0.472964 0.055842 0.241140

loop_
_geom_bond_atom_site_label_1
_geom_bond_atom_site_label_2
_ccdc_geom_bond_type
C30   H21   S    
C23   O7    A    
Cu1   Cu2   S    
C1    C8    S    
C11   C13   A    
C1    O2    A    
C11   C22   S    
C19   C20   S    
C7    C13   A    
Cu2   O8    S    
Cu2   O6    S    
C10   H15   S    
C7    C15   S    
C17   C18   A    
O9    H17   S    
C30   H22   S    
O10   C29   S    
C22   O6    A    
Cu1   O1    S    
C13   C14   S    
C20   C21   S    
C20   O10   S    
C2    C24   A    
C4    C5    A    
C15   O9    S    
C27   H12   S    
C26   C27   A    
C16   C21   S    
Cu1   O5    S    
C16   C19   A    
C6    C23   S    
C16   N1    A    
C30   H20   S    
C12   O4    A    
Cu1   O3    S    
C2    C3    A    
C22   O5    A    
C10   C11   A    
C29   C30   S    
C25   H10   S    
C5    H13   S    
C5    C6    A    
Cu2   O2    S    
C4    H1    S    
C7    C8    A    
C17   H4    S    
Cu1   N2    S    
C3    C4    A    
C20   H6    S    
Cu2   N1    S    
C23   O8    A    
C12   O3    A    
C21   H7    S    
C24   C25   A    
C18   H5    S    
C29   H19   S    
C9    C10   A    
C27   C28   A    
Cu2   O4    S    
C14   C15   S    
C8    C9    A    
C9    H14   S    
C2    C28   A    
C3    C12   S    
Cu1   O7    S    
C25   C26   A    
C19   N2    A    
C1    O1    A    
C24   H9    S    
C15   H3    S    
C6    C28   A    
C21   H8    S    
C17   N1    A    
C26   H11   S    
C14   H2    S    
C29   H18   S    
C14   H16   S    
C18   N2    A    
