data_mof_unit_32596.cif
_audit_creation_date              2012-12-11T15:26:04-0500
_audit_creation_method            fapswitch 2.2
_symmetry_space_group_name_H-M    P1
_symmetry_Int_Tables_number       1
_space_group_crystal_system       triclinic
_cell_length_a                    24.477246
_cell_length_b                    17.072799
_cell_length_c                    15.531343
_cell_angle_alpha                 89.569914
_cell_angle_beta                  50.746884
_cell_angle_gamma                 89.364667
_cell_volume                      5025.64055616

loop_
_atom_site_label
_atom_site_type_symbol
_atom_type_description
_atom_site_fract_x
_atom_site_fract_y
_atom_site_fract_z
_atom_type_partial_charge
C1    C     C_R   0.332723 0.107387 0.802304 -0.129944
C2    C     C_2   0.360015 0.740245 0.848112 -0.215712
C3    C     C_2   0.306303 0.150765 0.981610 -0.211370
C4    C     C_2   0.640279 0.739482 0.154541 -0.210580
C5    C     C_2   0.194198 0.651929 0.018632 -0.202577
C6    C     C_2   0.859820 0.240646 0.849127 -0.214617
C7    C     C_2   0.806344 0.650950 0.981479 -0.210662
C8    C     C_2   0.140223 0.239441 0.154607 -0.211056
C9    C     C_2   0.764310 0.149807 0.958990 -0.105711
C10   C     C_2   0.307728 0.700965 0.862625 -0.094124
C11   C     C_2   0.236160 0.148146 0.043276 -0.099779
C12   C     C_R   0.648926 0.856643 0.245421 -0.116885
C13   C     C_2   0.692978 0.699440 0.139385 -0.098124
C14   C     C_2   0.264341 0.649596 0.958551 -0.115078
C15   C     C_2   0.807862 0.201071 0.863021 -0.080975
C16   C     C_2   0.736205 0.648212 0.043221 -0.111897
C17   C     C_2   0.192938 0.199402 0.139425 -0.092150
C18   C     C_R   0.588943 0.142663 0.593317 -0.122926
C19   C     C_R   0.385894 0.896456 0.407142 -0.103837
C20   C     C_R   0.411569 0.144030 0.406226 -0.037382
C21   C     C_R   0.614717 0.897090 0.592778 -0.107221
C22   C     C_R   0.089223 0.642602 0.593858 -0.032383
C23   C     C_R   0.666922 0.108263 0.198880 -0.117235
C24   C     C_R   0.886445 0.395559 0.407294 -0.127393
C25   C     C_R   0.911473 0.644006 0.406253 -0.036651
C26   C     C_R   0.114631 0.396720 0.592763 -0.102088
C27   C     C_R   0.664380 0.142279 0.406921 -0.152451
C28   C     C_R   0.310593 0.900085 0.590767 -0.146029
C29   C     C_R   0.338964 0.146218 0.591262 -0.136713
C30   C     C_R   0.689865 0.900795 0.409292 -0.153957
C31   C     C_R   0.161827 0.645076 0.408679 -0.127747
C32   C     C_R   0.811805 0.396121 0.592214 -0.131435
C33   C     C_R   0.838844 0.646157 0.591279 -0.091856
C34   C     C_R   0.351358 0.857272 0.755462 -0.116396
C35   C     C_R   0.189787 0.400420 0.409228 -0.144208
C36   C     C_R   0.576904 0.107807 0.197207 -0.081217
C37   C     C_R   0.442160 0.857360 0.757127 -0.141846
C38   C     C_R   0.423362 0.107317 0.802388 -0.146621
C39   C     C_R   0.558122 0.857377 0.243780 -0.145602
C40   C     C_R   0.076906 0.607579 0.197093 -0.082374
C41   C     C_R   0.942091 0.357580 0.757527 -0.145873
C42   C     C_R   0.923320 0.607325 0.802419 -0.082504
C43   C     C_R   0.058074 0.357370 0.243842 -0.147137
C44   C     C_R   0.352702 0.126095 0.865243 0.145840
C45   C     C_R   0.832736 0.607493 0.802227 -0.131331
C46   C     C_R   0.615935 0.813913 0.214382 0.147500
C47   C     C_R   0.647248 0.127193 0.135306 0.147727
C48   C     C_R   0.384493 0.814352 0.787133 0.146665
C49   C     C_R   0.852712 0.626232 0.865153 0.155760
C50   C     C_R   0.115887 0.313887 0.214431 0.149936
C51   C     C_R   0.147333 0.626603 0.134878 0.154672
C52   C     C_R   0.884316 0.314667 0.787977 0.150728
C53   C     C_R   0.641364 0.183764 0.500125 0.037962
C54   C     C_R   0.315710 0.884949 0.498151 0.071637
C55   C     C_R   0.363426 0.191056 0.497713 0.057706
C56   C     C_R   0.148904 0.356625 0.245425 -0.122447
C57   C     C_R   0.685192 0.886692 0.501833 0.053144
C58   C     C_R   0.138036 0.689046 0.502334 0.059027
C59   C     C_R   0.818931 0.380465 0.499621 0.159668
C60   C     C_R   0.863236 0.691006 0.497757 0.060964
C61   C     C_R   0.185066 0.386061 0.501763 0.071383
C62   C     C_R   0.278785 0.301371 0.598353 -0.305495
C63   C     C_R   0.810867 0.850908 0.400042 -0.280174
C64   C     C_R   0.676563 0.314940 0.497491 -0.267447
C65   C     C_R   0.191206 0.846040 0.599995 -0.300400
C66   C     C_R   0.778598 0.801414 0.598493 -0.284707
C67   C     C_R   0.167041 0.607639 0.198378 -0.124994
C68   C     C_R   0.310721 0.350130 0.399870 -0.305363
C69   C     C_R   0.223678 0.797377 0.401696 -0.293593
C70   C     C_R   0.781032 0.254192 0.502591 -0.193722
C71   C     C_R   0.734775 0.855619 0.600695 -0.017652
C72   C     C_R   0.359647 0.305664 0.397538 -0.016567
C73   C     C_R   0.266918 0.851296 0.399322 -0.024433
C74   C     C_R   0.738369 0.202617 0.502758 -0.075768
C75   C     C_R   0.234760 0.355203 0.600535 -0.017047
C76   C     C_R   0.859599 0.805958 0.397694 -0.021347
C77   C     C_R   0.719818 0.366732 0.497062 -0.026280
C78   C     C_R   0.851127 0.357507 0.756370 -0.120944
C79   C     C_R   0.142784 0.801728 0.602554 -0.017690
C80   C     C_R   0.744461 0.868265 0.501668 0.159740
C81   C     C_R   0.336927 0.269009 0.497131 0.159507
C82   C     C_R   0.257091 0.864122 0.498300 0.151610
C83   C     C_R   0.686050 0.234583 0.500368 0.058266
C84   C     C_R   0.244329 0.367500 0.501537 0.153596
C85   C     C_R   0.836711 0.769018 0.497240 0.157995
C86   C     C_R   0.771814 0.334425 0.499707 0.042059
C87   C     C_R   0.165589 0.765462 0.502985 0.159749
C88   C     C_2   0.683425 0.899474 0.704989 0.485927
C89   C     C_2   0.694177 0.152526 0.019082 -0.200123
C90   C     C_2   0.433020 0.301944 0.292011 0.452761
C91   C     C_2   0.317440 0.895160 0.294903 0.461596
C92   C     C_2   0.749381 0.116605 0.504942 0.547956
C93   C     C_2   0.183421 0.399177 0.704704 0.450727
C94   C     C_2   0.932968 0.802076 0.292196 0.469429
C95   C     C_2   0.708718 0.452188 0.493936 0.477722
C96   C     C_2   0.069548 0.798471 0.708328 0.460407
H1    H     H_    0.279620 0.104403 0.830356 0.083115
H2    H     H_    0.262774 0.906402 0.675629 0.092503
H3    H     H_    0.300016 0.162894 0.677153 0.098932
H4    H     H_    0.737541 0.907589 0.324472 0.092957
H5    H     H_    0.201054 0.661434 0.322747 0.098451
H6    H     H_    0.763747 0.395468 0.677670 0.099148
H7    H     H_    0.799867 0.662800 0.677175 0.091766
H8    H     H_    0.237465 0.407125 0.324391 0.089998
H9    H     H_    0.548032 0.104599 0.166082 0.093077
H10   H     H_    0.479067 0.841058 0.770436 0.095895
H11   H     H_    0.452873 0.103904 0.832490 0.105213
H12   H     H_    0.696134 0.841688 0.233939 0.093524
H13   H     H_    0.521300 0.841321 0.230760 0.095862
H14   H     H_    0.047925 0.604423 0.166153 0.083524
H15   H     H_    0.978998 0.341387 0.770869 0.096842
H16   H     H_    0.952691 0.603777 0.832751 0.088484
H17   H     H_    0.021181 0.341353 0.230935 0.100831
H18   H     H_    0.266532 0.283955 0.675955 0.118065
H19   H     H_    0.824732 0.870428 0.322095 0.110573
H20   H     H_    0.635537 0.336687 0.495512 0.132559
H21   H     H_    0.177222 0.865161 0.677936 0.114666
H22   H     H_    0.766214 0.783766 0.676111 0.117600
H23   H     H_    0.719769 0.105696 0.172023 0.080700
H24   H     H_    0.324481 0.369343 0.321888 0.114125
H25   H     H_    0.236149 0.780117 0.324111 0.119813
H26   H     H_    0.822118 0.232260 0.504425 0.173063
H27   H     H_    0.378671 0.723366 0.893256 0.129514
H28   H     H_    0.670785 0.181124 0.986381 0.141389
H29   H     H_    0.621132 0.722980 0.110358 0.129899
H30   H     H_    0.330058 0.178912 0.013278 0.134134
H31   H     H_    0.878203 0.224019 0.894737 0.131501
H32   H     H_    0.170710 0.680336 0.985971 0.138461
H33   H     H_    0.121060 0.222926 0.110453 0.130794
H34   H     H_    0.304120 0.843024 0.767378 0.092929
H35   H     H_    0.830112 0.679192 0.013066 0.136746
H36   H     H_    0.564066 0.155652 0.679026 0.111532
H37   H     H_    0.409758 0.895818 0.320534 0.116123
H38   H     H_    0.438672 0.155878 0.319757 0.109532
H39   H     H_    0.590936 0.896785 0.679374 0.114962
H40   H     H_    0.062463 0.653633 0.680334 0.108003
H41   H     H_    0.907443 0.394425 0.321623 0.097654
H42   H     H_    0.938586 0.655880 0.319784 0.099773
H43   H     H_    0.090873 0.396327 0.679347 0.115730
H44   H     H_    0.662310 0.873176 0.784342 -0.001731
H45   H     H_    0.779634 0.604553 0.830271 0.083992
H46   H     H_    0.443750 0.311314 0.213370 0.007956
H47   H     H_    0.339719 0.868353 0.215540 0.005839
H48   H     H_    0.717321 0.074241 0.503654 0.044273
H49   H     H_    0.162221 0.372970 0.784147 0.006697
H50   H     H_    0.943737 0.811540 0.213541 -0.001000
H51   H     H_    0.667364 0.472286 0.491768 0.015321
H52   H     H_    0.059104 0.806184 0.786891 0.003282
H53   H     H_    0.288328 0.717663 0.818637 0.130627
H54   H     H_    0.788403 0.121788 0.990682 0.126982
H55   H     H_    0.712978 0.715889 0.182202 0.128219
H56   H     H_    0.196124 0.341656 0.233898 0.092179
H57   H     H_    0.211722 0.120700 0.012506 0.127992
H58   H     H_    0.788769 0.217498 0.818501 0.133693
H59   H     H_    0.288533 0.621783 0.990202 0.124932
H60   H     H_    0.212943 0.215856 0.182232 0.131284
H61   H     H_    0.711760 0.620683 0.012512 0.128434
H62   H     H_    0.219957 0.604598 0.171226 0.079173
H63   H     H_    0.803521 0.343333 0.769491 0.091606
H64   H     H_    0.708883 0.155055 0.321484 0.108154
N1    N     N_R   0.388930 0.078160 0.705470 -0.043194
N2    N     N_R   0.419500 0.922160 0.443350 -0.045684
N3    N     N_R   0.419500 0.077840 0.443350 -0.047239
N4    N     N_R   0.580500 0.922160 0.556650 -0.043729
N5    N     N_R   0.080500 0.577840 0.556650 -0.047457
N6    N     N_R   0.919500 0.422160 0.443350 -0.046374
N7    N     N_R   0.919500 0.577840 0.443350 -0.046657
N8    N     N_R   0.080500 0.422160 0.556650 -0.045660
N9    N     N_R   0.626210 0.077590 0.443410 -0.043295
N10   N     N_R   0.373790 0.922410 0.556590 -0.042455
N11   N     N_R   0.373790 0.077590 0.556590 -0.042793
N12   N     N_R   0.611070 0.921840 0.294530 -0.048547
N13   N     N_R   0.626210 0.922410 0.443410 -0.041216
N14   N     N_R   0.126210 0.577590 0.443410 -0.043805
N15   N     N_R   0.873790 0.422410 0.556590 -0.046246
N16   N     N_R   0.873790 0.577590 0.556590 -0.039031
N17   N     N_R   0.126210 0.422410 0.443410 -0.041800
N18   N     N_R   0.554800 0.077270 0.294580 -0.047385
N19   N     N_R   0.445200 0.922730 0.705420 -0.043491
N20   N     N_R   0.445200 0.077270 0.705420 -0.040019
N21   N     N_R   0.554800 0.922730 0.294580 -0.046692
N22   N     N_R   0.054800 0.577270 0.294580 -0.046684
N23   N     N_R   0.611070 0.078160 0.294530 -0.043481
N24   N     N_R   0.945200 0.422730 0.705420 -0.047599
N25   N     N_R   0.945200 0.577270 0.705420 -0.046455
N26   N     N_R   0.054800 0.422730 0.294580 -0.047342
N27   N     N_R   0.388930 0.921840 0.705470 -0.047315
N28   N     N_R   0.888930 0.578160 0.705470 -0.046465
N29   N     N_R   0.111070 0.421840 0.294530 -0.048103
N30   N     N_R   0.111070 0.578160 0.294530 -0.043749
N31   N     N_R   0.888930 0.421840 0.705470 -0.048953
N32   N     N_R   0.580500 0.077840 0.556650 -0.038744
Ni1   Ni    Ni4+2 0.382710 0.000000 0.629850 0.214877
Ni2   Ni    Ni4+2 0.617290 0.000000 0.370150 0.209317
Ni3   Ni    Ni4+2 0.882710 0.500000 0.629850 0.225373
Ni4   Ni    Ni4+2 0.117290 0.500000 0.370150 0.212701
Ni5   Ni    Ni4+2 0.513020 0.000000 0.629850 0.232158
Ni6   Ni    Ni4+2 0.486980 0.000000 0.370150 0.235339
Ni7   Ni    Ni4+2 0.013020 0.500000 0.629850 0.234579
Ni8   Ni    Ni4+2 0.986980 0.500000 0.370150 0.226360
O1    O     O_2   0.667772 0.967229 0.702866 -0.581082
O2    O     O_2   0.482515 0.292974 0.292206 -0.580443
O3    O     O_2   0.330947 0.963449 0.296913 -0.584725
O4    O     O_2   0.795030 0.091632 0.508143 -0.558147
O5    O     O_2   0.167913 0.466958 0.702346 -0.590457
O6    O     O_2   0.982431 0.792907 0.292432 -0.570998
O7    O     O_2   0.744826 0.501050 0.493763 -0.591768
O8    O     O_2   0.019844 0.791973 0.708483 -0.572814

loop_
_geom_bond_atom_site_label_1
_geom_bond_atom_site_label_2
_ccdc_geom_bond_type
C35   N17   A    
C94   H50   S    
C64   H20   S    
N8    Ni7   S    
C14   H59   S    
C64   C83   A    
C64   C77   A    
C18   H36   S    
C94   O6    D    
C74   C83   A    
N11   Ni1   S    
C93   O5    D    
C58   C87   S    
C66   C85   A    
C79   C87   A    
C67   N30   A    
C12   N12   A    
C4    C46   S    
C2    H27   S    
C25   N7    A    
N14   Ni4   S    
C91   O3    D    
C18   N32   A    
N6    N15   A    
C4    H29   S    
C65   C79   A    
C31   H5    S    
C31   C58   A    
N17   Ni4   S    
C26   C61   A    
C6    H31   S    
C62   H18   S    
N5    Ni7   S    
C10   H53   S    
C23   H23   S    
C75   C84   A    
C96   O8    D    
N19   N27   A    
C63   C76   A    
N8    N17   A    
C30   C57   A    
C30   H4    S    
C38   H11   S    
N23   Ni2   S    
C5    H32   S    
C36   C47   A    
C74   C92   S    
C4    C13   D    
C33   N16   A    
C42   H16   S    
C88   H44   S    
C15   H58   S    
C42   N25   A    
N20   Ni5   S    
C18   C53   A    
C76   C94   S    
C6    C15   D    
C22   N5    A    
N12   Ni2   S    
N12   N21   A    
N28   Ni3   S    
C70   C74   A    
N7    Ni8   S    
C41   N24   A    
C69   C73   A    
C25   C60   A    
C69   H25   S    
C88   O1    D    
C55   C81   S    
N3    N11   A    
C27   N9    A    
C30   N13   A    
C40   N22   A    
N18   N23   A    
C92   O4    D    
N30   Ni4   S    
C63   H19   S    
N18   Ni6   S    
C1    N1    A    
C21   N4    A    
N27   Ni1   S    
C45   H45   S    
C47   C89   S    
C57   C80   S    
N26   Ni8   S    
C20   C55   A    
C52   C78   A    
N21   Ni6   S    
N15   Ni3   S    
C71   C80   A    
C38   C44   A    
C39   H13   S    
C91   H47   S    
C63   C80   A    
C95   O7    D    
C96   H52   S    
C32   N15   A    
C3    C44   S    
C3    H30   S    
C38   N20   A    
C29   H3    S    
C68   C84   A    
N22   Ni8   S    
C13   H55   S    
C12   C46   A    
C26   H43   S    
C10   C14   S    
C1    H1    S    
C12   H12   S    
C28   C54   A    
N25   N28   A    
C40   H14   S    
C29   C55   A    
C43   N26   A    
C2    C48   S    
C27   H64   S    
C20   N3    A    
C77   C95   S    
C45   N28   A    
C50   C56   A    
C22   H40   S    
C37   C48   A    
C19   N2    A    
C24   N6    A    
C36   N18   A    
C21   C57   A    
C7    C49   S    
C72   C90   S    
C70   H26   S    
C1    C44   A    
C66   C71   A    
N2    N10   A    
C45   C49   A    
C68   C72   A    
N24   Ni7   S    
C26   N8    A    
C5    C14   D    
N24   N31   A    
N1    Ni1   S    
N4    N13   A    
C35   C61   A    
C51   C67   A    
N32   Ni5   S    
C29   N11   A    
N1    N20   A    
C93   H49   S    
N25   Ni7   S    
C73   C91   S    
C23   N23   A    
C39   N21   A    
C39   C46   A    
C19   H37   S    
C19   C54   A    
C28   N10   A    
C7    C16   D    
C62   C81   A    
C77   C86   A    
C35   H8    S    
C33   C60   A    
C66   H22   S    
C32   H6    S    
C62   C75   A    
C95   H51   S    
C56   H56   S    
C16   H61   S    
C9    C89   D    
C9    H54   S    
C70   C86   A    
C8    C50   S    
C73   C82   A    
C54   C82   S    
N4    Ni5   S    
C75   C93   S    
C28   H2    S    
C56   N29   A    
C11   C17   S    
C41   C52   A    
N31   Ni3   S    
C36   H9    S    
C33   H7    S    
C7    H35   S    
C78   N31   A    
C72   C81   A    
C61   C84   S    
C69   C87   A    
C22   C58   A    
N10   Ni1   S    
C60   C85   S    
C27   C53   A    
C43   C50   A    
N9    Ni2   S    
C89   H28   S    
C24   H41   S    
C90   H46   S    
C40   C51   A    
N19   Ni5   S    
N2    Ni6   S    
C8    C17   D    
C32   C59   A    
C53   C83   S    
C20   H38   S    
C23   C47   A    
C25   H42   S    
N5    N14   A    
C59   C86   S    
C37   H10   S    
C43   H17   S    
N29   Ni4   S    
C65   C82   A    
N26   N29   A    
C24   C59   A    
N3    Ni6   S    
C37   N19   A    
C67   H62   S    
N16   Ni3   S    
C9    C15   S    
C34   N27   A    
C92   H48   S    
N6    Ni8   S    
N13   Ni2   S    
C3    C11   D    
C11   H57   S    
C42   C49   A    
C71   C88   S    
C78   H63   S    
C79   C96   S    
C34   C48   A    
C34   H34   S    
C41   H15   S    
C13   C16   S    
C8    H33   S    
C65   H21   S    
C5    C51   S    
N22   N30   A    
N9    N32   A    
C6    C52   S    
C17   H60   S    
C76   C85   A    
C21   H39   S    
C68   H24   S    
N7    N16   A    
C90   O2    D    
C31   N14   A    
C2    C10   D    
