data_mof_unit_42698.cif
_audit_creation_date              2012-10-26T19:10:52-0400
_audit_creation_method            fapswitch 2.2
_symmetry_space_group_name_H-M    P1
_symmetry_Int_Tables_number       1
_space_group_crystal_system       triclinic
_cell_length_a                    10.735316
_cell_length_b                    9.488377
_cell_length_c                    23.499565
_cell_angle_alpha                 89.484341
_cell_angle_beta                  88.762467
_cell_angle_gamma                 90.049438
_cell_volume                      2393.02615392

loop_
_atom_site_label
_atom_site_type_symbol
_atom_type_description
_atom_site_fract_x
_atom_site_fract_y
_atom_site_fract_z
_atom_type_partial_charge
C1    C     C_R   0.259764 0.500032 0.498737 0.563495
C2    C     C_R   0.604889 0.449574 0.118404 0.402122
C3    C     C_R   0.516250 0.634339 0.239266 -0.057831
C4    C     C_R   0.500362 0.500673 0.391031 0.544475
C5    C     C_R   0.513735 0.631690 0.298569 -0.149420
C6    C     C_R   0.502188 0.502978 0.328352 0.002424
C7    C     C_R   0.493092 0.377053 0.297662 -0.150559
C8    C     C_R   0.495105 0.380064 0.238284 -0.057473
C9    C     C_R   0.506740 0.508694 0.208845 0.239166
C10   C     C_R   0.431637 0.407274 0.763127 0.090085
C11   C     C_R   0.429040 0.408121 0.703473 -0.124429
C12   C     C_R   0.317031 0.653531 0.971341 0.092103
C13   C     C_R   0.503274 0.501409 0.671162 -0.007825
C14   C     C_R   0.578383 0.599160 0.698619 -0.116126
C15   C     C_R   0.581105 0.601396 0.757796 -0.065935
C16   C     C_R   0.739667 0.500151 0.497343 0.543000
C17   C     C_R   0.508741 0.506322 0.790348 0.207002
C18   C     C_3   0.066270 0.491008 0.558600 -0.232279
C19   C     C_3   0.073259 0.372687 0.462927 -0.234855
C20   C     C_3   0.922998 0.491151 0.558118 -0.237293
C21   C     C_3   0.929735 0.372807 0.462363 -0.233443
C22   C     C_3   0.073016 0.637142 0.468358 -0.233550
C23   C     C_R   0.317646 0.650436 0.030943 -0.117651
C24   C     C_3   0.121353 0.500230 0.497171 0.050538
C25   C     C_3   0.877503 0.500397 0.496290 0.047457
C26   C     C_3   0.929682 0.637483 0.468003 -0.233847
C27   C     C_3   0.608450 0.082651 0.531790 -0.098840
C28   C     C_3   0.607399 0.916332 0.532533 -0.101600
C29   C     C_3   0.382330 0.082820 0.526917 0.054831
C30   C     C_3   0.381757 0.915253 0.526456 0.052202
C31   C     C_3   0.510004 0.084660 0.442583 -0.140579
C32   C     C_3   0.511246 0.917700 0.442622 -0.141685
C33   C     C_R   0.500316 0.499893 0.608841 0.563594
C34   C     C_R   0.413399 0.582932 0.060217 0.012037
C35   C     C_R   0.607313 0.452161 0.879255 0.432307
C36   C     C_R   0.417458 0.583675 0.879648 0.457211
C37   C     C_R   0.414174 0.587145 0.939746 0.075371
C38   C     C_R   0.511472 0.519851 0.969242 -0.051045
C39   C     C_R   0.609305 0.453224 0.938800 0.036421
C40   C     C_2   0.347330 0.141656 0.584885 0.627835
C41   C     C_2   0.343148 0.850028 0.583713 0.641960
C42   C     C_2   0.353549 0.302119 0.795180 0.619494
C43   C     C_R   0.510980 0.518157 0.029383 -0.035334
C44   C     C_R   0.607903 0.450852 0.058670 0.034965
C45   C     C_R   0.705258 0.386515 0.027736 -0.119931
C46   C     C_R   0.705888 0.387576 0.968452 -0.114794
C47   C     C_R   0.413600 0.577929 0.119934 0.402832
Cu1   Cu    Cu3+1 0.499860 0.642410 0.500030 0.915743
Cu2   Cu    Cu3+1 0.499860 0.357590 0.500030 0.917494
H1    H     H_    0.367038 0.338162 0.682011 0.191042
H2    H     H_    0.886810 0.582168 0.583064 0.124115
H3    H     H_    0.897716 0.377766 0.417656 0.118951
H4    H     H_    0.105133 0.731652 0.491581 0.166686
H5    H     H_    0.110601 0.645467 0.423935 0.113473
H6    H     H_    0.895201 0.731785 0.491335 0.128174
H7    H     H_    0.897366 0.646490 0.423428 0.118074
H8    H     H_    0.613711 0.123728 0.575589 0.179138
H9    H     H_    0.609173 0.876191 0.576868 0.171777
H10   H     H_    0.242076 0.701229 0.054164 0.164782
H11   H     H_    0.696780 0.118161 0.510611 0.104233
H12   H     H_    0.635486 0.673153 0.674226 0.137735
H13   H     H_    0.696373 0.879420 0.512776 0.105588
H14   H     H_    0.430693 0.122313 0.416821 0.112546
H15   H     H_    0.433509 0.879345 0.416288 0.115289
H16   H     H_    0.596039 0.124654 0.420619 0.127426
H17   H     H_    0.598585 0.880155 0.421377 0.123182
H18   H     H_    0.304267 0.115787 0.499290 0.086567
H19   H     H_    0.304813 0.885444 0.497817 0.082553
H20   H     H_    0.780963 0.334436 0.049207 0.169686
H21   H     H_    0.782036 0.336077 0.945953 0.172910
H22   H     H_    0.525828 0.734120 0.216857 0.133992
H23   H     H_    0.639315 0.677687 0.778619 0.144463
H24   H     H_    0.521409 0.730415 0.321001 0.115460
H25   H     H_    0.483985 0.276384 0.319441 0.114983
H26   H     H_    0.487179 0.282489 0.215083 0.134699
H27   H     H_    0.215105 0.828661 0.956836 0.240411
H28   H     H_    0.133067 0.676375 0.957250 0.239204
H29   H     H_    0.208883 0.215116 0.635810 0.343561
H30   H     H_    0.205037 0.763657 0.631661 0.338678
H31   H     H_    0.216437 0.156490 0.792816 0.360757
H32   H     H_    0.098581 0.580455 0.584250 0.160951
H33   H     H_    0.111191 0.377320 0.418491 0.113752
H34   H     H_    0.097968 0.393939 0.580057 0.172196
H35   H     H_    0.105332 0.271985 0.482324 0.152947
H36   H     H_    0.886770 0.393332 0.579169 0.132131
H37   H     H_    0.894887 0.272023 0.481391 0.127552
N1    N     N_R   0.511628 0.514884 0.851217 -0.391996
N2    N     N_R   0.508402 0.511963 0.147735 -0.396255
N3    N     N_3   0.500250 0.143650 0.501250 -0.265535
N4    N     N_3   0.500250 0.856350 0.501250 -0.266106
N5    N     N_3   0.216623 0.723732 0.943609 -0.535631
O1    O     O_R   0.317570 0.620260 0.500030 -0.499416
O2    O     O_2   0.327317 0.646800 0.849525 -0.426355
O3    O     O_2   0.319164 0.637259 0.150016 -0.499070
O4    O     O_2   0.698033 0.387421 0.146975 -0.498550
O5    O     O_2   0.419030 0.133464 0.624445 -0.492936
O6    O     O_R   0.226249 0.190302 0.594548 -0.736727
O7    O     O_2   0.412118 0.853510 0.624413 -0.479090
O8    O     O_R   0.222611 0.797080 0.591165 -0.733471
O9    O     O_2   0.368793 0.280396 0.845910 -0.487357
O10   O     O_R   0.262935 0.225285 0.766801 -0.691859
O11   O     O_R   0.317570 0.379740 0.500030 -0.502779
O12   O     O_R   0.499840 0.620290 0.417900 -0.519467
O13   O     O_R   0.499840 0.379710 0.417900 -0.519841
O14   O     O_R   0.682190 0.620260 0.500010 -0.523357
O15   O     O_R   0.682190 0.379740 0.500010 -0.520335
O16   O     O_R   0.499920 0.620230 0.582140 -0.472217
O17   O     O_R   0.499920 0.379770 0.582140 -0.473788
O18   O     O_2   0.699308 0.387409 0.849472 -0.477367

loop_
_geom_bond_atom_site_label_1
_geom_bond_atom_site_label_2
_ccdc_geom_bond_type
C10   C42   S    
C11   C13   A    
C12   N5    S    
C3    H22   S    
C33   O16   A    
C30   N4    S    
C26   H6    S    
Cu2   O13   S    
C29   N3    S    
C7    C8    A    
C22   H5    S    
C45   C46   A    
C23   H10   S    
C15   H23   S    
C12   C23   A    
C29   C30   S    
C18   C24   S    
H30   O8    S    
C36   C37   A    
C19   C21   S    
C20   H2    S    
C27   H11   S    
C9    N2    S    
C38   C39   A    
Cu1   O16   S    
C20   C25   S    
C10   C17   A    
C4    O12   A    
C18   H32   S    
C15   C17   A    
C12   C37   A    
C29   H18   S    
C35   N1    A    
C36   O2    S    
C32   N4    S    
Cu1   O14   S    
C2    C44   A    
C8    C9    A    
C31   N3    S    
C41   O8    S    
C30   C41   S    
C2    N2    A    
C22   H4    S    
C19   H33   S    
C35   O18   S    
C16   O15   A    
Cu1   N4    S    
C13   C14   A    
C33   O17   A    
C40   O5    D    
Cu2   O17   S    
C36   N1    A    
C45   H20   S    
C31   H14   S    
C32   H15   S    
C4    C6    S    
C27   H8    S    
C40   O6    S    
C25   C26   S    
Cu1   O12   S    
C8    H26   S    
C26   H7    S    
C35   C39   A    
C43   C44   A    
C13   C33   S    
C37   C38   A    
C3    C9    A    
C42   O9    D    
C31   C32   S    
C14   C15   A    
C23   C34   A    
C20   H36   S    
H29   O6    S    
C18   H34   S    
C6    C7    A    
C16   O14   A    
C39   C46   A    
Cu1   Cu2   S    
C1    O1    A    
C22   C26   S    
C22   C24   S    
C19   H35   S    
C42   O10   S    
Cu2   O11   S    
C44   C45   A    
C32   H17   S    
C16   C25   S    
C31   H16   S    
C21   C25   S    
C21   H37   S    
H28   N5    S    
C17   N1    S    
C34   C43   A    
Cu2   N3    S    
C3    C5    A    
C2    O4    S    
Cu2   O15   S    
C28   H9    S    
H31   O10   S    
C47   N2    A    
C19   C24   S    
C38   C43   A    
C11   H1    S    
C7    H25   S    
C14   H12   S    
C5    C6    A    
C4    O13   A    
C29   C40   S    
C47   O3    S    
C27   N3    S    
C18   C20   S    
C5    H24   S    
C46   H21   S    
C10   C11   A    
H27   N5    S    
C1    C24   S    
Cu1   O1    S    
C27   C28   S    
C41   O7    D    
C28   N4    S    
C34   C47   A    
C1    O11   A    
C21   H3    S    
C30   H19   S    
C28   H13   S    
