data_mof_unit_46331.cif
_audit_creation_date              2012-12-10T17:15:56-0500
_audit_creation_method            fapswitch 2.2
_symmetry_space_group_name_H-M    P1
_symmetry_Int_Tables_number       1
_space_group_crystal_system       triclinic
_cell_length_a                    10.13293
_cell_length_b                    10.730008
_cell_length_c                    10.628865
_cell_angle_alpha                 92.304954
_cell_angle_beta                  94.643915
_cell_angle_gamma                 82.739308
_cell_volume                      1142.08282204

loop_
_atom_site_label
_atom_site_type_symbol
_atom_type_description
_atom_site_fract_x
_atom_site_fract_y
_atom_site_fract_z
_atom_type_partial_charge
C1    C     C_R   0.446174 0.519674 0.267429 0.994978
C2    C     C_2   0.516900 0.589740 0.941096 0.285577
C3    C     C_2   0.072198 0.488535 0.488976 -0.081305
C4    C     C_R   0.496502 0.260478 0.494238 1.011078
C5    C     C_2   0.927877 0.511195 0.511297 -0.079905
C6    C     C_R   0.555080 0.496369 0.733924 0.925730
C7    C     C_R   0.500880 0.739476 0.496175 0.901043
C8    C     C_R   0.550762 0.106885 0.260259 0.336179
C9    C     C_R   0.620495 0.034545 0.169312 -0.100796
C10   C     C_R   0.662302 0.908022 0.188294 0.409237
C11   C     C_R   0.624043 0.851401 0.292973 -0.250599
C12   C     C_R   0.533684 0.055583 0.377740 -0.054895
C13   C     C_R   0.556567 0.924385 0.387978 -0.003675
C14   C     C_R   0.486457 0.128718 0.482798 -0.182783
C15   C     C_R   0.434948 0.073555 0.582292 0.359687
C16   C     C_R   0.435063 0.946113 0.579306 -0.138421
C17   C     C_R   0.502126 0.871448 0.488629 -0.121662
C18   C     C_2   0.422052 0.549836 0.134932 -0.313084
C19   C     C_2   0.525560 0.579017 0.076074 -0.126796
C20   C     C_2   0.585336 0.500620 0.869466 0.161921
Cl1   Cl    Cl    0.373245 0.159222 0.715251 -0.474328
Cl2   Cl    Cl    0.449592 0.241162 0.206467 -0.551697
Cl3   Cl    Cl    0.750669 0.817565 0.074008 -0.514466
H1    H     H_    0.324247 0.546595 0.085675 0.190939
H2    H     H_    0.324633 0.808775 0.037344 0.362746
H3    H     H_    0.816931 0.209933 0.866402 0.399938
H4    H     H_    0.893045 0.581608 0.581256 0.180440
H5    H     H_    0.107065 0.417929 0.419210 0.180501
H6    H     H_    0.878944 0.382473 0.383100 0.198652
H7    H     H_    0.120928 0.617776 0.616602 0.211756
H8    H     H_    0.634959 0.074569 0.080291 0.240440
H9    H     H_    0.646861 0.750845 0.296244 0.187681
H10   H     H_    0.386285 0.904959 0.651293 0.250891
H11   H     H_    0.623256 0.583406 0.125154 0.215511
N1    N     N_2   0.157290 0.551390 0.551110 -0.174383
N2    N     N_2   0.842740 0.448550 0.448960 -0.185658
O1    O     O_R   0.568950 0.489660 0.307530 -0.592713
O2    O     O_2   0.314726 0.719780 0.800623 -0.309210
O3    O     O_3   0.402685 0.837602 0.002066 -0.480671
O4    O     O_2   0.828358 0.441864 0.984252 -0.261293
O5    O     O_2   0.654067 0.320536 0.040420 -0.270470
O6    O     O_3   0.750746 0.272641 0.822455 -0.514630
O7    O     O_R   0.348880 0.522640 0.340350 -0.607509
O8    O     O_R   0.610060 0.300270 0.483590 -0.588125
O9    O     O_R   0.389990 0.333260 0.516410 -0.576387
O10   O     O_R   0.651120 0.477360 0.659650 -0.565193
O11   O     O_R   0.431050 0.510340 0.692470 -0.568815
O12   O     O_R   0.610010 0.666740 0.483590 -0.641023
O13   O     O_R   0.389940 0.699730 0.516410 -0.596114
O14   O     O_2   0.538011 0.786969 0.805880 -0.281222
S1    S     S_3+6 0.440131 0.735364 0.882199 0.047964
S2    S     S_3+6 0.707432 0.382201 0.934331 0.055967
Zn1   Zn    Zn3+2 0.646940 0.477980 0.478090 1.036486
Zn2   Zn    Zn3+2 0.353060 0.522020 0.521910 1.062490

loop_
_geom_bond_atom_site_label_1
_geom_bond_atom_site_label_2
_ccdc_geom_bond_type
O9    Zn2   S    
C8    Cl2   S    
O2    S1    D    
C3    N1    D    
C10   Cl3   S    
C6    C20   S    
C9    C10   A    
O5    S2    D    
O3    S1    S    
C6    O10   A    
C13   C17   A    
C8    C12   A    
O1    Zn1   S    
C7    O12   A    
O14   S1    D    
C8    C9    A    
C20   S2    S    
C5    H4    S    
H2    O3    S    
N1    Zn2   S    
C11   C13   A    
H6    N2    S    
C7    O13   A    
C1    C18   S    
H7    N1    S    
O11   Zn2   S    
C18   H1    S    
O10   Zn1   S    
C3    H5    S    
C12   C14   A    
C11   H9    S    
C4    O9    A    
C4    C14   S    
O12   Zn1   S    
C16   H10   S    
O7    Zn2   S    
C10   C11   A    
C9    H8    S    
C2    C20   D    
O13   Zn2   S    
C5    N2    D    
C6    O11   A    
C15   Cl1   S    
C12   C13   A    
H3    O6    S    
C18   C19   D    
C2    S1    S    
C14   C15   A    
C16   C17   A    
N2    Zn1   S    
C4    O8    A    
C7    C17   S    
C2    C19   S    
O4    S2    D    
O8    Zn1   S    
C1    O7    A    
C15   C16   A    
O6    S2    S    
C1    O1    A    
C3    C5    S    
C19   H11   S    
