data_mof_unit_58984.cif
_audit_creation_date              2012-12-10T17:18:52-0500
_audit_creation_method            fapswitch 2.2
_symmetry_space_group_name_H-M    P1
_symmetry_Int_Tables_number       1
_space_group_crystal_system       triclinic
_cell_length_a                    9.602649
_cell_length_b                    10.775966
_cell_length_c                    13.414635
_cell_angle_alpha                 92.452788
_cell_angle_beta                  72.372949
_cell_angle_gamma                 90.009314
_cell_volume                      1321.61060324

loop_
_atom_site_label
_atom_site_type_symbol
_atom_type_description
_atom_site_fract_x
_atom_site_fract_y
_atom_site_fract_z
_atom_type_partial_charge
C1    C     C_R   0.498370 0.737426 0.503788 0.805897
C2    C     C_R   0.431807 0.472545 0.979360 0.095164
C3    C     C_R   0.470500 0.447216 0.869759 0.077567
C4    C     C_R   0.540492 0.459868 0.030707 -0.045357
C5    C     C_R   0.675600 0.400044 0.976285 0.099147
C6    C     C_R   0.702974 0.358546 0.872271 -0.214126
C7    C     C_R   0.602539 0.382223 0.819499 -0.195467
C8    C     C_R   0.521532 0.507941 0.133278 0.521977
C9    C     C_R   0.754136 0.418806 0.131580 -0.309642
C10   C     C_R   0.373473 0.484387 0.814594 -0.105059
C11   C     C_R   0.281200 0.879772 0.670358 -0.182364
C12   C     C_R   0.421547 0.493362 0.699813 0.761726
C13   C     C_R   0.176881 0.948935 0.747895 -0.133252
C14   C     C_R   0.176887 0.078005 0.747777 -0.133407
C15   C     C_R   0.281210 0.138721 0.670102 -0.176820
C16   C     C_R   0.386591 0.070525 0.589514 0.099862
C17   C     C_R   0.386568 0.939242 0.589654 0.096487
C18   C     C_R   0.495466 0.871641 0.510984 -0.101484
C19   C     C_R   0.605414 0.932611 0.437308 -0.179764
C20   C     C_R   0.605435 0.060605 0.437142 -0.204360
C21   C     C_R   0.495523 0.129556 0.510678 -0.087607
C22   C     C_R   0.914738 0.336950 0.359629 -0.155991
C23   C     C_R   0.498604 0.262919 0.503256 0.751784
C24   C     C_R   0.015576 0.257134 0.290547 -0.226321
C25   C     C_R   0.158885 0.255952 0.290937 -0.201028
C26   C     C_R   0.202259 0.334672 0.360321 -0.108361
C27   C     C_R   0.103620 0.419070 0.431268 0.223078
C28   C     C_R   0.954172 0.419627 0.431069 0.210388
C29   C     C_R   0.898340 0.576428 0.565772 -0.050110
C30   C     C_R   0.046235 0.576470 0.565694 -0.056035
C31   C     C_R   0.578517 0.498247 0.299907 0.839588
C32   C     C_R   0.781777 0.381480 0.026732 -0.204629
C33   C     C_R   0.622543 0.479666 0.185763 -0.140257
C34   C     C_R   0.230210 0.521954 0.870927 -0.201448
C35   C     C_R   0.184918 0.527007 0.979594 -0.184204
C36   C     C_R   0.284387 0.504000 0.033639 -0.098124
Cu1   Cu    Cu3+1 0.359340 0.500010 0.500010 0.953055
Cu2   Cu    Cu3+1 0.640660 0.499990 0.499990 0.931530
H1    H     H_    0.833939 0.397322 0.170706 0.175727
H2    H     H_    0.279804 0.779974 0.675863 0.136817
H3    H     H_    0.096916 0.902174 0.809154 0.134439
H4    H     H_    0.096904 0.131430 0.808931 0.129145
H5    H     H_    0.279663 0.239050 0.675404 0.150256
H6    H     H_    0.689833 0.106128 0.377700 0.140379
H7    H     H_    0.820456 0.639143 0.619706 0.144605
H8    H     H_    0.807513 0.329774 0.353522 0.192092
H9    H     H_    0.981810 0.195350 0.236592 0.150339
H10   H     H_    0.237300 0.193145 0.237306 0.156003
H11   H     H_    0.314318 0.324638 0.354608 0.187616
H12   H     H_    0.803630 0.309141 0.830894 0.142573
H13   H     H_    0.078682 0.639180 0.619555 0.129086
H14   H     H_    0.884592 0.334989 0.985831 0.148628
H15   H     H_    0.152741 0.547933 0.830966 0.155311
H16   H     H_    0.241508 0.505587 0.117866 0.204785
H17   H     H_    0.072759 0.551744 0.022304 0.159017
H18   H     H_    0.627751 0.344061 0.740198 0.177237
H19   H     H_    0.689816 0.880583 0.378011 0.157580
N1    N     N_R   0.852480 0.498790 0.499000 -0.201506
N2    N     N_R   0.148360 0.498710 0.498970 -0.196399
O1    O     O_R   0.381190 0.680360 0.500010 -0.563196
O2    O     O_R   0.618760 0.680340 0.500000 -0.573235
O3    O     O_R   0.323240 0.499990 0.650990 -0.597028
O4    O     O_R   0.560820 0.499960 0.650980 -0.580667
O5    O     O_R   0.381240 0.319660 0.500000 -0.608178
O6    O     O_R   0.618810 0.319640 0.499990 -0.598525
O7    O     O_R   0.439180 0.500040 0.349020 -0.539124
O8    O     O_R   0.676760 0.500010 0.349010 -0.607181
F1    F     F_    0.411421 0.589628 0.181175 -0.678632

loop_
_geom_bond_atom_site_label_1
_geom_bond_atom_site_label_2
_ccdc_geom_bond_type
C31   O7    A    
C2    C4    A    
C30   H13   S    
C31   C33   S    
C24   C25   A    
C16   C21   A    
C28   N1    A    
C12   O3    A    
C35   C36   A    
Cu2   O6    S    
C4    C8    A    
C14   H4    S    
C5    C32   A    
C30   N2    A    
Cu2   O2    S    
C13   H3    S    
C2    C3    A    
C1    C18   S    
C15   H5    S    
C10   C34   A    
C3    C10   A    
C27   N2    A    
C13   C14   A    
C6    H12   S    
C31   O8    A    
C11   C13   A    
C25   H10   S    
C23   O6    A    
C26   C27   A    
C29   C30   A    
C10   C12   S    
C7    H18   S    
C9    C33   A    
C5    C6    A    
C29   N1    A    
C23   O5    A    
C22   H8    S    
Cu1   Cu2   S    
C8    F1    S    
C6    C7    A    
C3    C7    A    
C8    C33   A    
C21   C23   S    
Cu1   O7    S    
C11   H2    S    
C22   C24   A    
C26   H11   S    
Cu1   O1    S    
C36   H16   S    
C35   H17   S    
C15   C16   A    
Cu2   O8    S    
C9    H1    S    
Cu1   O5    S    
C18   C19   A    
C20   C21   A    
C34   H15   S    
C17   C18   A    
C34   C35   A    
C1    O1    A    
C2    C36   A    
C27   C28   A    
C12   O4    A    
Cu1   O3    S    
C14   C15   A    
C32   H14   S    
C22   C28   A    
C9    C32   A    
C20   H6    S    
C25   C26   A    
Cu2   O4    S    
C24   H9    S    
Cu2   N1    S    
C19   H19   S    
C11   C17   A    
Cu1   N2    S    
C19   C20   A    
C16   C17   A    
C29   H7    S    
C4    C5    A    
C1    O2    A    
