data_mof_unit_52022.cif
_audit_creation_date              2012-12-11T17:43:27-0500
_audit_creation_method            fapswitch 2.2
_symmetry_space_group_name_H-M    P1
_symmetry_Int_Tables_number       1
_space_group_crystal_system       triclinic
_cell_length_a                    15.052476
_cell_length_b                    14.961657
_cell_length_c                    16.909573
_cell_angle_alpha                 108.720413
_cell_angle_beta                  106.317496
_cell_angle_gamma                 109.049982
_cell_volume                      3076.5384783

loop_
_atom_site_label
_atom_site_type_symbol
_atom_type_description
_atom_site_fract_x
_atom_site_fract_y
_atom_site_fract_z
_atom_type_partial_charge
C1    C     C_R   0.091479 0.277578 0.022487 -0.121097
C2    C     C_R   0.103007 0.072656 0.952781 -0.231001
C3    C     C_R   0.010122 0.888512 0.916770 0.054836
C4    C     C_R   0.008041 0.075614 0.921096 0.054358
C5    C     C_R   0.105235 0.978141 0.946084 0.029554
C6    C     C_R   0.915906 0.978170 0.863524 0.029793
C7    C     C_R   0.834594 0.016814 0.735812 -0.140511
C8    C     C_R   0.295193 0.050399 0.046792 -0.180037
C9    C     C_R   0.647468 0.934817 0.649009 -0.087910
C10   C     C_R   0.395919 0.966399 0.996917 -0.097585
C11   C     C_R   0.500509 0.708164 0.356558 -0.117090
C12   C     C_R   0.916035 0.711695 0.919009 -0.139412
C13   C     C_R   0.504521 0.409374 0.726067 -0.126039
C14   C     C_R   0.507502 0.690431 0.272653 -0.135358
C15   C     C_R   0.517680 0.434758 0.817000 -0.116165
C16   C     C_R   0.935862 0.450640 0.734675 -0.132220
C17   C     C_R   0.064497 0.480425 0.253353 -0.144402
C18   C     C_R   0.531277 0.609299 0.230301 0.117091
C19   C     C_R   0.549556 0.539752 0.879304 0.114624
C20   C     C_R   0.548985 0.547218 0.274221 -0.170746
C21   C     C_R   0.567370 0.618640 0.849280 -0.192938
C22   C     C_R   0.542135 0.565447 0.358282 -0.106145
C23   C     C_R   0.028086 0.464465 0.725596 0.068710
C24   C     C_R   0.555805 0.593092 0.758678 -0.123741
C25   C     C_R   0.517866 0.645763 0.399370 -0.093079
C26   C     C_R   0.524231 0.488433 0.697046 -0.109233
C27   C     C_R   0.621107 0.576270 0.128228 -0.242544
C28   C     C_R   0.476840 0.582746 0.987618 -0.235904
C29   C     C_R   0.628284 0.560805 0.044399 0.069838
C30   C     C_R   0.462832 0.587101 0.066527 0.058331
C31   C     C_R   0.556053 0.565862 0.973777 0.014982
C32   C     C_R   0.537774 0.590067 0.140627 0.022107
C33   C     C_R   0.747398 0.000749 0.664477 -0.093284
C34   C     C_R   0.973624 0.420144 0.255429 0.079763
C35   C     C_R   0.389587 0.045773 0.063145 -0.112538
C36   C     C_R   0.966083 0.378026 0.322131 0.106897
C37   C     C_R   0.037394 0.418898 0.639155 0.116271
C38   C     C_R   0.143023 0.436378 0.554710 0.008410
C39   C     C_R   0.861017 0.300491 0.391125 0.017744
C40   C     C_R   0.720250 0.214712 0.823254 -0.124692
C41   C     C_R   0.223696 0.797915 0.187575 -0.134725
C42   C     C_R   0.135284 0.450896 0.637746 -0.229833
C43   C     C_R   0.868561 0.319549 0.317018 -0.220744
C44   C     C_R   0.947367 0.355022 0.555649 -0.275236
C45   C     C_R   0.664294 0.217373 0.744422 0.064922
C46   C     C_R   0.056818 0.404619 0.396330 -0.273557
C47   C     C_R   0.952753 0.344993 0.472492 0.124658
C48   C     C_R   0.051556 0.391980 0.473258 0.142628
C49   C     C_R   0.555566 0.144316 0.677686 0.131759
C50   C     C_R   0.280806 0.899944 0.360491 0.132885
C51   C     C_R   0.387574 0.090030 0.445147 -0.235109
C52   C     C_R   0.406145 0.972066 0.607928 -0.244760
C53   C     C_R   0.318202 0.000009 0.362104 -0.170875
C54   C     C_R   0.498578 0.052915 0.683209 -0.178415
C55   C     C_R   0.297898 0.893292 0.443916 -0.291317
C56   C     C_R   0.240093 0.803738 0.274426 0.053926
C57   C     C_R   0.511703 0.160346 0.601884 -0.314717
C58   C     C_R   0.371475 0.982169 0.526836 0.192767
C59   C     C_R   0.421102 0.079512 0.525987 0.197816
C60   C     C_R   0.634365 0.886786 0.706210 -0.136532
C61   C     C_R   0.307979 0.891699 0.913986 -0.122613
C62   C     C_R   0.721313 0.902880 0.777919 -0.177631
C63   C     C_R   0.213462 0.896075 0.897187 -0.143842
C64   C     C_R   0.300684 0.599471 0.006560 -0.155555
C65   C     C_R   0.737144 0.463268 0.047534 -0.138161
C66   C     C_R   0.822528 0.967443 0.792961 0.113515
C67   C     C_R   0.359819 0.568098 0.057654 0.059756
C68   C     C_R   0.206029 0.974896 0.963920 0.112185
C69   C     C_R   0.726439 0.310545 0.746790 -0.146703
C70   C     C_R   0.217894 0.702301 0.265442 -0.127735
C71   C     C_R   0.296553 0.501436 0.081028 -0.129134
C72   C     C_R   0.752910 0.565472 0.975161 -0.108666
C73   C     C_R   0.109693 0.535659 0.812513 -0.134819
C74   C     C_R   0.891922 0.396965 0.176539 -0.140066
C75   C     C_R   0.917418 0.192973 0.948295 -0.132074
C76   C     C_R   0.087379 0.796581 0.999722 -0.145539
C77   C     C_R   0.005900 0.178402 0.959086 0.053291
C78   C     C_R   0.708915 0.536831 0.029602 0.046208
C79   C     C_R   0.004756 0.803421 0.945118 0.063749
C80   C     C_R   0.916973 0.886425 0.867017 -0.231375
H1    H     H_    0.172805 0.296571 0.048974 0.092861
H2    H     H_    0.501470 0.372644 0.838469 0.114368
H3    H     H_    0.566715 0.483847 0.242916 0.107438
H4    H     H_    0.590462 0.699704 0.896171 0.113129
H5    H     H_    0.555404 0.517059 0.391485 0.104838
H6    H     H_    0.570266 0.654160 0.735982 0.106242
H7    H     H_    0.679882 0.576684 0.183111 0.131896
H8    H     H_    0.418448 0.579271 0.930125 0.129321
H9    H     H_    0.132252 0.445153 0.398931 0.133502
H10   H     H_    0.872030 0.323720 0.556059 0.132184
H11   H     H_    0.797654 0.293520 0.258034 0.111126
H12   H     H_    0.838834 0.683207 0.867029 0.096056
H13   H     H_    0.206326 0.493915 0.701046 0.119520
H14   H     H_    0.857148 0.401135 0.681590 0.095920
H15   H     H_    0.143030 0.499860 0.296110 0.088426
H16   H     H_    0.757339 0.038474 0.620477 0.111737
H17   H     H_    0.457790 0.103550 0.127338 0.101804
H18   H     H_    0.552384 0.230889 0.596604 0.116663
H19   H     H_    0.264542 0.817582 0.444265 0.120447
H20   H     H_    0.528541 0.039720 0.742165 0.122695
H21   H     H_    0.301897 0.008699 0.299324 0.116338
H22   H     H_    0.422916 0.165405 0.444448 0.124072
H23   H     H_    0.911553 0.066210 0.745411 0.116556
H24   H     H_    0.367537 0.898420 0.610182 0.127424
H25   H     H_    0.580191 0.921066 0.592702 0.114362
H26   H     H_    0.468996 0.962821 0.009840 0.097678
H27   H     H_    0.556768 0.836461 0.694581 0.103295
H28   H     H_    0.313007 0.830306 0.862737 0.104767
H29   H     H_    0.709573 0.864749 0.821361 0.105458
H30   H     H_    0.145870 0.837604 0.832666 0.117069
H31   H     H_    0.690443 0.162003 0.850956 0.088633
H32   H     H_    0.233870 0.861693 0.168964 0.096102
H33   H     H_    0.327844 0.661178 0.986304 0.095106
H34   H     H_    0.291210 0.111634 0.099204 0.109844
H35   H     H_    0.714210 0.422750 0.086497 0.099312
H36   H     H_    0.703329 0.347808 0.705298 0.093807
H37   H     H_    0.222805 0.676732 0.318594 0.095232
H38   H     H_    0.320053 0.469413 0.127512 0.104383
H39   H     H_    0.749501 0.622865 0.950450 0.113133
H40   H     H_    0.192005 0.564358 0.831647 0.093107
H41   H     H_    0.811539 0.339329 0.148418 0.084424
H42   H     H_    0.837037 0.134246 0.908891 0.115431
H43   H     H_    0.169042 0.846748 0.025848 0.118849
H44   H     H_    0.844915 0.813516 0.830494 0.120789
H45   H     H_    0.512591 0.659706 0.464410 0.101737
H46   H     H_    0.175846 0.143884 0.983639 0.122998
H47   H     H_    0.283110 0.437907 0.581245 0.120626
H48   H     H_    0.285370 0.556790 0.600364 0.098676
H49   H     H_    0.700950 0.222843 0.324196 0.095839
H50   H     H_    0.755553 0.174259 0.389118 0.104689
H51   H     H_    0.514028 0.468381 0.626567 0.099305
H52   H     H_    0.481812 0.770447 0.388469 0.110546
H53   H     H_    0.477533 0.328164 0.677742 0.122716
H54   H     H_    0.494623 0.740178 0.240860 0.112332
N1    N     N_R   0.055660 0.348550 0.045620 -0.041175
N2    N     N_R   0.185200 0.638170 0.176300 -0.038810
N3    N     N_R   0.201680 0.494570 0.045620 -0.040702
N4    N     N_R   0.798320 0.505430 0.954380 -0.041408
N5    N     N_R   0.068420 0.560530 0.871650 -0.039674
N6    N     N_R   0.931580 0.439470 0.128350 -0.038020
N7    N     N_R   0.948070 0.295860 0.997670 -0.043099
N8    N     N_R   0.051930 0.704140 0.002330 -0.040009
N9    N     N_3   0.243779 0.475499 0.555018 -0.226925
N10   N     N_3   0.760551 0.244833 0.387207 -0.221741
N11   N     N_R   0.944340 0.651450 0.954380 -0.039935
N12   N     N_R   0.960830 0.507850 0.823700 -0.040551
N13   N     N_R   0.039170 0.492150 0.176300 -0.038312
N14   N     N_R   0.811290 0.303410 0.871650 -0.041074
N15   N     N_R   0.188710 0.696590 0.128350 -0.039580
N16   N     N_R   0.205200 0.552990 0.997670 -0.037120
N17   N     N_R   0.794800 0.447010 0.002330 -0.041021
N18   N     N_R   0.814800 0.361830 0.823700 -0.038913
Ni1   Ni    Ni4+2 0.119340 0.493420 0.109960 0.214810
Ni2   Ni    Ni4+2 0.880660 0.506580 0.890040 0.215708
Ni3   Ni    Ni4+2 0.872590 0.372590 0.000000 0.208488
Ni4   Ni    Ni4+2 0.127410 0.627410 0.000000 0.214284

loop_
_geom_bond_atom_site_label_1
_geom_bond_atom_site_label_2
_ccdc_geom_bond_type
C9    C33   A    
N5    N12   A    
C27   C29   A    
C75   H42   S    
C1    C77   A    
C38   N9    S    
C14   C18   A    
C76   C79   A    
C19   C31   S    
C11   H52   S    
N2    N15   A    
C71   N3    A    
H49   N10   S    
C51   H22   S    
C15   C19   A    
C16   N12   A    
C17   N13   A    
N15   Ni4   S    
C24   C26   A    
C38   C42   A    
C11   C14   A    
C57   C59   A    
C41   N15   A    
C11   C25   A    
C70   H37   S    
C9    H25   S    
C49   C54   A    
C42   H13   S    
C12   C79   A    
C49   C57   A    
C60   C62   A    
C22   H5    S    
C37   C42   A    
C61   C63   A    
C61   H28   S    
C25   H45   S    
C72   C78   A    
C75   N7    A    
C29   C78   S    
C53   H21   S    
C69   N18   A    
C22   C25   A    
C28   H8    S    
C36   C46   A    
C10   C35   A    
C17   H15   S    
N14   Ni3   S    
N17   Ni3   S    
C40   H31   S    
H50   N10   S    
C18   C20   A    
C30   C67   S    
C44   C47   A    
C8    H34   S    
N4    Ni2   S    
C72   N4    A    
C3    C79   S    
C73   H40   S    
C7    H23   S    
C70   N2    A    
C7    C33   A    
N8    N11   A    
C54   H20   S    
C13   H53   S    
C23   C73   A    
C5    C68   S    
N13   Ni1   S    
C3    C80   A    
N6    N13   A    
C52   C54   A    
C15   H2    S    
C40   C45   A    
C46   C48   A    
C50   C53   A    
C62   C66   A    
N1    N7    A    
C45   C69   A    
C64   C67   A    
C4    C6    A    
C46   H9    S    
C40   N14   A    
N7    Ni3   S    
C39   C43   A    
C14   H54   S    
C58   C59   A    
C23   C37   S    
C74   N6    A    
C41   H32   S    
C50   C56   S    
C64   N16   A    
C51   C53   A    
C8    C35   A    
C12   N11   A    
C65   N17   A    
C2    C4    A    
C41   C56   A    
C6    C80   A    
C47   C48   A    
N12   Ni2   S    
C21   H4    S    
C45   C49   S    
N3    Ni1   S    
H47   N9    S    
C27   H7    S    
C75   C77   A    
C60   H27   S    
C52   C58   A    
C34   C74   A    
N11   Ni2   S    
C2    H46   S    
N18   Ni2   S    
C8    C68   A    
C16   C23   A    
C56   C70   A    
C13   C15   A    
C13   C26   A    
C10   H26   S    
C10   C61   A    
C18   C32   S    
C17   C34   A    
C21   C24   A    
C33   H16   S    
C44   H10   S    
C39   C47   A    
C80   H44   S    
C63   C68   A    
C52   H24   S    
C64   H33   S    
C71   H38   S    
C19   C21   A    
C27   C32   A    
C76   H43   S    
C38   C48   A    
C12   H12   S    
C28   C31   A    
N14   N18   A    
C69   H36   S    
C20   C22   A    
C3    C5    A    
N4    N17   A    
C73   N5    A    
C16   H14   S    
C50   C55   A    
N1    Ni1   S    
C65   C78   A    
C9    C60   A    
C37   C44   A    
C28   C30   A    
C65   H35   S    
C4    C77   S    
C29   C31   A    
C1    N1    A    
C7    C66   A    
C30   C32   A    
N2    Ni1   S    
C55   C58   A    
C62   H29   S    
C24   H6    S    
N5    Ni4   S    
C63   H30   S    
C57   H18   S    
C72   H39   S    
C34   C36   S    
C67   C71   A    
N3    N16   A    
H48   N9    S    
C43   H11   S    
N6    Ni3   S    
C2    C5    A    
C6    C66   S    
C74   H41   S    
C51   C59   A    
C39   N10   S    
C20   H3    S    
C55   H19   S    
C36   C43   A    
N16   Ni4   S    
N8    Ni4   S    
C35   H17   S    
C1    H1    S    
C26   H51   S    
C76   N8    A    
