data_mof_unit_11658.cif
_audit_creation_date              2012-12-11T17:19:09-0500
_audit_creation_method            fapswitch 2.2
_symmetry_space_group_name_H-M    P1
_symmetry_Int_Tables_number       1
_space_group_crystal_system       triclinic
_cell_length_a                    14.970467
_cell_length_b                    7.258872
_cell_length_c                    13.189288
_cell_angle_alpha                 91.256384
_cell_angle_beta                  100.04894
_cell_angle_gamma                 89.002521
_cell_volume                      1410.80165467

loop_
_atom_site_label
_atom_site_type_symbol
_atom_type_description
_atom_site_fract_x
_atom_site_fract_y
_atom_site_fract_z
_atom_type_partial_charge
O1    O     O_R   0.648180 0.355050 0.151550 -0.538933
O2    O     O_R   0.351820 0.644950 0.848450 -0.538960
O3    O     O_R   0.851820 0.855050 0.348450 -0.533497
O4    O     O_R   0.148180 0.144950 0.651550 -0.533295
O5    O     O_R   0.835240 0.681980 0.154280 -0.528608
O6    O     O_R   0.164760 0.318020 0.845720 -0.528617
O7    O     O_R   0.664760 0.181980 0.345720 -0.551427
O8    O     O_R   0.335240 0.818020 0.654280 -0.551385
H1    H     H_    0.649549 0.841989 0.837259 0.145344
H2    H     H_    0.350571 0.157645 0.162580 0.145351
H3    H     H_    0.850437 0.563839 0.651800 0.137017
H4    H     H_    0.149552 0.436297 0.348222 0.137285
C1    C     C_R   0.858998 0.512671 0.127506 0.665240
C2    C     C_R   0.141000 0.487329 0.872493 0.665270
C3    C     C_R   0.640654 0.018570 0.372476 0.668293
C4    C     C_R   0.359375 0.981430 0.627545 0.668481
O9    O     O_R   0.647870 0.684600 0.139630 -0.536505
O10   O     O_R   0.352130 0.315400 0.860370 -0.536504
O11   O     O_R   0.852130 0.184600 0.360370 -0.542394
O12   O     O_R   0.147870 0.815400 0.639630 -0.542633
O13   O     O_R   0.663110 0.857440 0.333700 -0.524825
O14   O     O_R   0.336890 0.142560 0.666300 -0.524783
O15   O     O_R   0.836890 0.357440 0.166300 -0.548154
O16   O     O_R   0.163110 0.642560 0.833700 -0.548205
C5    C     C_R   0.614575 0.516209 0.113885 0.735689
C6    C     C_R   0.385428 0.483790 0.886110 0.735662
C7    C     C_R   0.885454 0.016158 0.386211 0.737823
C8    C     C_R   0.114502 0.983837 0.613851 0.738157
H5    H     H_    0.493526 0.871425 0.755017 0.126105
H6    H     H_    0.506553 0.128067 0.244870 0.126120
H7    H     H_    0.006297 0.559285 0.736516 0.123346
H8    H     H_    0.993697 0.440821 0.263496 0.123450
O17   O     O_3   0.755220 0.522230 0.313690 -0.378841
O18   O     O_3   0.244780 0.477770 0.686310 -0.378787
O19   O     O_3   0.744780 0.022230 0.186310 -0.380151
O20   O     O_3   0.255220 0.977770 0.813690 -0.380208
V1    V     V_3+5 0.749030 0.796100 0.238190 1.450210
V2    V     V_3+5 0.250970 0.203900 0.761810 1.450506
V3    V     V_3+5 0.750970 0.296100 0.261810 1.410377
V4    V     V_3+5 0.249030 0.703900 0.738190 1.410173
C9    C     C_1   0.966336 0.005528 0.466416 -0.071351
C10   C     C_1   0.033570 0.994462 0.533709 -0.071023
C11   C     C_1   0.533633 0.505595 0.033658 -0.071543
C12   C     C_1   0.466373 0.494403 0.966333 -0.071531
H9    H     H_    0.228430 0.064735 0.248727 0.164063
H10   H     H_    0.771624 0.935688 0.751201 0.164056
H11   H     H_    0.270961 0.506063 0.255592 0.161480
H12   H     H_    0.729037 0.493956 0.744425 0.161397
C13   C     C_R   0.544551 0.904242 0.709763 -0.120676
C14   C     C_R   0.455510 0.095488 0.290147 -0.120601
C15   C     C_R   0.955412 0.538320 0.783901 -0.115739
C16   C     C_R   0.044584 0.461757 0.216111 -0.115738
C17   C     C_R   0.633949 0.886342 0.758181 -0.150592
C18   C     C_R   0.366136 0.113475 0.241697 -0.150507
C19   C     C_R   0.866101 0.541726 0.733974 -0.139625
C20   C     C_R   0.133892 0.458370 0.266045 -0.140113
C21   C     C_R   0.703122 0.936074 0.707796 -0.092964
C22   C     C_R   0.296933 0.064172 0.292127 -0.093111
C23   C     C_R   0.797263 0.505738 0.787782 -0.095176
C24   C     C_R   0.202734 0.494296 0.212233 -0.095670
C25   C     C_R   0.684351 0.998950 0.606204 -0.004862
C26   C     C_R   0.315643 0.001585 0.393784 -0.004531
C27   C     C_R   0.816138 0.471774 0.893888 -0.011462
C28   C     C_R   0.183867 0.528202 0.106120 -0.011302
C29   C     C_R   0.593323 0.992642 0.549509 -0.022296
C30   C     C_R   0.406682 0.007518 0.450469 -0.022246
C31   C     C_R   0.906809 0.493170 0.949932 -0.023306
C32   C     C_R   0.093195 0.506831 0.050074 -0.023269
C33   C     C_R   0.521961 0.958839 0.605830 0.087317
C34   C     C_R   0.478061 0.041107 0.394126 0.087297
C35   C     C_R   0.978066 0.512471 0.891588 0.086410
C36   C     C_R   0.021936 0.487557 0.108420 0.086413
C37   C     C_R   0.570587 0.021004 0.440916 -0.173364
C38   C     C_R   0.429424 0.979023 0.559066 -0.173414
C39   C     C_R   0.929391 0.493672 0.060008 -0.171190
C40   C     C_R   0.070611 0.506332 0.939997 -0.171209
C41   C     C_2   0.758434 0.099379 0.571483 0.283350
H13   H     H_    0.743580 0.211275 0.518383 0.079270
O21   O     O_2   0.837612 0.067565 0.608522 -0.552190
C42   C     C_2   0.241347 0.902173 0.428654 0.283457
H14   H     H_    0.255929 0.789969 0.481592 0.078950
O22   O     O_2   0.162228 0.935402 0.391972 -0.552367
C43   C     C_2   0.742685 0.383713 0.936509 0.282701
H15   H     H_    0.758173 0.286320 0.997919 0.089391
O23   O     O_2   0.663345 0.408174 0.897533 -0.553860
C44   C     C_2   0.257342 0.616148 0.063490 0.282581
H16   H     H_    0.241882 0.713534 0.002074 0.089365
O24   O     O_2   0.336675 0.591599 0.102466 -0.553853

loop_
_geom_bond_atom_site_label_1
_geom_bond_atom_site_label_2
_ccdc_geom_bond_type
C22   C26   A    
O5    V1    S    
C9    C10   T    
O10   C6    A    
C5    C11   S    
C6    C12   S    
H5    C13   S    
C41   H13   S    
C14   C18   A    
C4    C38   S    
C28   C32   A    
C26   C42   S    
O19   V1    S    
C19   C23   A    
C35   C40   A    
O12   V4    S    
C44   O24   D    
C31   C35   A    
C30   C38   A    
C29   C37   A    
C1    O15   A    
C2    O16   A    
H8    C16   S    
H11   C24   S    
O17   V3    S    
C1    C39   S    
C25   C41   S    
O6    V2    S    
O11   C7    A    
O5    C1    A    
O7    C3    A    
H6    C14   S    
O8    C4    A    
C13   C33   A    
O1    C5    A    
C15   C35   A    
C36   C39   A    
C28   C44   S    
O4    C8    A    
C41   O21   D    
C27   C31   A    
H9    C22   S    
C26   C30   A    
C42   O22   D    
C17   C21   A    
C44   H16   S    
O12   C8    A    
C20   C24   A    
C27   C43   S    
C2    C40   S    
C11   C12   T    
C16   C36   A    
C25   C29   A    
O6    C2    A    
C7    C9    S    
C43   H15   S    
C32   C36   A    
C34   C37   A    
O13   V1    S    
C33   C38   A    
O2    C6    A    
O9    V1    S    
H4    C20   S    
O11   V3    S    
C3    C37   S    
O4    V2    S    
H10   C21   S    
O18   V4    S    
C31   C39   A    
H3    C19   S    
H12   C23   S    
C18   C22   A    
C29   C33   A    
C4    O14   A    
C8    C10   S    
C43   O23   D    
H7    C15   S    
C42   H14   S    
C21   C25   A    
C32   C40   A    
C23   C27   A    
C24   C28   A    
O9    C5    A    
O3    C7    A    
O10   V2    S    
C30   C34   A    
C13   C17   A    
O20   V2    S    
O16   V4    S    
C15   C19   A    
C14   C34   A    
H2    C18   S    
O1    V3    S    
O2    V4    S    
C3    O13   A    
H1    C17   S    
O3    V1    S    
O7    V3    S    
O8    V4    S    
O15   V3    S    
C16   C20   A    
O14   V2    S    
