data_mof_unit_63127.cif
_audit_creation_date              2012-12-10T18:40:31-0500
_audit_creation_method            fapswitch 2.2
_symmetry_space_group_name_H-M    P1
_symmetry_Int_Tables_number       1
_space_group_crystal_system       triclinic
_cell_length_a                    10.775111
_cell_length_b                    11.575157
_cell_length_c                    16.707061
_cell_angle_alpha                 89.992163
_cell_angle_beta                  84.191358
_cell_angle_gamma                 90.031912
_cell_volume                      2073.06527395

loop_
_atom_site_label
_atom_site_type_symbol
_atom_type_description
_atom_site_fract_x
_atom_site_fract_y
_atom_site_fract_z
_atom_type_partial_charge
C1    C     C_R   0.500019 0.718847 0.500006 0.912679
C2    C     C_R   0.499976 0.281149 0.499984 0.917297
C3    C     C_1   0.500037 0.838953 0.500018 -0.157696
C4    C     C_1   0.499931 0.161027 0.499981 -0.163167
C5    C     C_1   0.499996 0.940833 0.500013 0.024007
C6    C     C_1   0.499945 0.059142 0.499992 0.023151
C7    C     C_1   0.930248 0.500008 0.500007 0.073836
C8    C     C_1   0.069751 0.500012 0.500002 0.081655
C9    C     C_R   0.481602 0.504485 0.653981 0.893854
C10   C     C_R   0.518421 0.501835 0.345941 0.904642
C11   C     C_R   0.468983 0.529046 0.739915 -0.111578
C12   C     C_R   0.533548 0.534744 0.261645 -0.102710
C13   C     C_R   0.565561 0.493926 0.784401 -0.235031
C14   C     C_R   0.451676 0.617934 0.236052 -0.239805
C15   C     C_R   0.567306 0.529303 0.863369 -0.128984
C16   C     C_R   0.470229 0.662365 0.158824 -0.138851
C17   C     C_R   0.472783 0.601578 0.898922 0.135419
C18   C     C_R   0.569706 0.622345 0.105709 0.137438
C19   C     C_R   0.373341 0.632927 0.856152 -0.188262
C20   C     C_R   0.654494 0.542644 0.131784 -0.184828
C21   C     C_R   0.370833 0.598333 0.776565 0.263717
C22   C     C_R   0.636938 0.498062 0.209479 0.262181
C23   C     C_2   0.469716 0.634997 0.983348 -0.198007
C24   C     C_2   0.574342 0.645231 0.019643 -0.205122
H1    H     H_    0.640934 0.440134 0.757603 0.172732
H2    H     H_    0.374406 0.650313 0.276382 0.172647
H3    H     H_    0.664900 0.643678 0.984542 0.158517
H4    H     H_    0.378834 0.635712 0.018092 0.159518
H5    H     H_    0.298784 0.686485 0.884287 0.166820
H6    H     H_    0.730363 0.510233 0.090316 0.162011
H7    H     H_    0.405006 0.725457 0.139867 0.148384
H8    H     H_    0.641765 0.498372 0.896634 0.145173
N1    N     N_1   0.819370 0.500000 0.500010 -0.066367
N2    N     N_1   0.180630 0.500000 0.499990 -0.061887
O1    O     O_R   0.397470 0.665550 0.500010 -0.593801
O2    O     O_R   0.602530 0.334450 0.499990 -0.597669
O3    O     O_R   0.602530 0.665550 0.499990 -0.610711
O4    O     O_R   0.397470 0.334450 0.500010 -0.608244
O5    O     O_R   0.385350 0.500000 0.615800 -0.568567
O6    O     O_R   0.614650 0.500000 0.384200 -0.573387
O7    O     O_R   0.590410 0.500000 0.615800 -0.619437
O8    O     O_R   0.409590 0.500000 0.384200 -0.622027
Zn1   Zn    Zn3+2 0.363080 0.500000 0.500000 1.024758
Zn2   Zn    Zn3+2 0.636920 0.500000 0.500000 1.021830
Br1   Br    Br    0.751702 0.382402 0.239046 -0.493737
Br2   Br    Br    0.235978 0.657186 0.721296 -0.492390

loop_
_geom_bond_atom_site_label_1
_geom_bond_atom_site_label_2
_ccdc_geom_bond_type
C2    C4    S    
C23   C24   D    
C10   O8    A    
O1    Zn1   S    
C2    O4    A    
C9    O7    A    
C24   H3    S    
C1    O3    A    
C9    C11   S    
O3    Zn2   S    
O4    Zn1   S    
C20   H6    S    
C23   H4    S    
C14   H2    S    
C16   H7    S    
C11   C13   A    
C13   H1    S    
C17   C23   S    
C10   C12   S    
C18   C24   S    
C16   C18   A    
C19   C21   A    
C12   C14   A    
C18   C20   A    
C13   C15   A    
C5    C6    S    
O7    Zn2   S    
C14   C16   A    
O2    Zn2   S    
C7    C8    S    
O8    Zn1   S    
C7    N1    T    
C19   H5    S    
C12   C22   A    
O6    Zn2   S    
C22   Br1   S    
C1    O1    A    
C4    C6    T    
C21   Br2   S    
C2    O2    A    
C1    C3    S    
C15   C17   A    
C10   O6    A    
O5    Zn1   S    
C17   C19   A    
C8    N2    T    
N1    Zn2   S    
C11   C21   A    
C9    O5    A    
N2    Zn1   S    
C20   C22   A    
C3    C5    T    
C15   H8    S    
