data_mof_unit_66817.cif
_audit_creation_date              2013-03-05T15:41:27-0500
_audit_creation_method            fapswitch 2.2
_symmetry_space_group_name_H-M    P1
_symmetry_Int_Tables_number       1
_space_group_crystal_system       triclinic
_cell_length_a                    8.370172
_cell_length_b                    14.970896
_cell_length_c                    15.167605
_cell_angle_alpha                 97.203409
_cell_angle_beta                  99.636733
_cell_angle_gamma                 98.437656
_cell_volume                      1831.49138559

loop_
_atom_site_label
_atom_site_type_symbol
_atom_site_description
_atom_site_fract_x
_atom_site_fract_y
_atom_site_fract_z
_atom_type_partial_charge
P1    P     P_3+3 0.004160 0.709210 0.580280 0.511643
O1    O     O_2   0.174040 0.723040 0.553850 -0.363037
O2    O     O_3   0.901550 0.609570 0.550800 -0.373895
O3    O     O_3   0.370320 0.665070 0.388210 -0.380535
O4    O     O_2   0.294983 0.823509 0.453172 -0.318867
O5    O     O_3   0.028205 0.727926 0.699196 -0.582048
O6    O     O_3   0.346366 0.806095 0.288014 -0.444310
H1    H     H_    0.509157 0.718793 0.252462 0.026916
C1    C     C_3   0.359151 0.748764 0.135514 -0.707750
H2    H     H_    0.256755 0.691721 0.132994 0.279871
H3    H     H_    0.309194 0.807072 0.109406 0.273520
P2    P     P_3+3 0.305010 0.425580 0.290930 0.555998
P3    P     P_3+3 0.878311 0.612471 0.224191 0.556421
O7    O     O_2   0.134800 0.452800 0.278160 -0.272909
O8    O     O_3   0.937630 0.618610 0.340820 -0.339811
O9    O     O_2   0.963371 0.536955 0.185642 -0.235173
O10   O     O_3   0.250909 0.306438 0.264390 -0.545627
O11   O     O_3   0.977447 0.709360 0.188289 -0.551859
C2    C     C_3   0.888313 0.782118 0.195708 0.820486
H4    H     H_    0.789287 0.769600 0.235492 -0.160726
C3    C     C_3   0.810465 0.796194 0.100148 -0.537148
H5    H     H_    0.908246 0.811449 0.060055 0.261852
H6    H     H_    0.728845 0.731775 0.065544 0.178381
C4    C     C_3   0.688697 0.252666 0.233121 1.102453
C5    C     C_3   0.520987 0.206502 0.244125 -1.140335
H7    H     H_    0.488090 0.241936 0.303534 0.270264
H8    H     H_    0.426509 0.209663 0.185250 0.259292
H9    H     H_    0.520300 0.133618 0.251057 0.258351
Ba1   Ba    Ba6+2 0.154720 0.543770 0.458160 1.688532
C6    C     C_3   0.189158 0.730494 0.745948 0.660401
H10   H     H_    0.266410 0.699945 0.702644 0.022384
C7    C     C_3   0.266351 0.829777 0.785481 -0.162313
H11   H     H_    0.398130 0.834417 0.815668 0.102584
H12   H     H_    0.203264 0.853128 0.840892 0.183049
C8    C     C_3   0.206221 0.270068 0.339526 0.362166
H13   H     H_    0.101902 0.299289 0.358958 0.120766
H14   H     H_    0.309501 0.287475 0.398648 0.074839
C9    C     C_3   0.162262 0.164955 0.318693 -0.420761
H15   H     H_    0.118081 0.140346 0.377321 0.138942
H16   H     H_    0.271979 0.132864 0.313406 0.193196
P4    P     P_3+3 0.806120 0.290780 0.419650 0.490555
O12   O     O_2   0.636250 0.276900 0.446120 -0.406479
O13   O     O_3   0.908740 0.390420 0.449120 -0.344880
O14   O     O_3   0.439970 0.334920 0.611710 -0.391781
O15   O     O_3   0.812075 0.246560 0.306070 -0.647550
P5    P     P_3+3 0.928670 0.389323 0.776891 0.517719
O16   O     O_3   0.402050 0.547860 0.609740 -0.410275
O17   O     O_3   0.872650 0.381380 0.659100 -0.385969
O18   O     O_2   0.843634 0.464229 0.819011 -0.276836
O19   O     O_3   0.834563 0.292634 0.813848 -0.548971
Ba2   Ba    Ba6+2 0.655440 0.456220 0.541760 1.635294
P6    P     P_3+3 0.413033 0.783417 0.397069 0.514906
C10   C     C_3   0.453481 0.777885 0.232213 0.341729
H17   H     H_    0.552766 0.836398 0.234377 0.081803
H18   H     H_    0.441938 0.724437 0.091383 0.199229
O20   O     O_3   0.408230 0.452130 0.390190 -0.415325
C11   C     C_3   0.630897 0.737471 0.691616 0.262141
H19   H     H_    0.722522 0.697797 0.669507 0.134158
H20   H     H_    0.538149 0.741575 0.631205 0.054813
C12   C     C_3   0.719680 0.834236 0.733301 -0.100991
H21   H     H_    0.786840 0.863377 0.683480 0.091506
H22   H     H_    0.627724 0.877590 0.747016 0.128774
P7    P     P_3+3 0.505228 0.579339 0.722860 0.489272
O21   O     O_2   0.675480 0.547140 0.721810 -0.302914
O22   O     O_3   0.551329 0.697897 0.755172 -0.560180
C13   C     C_3   0.906696 0.216174 0.790232 0.639036
H23   H     H_    0.027031 0.233670 0.769237 -0.039206
C14   C     C_3   0.938306 0.170433 0.875006 -0.877475
H24   H     H_    0.821235 0.138293 0.891395 0.258305
H25   H     H_    0.016281 0.117501 0.865146 0.239045
H26   H     H_    0.002609 0.222490 0.933632 0.264772
P8    P     P_3+3 0.389729 0.216863 0.602116 0.458581
C15   C     C_3   0.427135 0.247003 0.774456 0.275508
H27   H     H_    0.295979 0.255286 0.759831 -0.009637
O23   O     O_2   0.491068 0.174204 0.537224 -0.390554
O24   O     O_3   0.463666 0.185292 0.706090 -0.498241
H28   H     H_    0.506369 0.314898 0.780782 0.111722
C16   C     C_3   0.459961 0.211090 0.864630 -0.061539
H29   H     H_    0.594935 0.214686 0.884848 0.203479
C17   C     C_R   0.632299 0.828452 0.447649 0.131201
H30   H     H_    0.667797 0.695675 0.479728 0.166966
H31   H     H_    0.488248 0.964299 0.383689 0.187360
C18   C     C_R   0.890332 0.792522 0.523431 0.260998
C19   C     C_R   0.069335 0.238061 0.532076 -0.535076
C20   C     C_R   0.169466 0.176031 0.559913 0.225034
C21   C     C_R   0.107603 0.082648 0.547794 -0.277863
C22   C     C_R   0.943182 0.047446 0.505079 0.059609
C23   C     C_R   0.844397 0.110981 0.471055 -0.019803
C24   C     C_R   0.873781 0.951360 0.495305 0.095236
C25   C     C_R   0.705666 0.921357 0.453491 0.015337
C26   C     C_R   0.615058 0.984468 0.417606 -0.187645
C27   C     C_R   0.683748 0.075931 0.424576 -0.094034
C28   C     C_R   0.964432 0.884131 0.526859 -0.162683
C29   C     C_R   0.725482 0.765799 0.482469 -0.500584
C30   C     C_R   0.909175 0.207580 0.483950 0.263033
H32   H     H_    0.093408 0.900770 0.553506 0.211046
H33   H     H_    0.122038 0.309719 0.540094 0.168908
H34   H     H_    0.192222 0.039359 0.571475 0.201722
H35   H     H_    0.604980 0.118980 0.395327 0.172174
C31   C     C_R   0.242670 0.467586 0.762143 -0.405947
C32   C     C_R   0.151103 0.425757 0.818176 0.212217
C33   C     C_R   0.221406 0.427675 0.908695 -0.183531
C34   C     C_R   0.370278 0.487893 0.950205 0.098406
C35   C     C_R   0.458911 0.531676 0.891139 -0.167589
C36   C     C_R   0.397517 0.518518 0.797974 0.266919
C37   C     C_R   0.597083 0.549344 0.088167 -0.240153
C38   C     C_R   0.657652 0.569886 0.181336 0.200991
C39   C     C_R   0.404257 0.488037 0.209663 0.207451
C40   C     C_R   0.332755 0.479993 0.116433 0.163867
C41   C     C_R   0.432248 0.506425 0.052604 -0.007702
C42   C     C_R   0.560537 0.539909 0.241537 -0.346243
H36   H     H_    0.684163 0.564167 0.044924 0.163951
H37   H     H_    0.155137 0.382163 0.944415 0.179199
H38   H     H_    0.571383 0.579882 0.915529 0.156421
H39   H     H_    0.613142 0.549567 0.312991 0.164502
H40   H     H_    0.188936 0.465375 0.691666 0.157616
N1    N     N_R   0.180992 0.678446 0.821150 0.198821
O25   O     O_R   0.044702 0.626559 0.825701 -0.295886
O26   O     O_R   0.302953 0.692051 0.889665 -0.474689
N2    N     N_R   0.250939 0.889831 0.717477 0.242309
O27   O     O_R   0.147205 0.946292 0.719607 -0.450159
O28   O     O_R   0.353431 0.895305 0.661934 -0.441656
N3    N     N_2   0.034465 0.132886 0.239008 -0.035694
H41   H     H_    0.950936 0.078224 0.247597 0.235099
C43   C     C_3   0.088797 0.117778 0.153384 -0.542640
H42   H     H_    0.185747 0.074321 0.157420 0.221889
H43   H     H_    0.134825 0.183849 0.133237 0.261585
H44   H     H_    0.983818 0.082366 0.099642 0.238544
N4    N     N_R   0.836154 0.837605 0.817808 0.279155
O29   O     O_R   0.850437 0.765231 0.855872 -0.309065
O30   O     O_R   0.921686 0.915910 0.858393 -0.424131
N5    N     N_2   0.715736 0.869905 0.104091 -0.114416
H45   H     H_    0.778390 0.930382 0.142748 0.231393
C44   C     C_3   0.627355 0.883661 0.017879 -0.734148
H46   H     H_    0.538141 0.929774 0.029628 0.245904
H47   H     H_    0.558072 0.817877 0.978541 0.276921
H48   H     H_    0.714360 0.915453 0.978377 0.276066
N6    N     N_2   0.793231 0.156567 0.715819 -0.070658
H49   H     H_    0.776959 0.185991 0.657750 0.209842
C45   C     C_3   0.811562 0.061932 0.698435 -0.872480
H50   H     H_    0.723059 0.027190 0.636601 0.262459
H51   H     H_    0.782175 0.026799 0.755071 0.277504
H52   H     H_    0.938903 0.056889 0.689898 0.263618
N7    N     N_2   0.405389 0.270004 0.932800 -0.137392
H53   H     H_    0.484990 0.331323 0.952934 0.208352
C46   C     C_3   0.359414 0.230158 0.008783 -0.781002
H54   H     H_    0.327742 0.283233 0.057499 0.262202
H55   H     H_    0.462155 0.200032 0.041537 0.288357
H56   H     H_    0.250363 0.175541 0.986631 0.243240
N8    N     N_R   0.002028 0.864928 0.241277 0.240587
O31   O     O_R   0.982530 0.905814 0.318543 -0.451745
O32   O     O_R   0.119065 0.900753 0.203243 -0.409038
N9    N     N_2   0.374948 0.117521 0.855743 -0.074033
H57   H     H_    0.271467 0.096487 0.806053 0.240035
C47   C     C_3   0.472504 0.049502 0.880949 -0.737122
H58   H     H_    0.391876 0.991394 0.897998 0.235672
H59   H     H_    0.568016 0.077318 0.942243 0.253420
H60   H     H_    0.531519 0.025689 0.824150 0.258773
N10   N     N_R   0.158494 0.454086 0.089055 0.238722
O33   O     O_R   0.075493 0.505266 0.042352 -0.343068
O34   O     O_R   0.085785 0.374126 0.099128 -0.337316
N11   N     N_R   0.686663 0.347753 0.221353 0.195630
O35   O     O_R   0.612367 0.365257 0.144822 -0.468297
O36   O     O_R   0.787273 0.413247 0.276437 -0.354319
N12   N     N_R   0.729011 0.203301 0.151636 0.210116
O37   O     O_R   0.814712 0.246440 0.101071 -0.335667
O38   O     O_R   0.693821 0.114466 0.133854 -0.491649

loop_
_geom_bond_atom_site_label_1
_geom_bond_atom_site_label_2
_geom_bond_distance
_ccdc_geom_bond_type
C13   C14   1.533733 S    
C22   C23   1.437286 A    
P7    O22   1.748424 S    
N12   O37   1.300897 A    
P2    Ba1   3.426796 S    
C47   H59   1.110506 S    
P4    O12   1.533408 D    
C2    H4    1.111975 S    
C31   H40   1.082529 S    
C45   H52   1.107203 S    
P3    C38   1.840863 S    
C44   H48   1.109834 S    
P8    C20   1.832610 S    
C11   H19   1.105994 S    
N3    H41   1.031888 S    
C37   H36   1.076933 S    
C20   C21   1.395585 A    
P1    C18   1.884222 S    
C5    H9    1.108510 S    
P5    O18   1.542443 D    
C31   C36   1.388107 A    
C32   C33   1.395259 A    
P3    O11   1.756471 S    
O3    P6    1.738773 S    
O1    Ba1   2.855313 S    
C4    O15   1.403416 S    
C2    C3    1.539647 S    
C45   H51   1.105080 S    
O6    P6    1.746461 S    
Ba2   O20   2.811647 S    
N1    O26   1.301639 A    
O16   P7    1.758823 S    
C6    H10   1.101058 S    
C11   H20   1.111753 S    
C37   C38   1.397852 A    
C18   C28   1.410681 A    
C2    N8    1.462588 S    
C39   C40   1.423061 A    
C12   H22   1.106033 S    
P1    O1    1.533201 D    
C15   H27   1.111328 S    
O2    Ba1   2.949172 S    
C37   C41   1.418142 A    
C14   H24   1.107566 S    
C19   C20   1.396896 A    
O17   Ba2   2.782606 S    
C23   C27   1.401152 A    
N5    H45   1.031086 S    
P2    O10   1.752266 S    
C43   H44   1.110282 S    
C15   C16   1.528790 S    
N10   O34   1.299973 A    
O4    P6    1.545380 D    
C1    H18   1.108625 S    
N9    C47   1.444650 S    
C1    H2    1.109675 S    
N11   O36   1.298183 A    
O3    Ba1   2.800448 S    
P8    O24   1.743401 S    
O12   Ba2   2.855857 S    
Ba1   O20   2.946121 S    
C13   H23   1.111490 S    
C23   C30   1.444677 A    
N12   O38   1.302592 A    
C3    H5    1.112848 S    
Ba1   O13   2.822743 S    
C47   H60   1.109233 S    
C17   C25   1.421163 A    
P4    O13   1.578285 S    
P4    C30   1.893411 S    
C7    N2    1.452906 S    
P8    O23   1.541745 D    
C35   C36   1.398958 A    
N2    O28   1.300405 A    
O8    Ba1   2.781997 S    
C46   H55   1.103061 S    
P5    C32   1.839009 S    
P5    O17   1.753807 S    
P1    O5    1.762794 S    
C6    C7    1.533367 S    
C8    C9    1.542086 S    
C45   H50   1.109449 S    
N7    C46   1.444177 S    
C11   O22   1.402218 S    
C26   C27   1.388881 A    
P2    C39   1.867532 S    
O2    Ba2   2.823397 S    
C16   H29   1.111439 S    
O11   C2    1.411249 S    
C11   C12   1.532210 S    
O16   Ba2   2.945329 S    
C5    H7    1.084101 S    
C10   H17   1.108634 S    
C18   C29   1.392341 A    
N11   O35   1.298167 A    
C19   H33   1.081994 S    
H31   C26   1.080093 S    
C12   H21   1.109186 S    
P1    O2    1.578267 S    
C19   C30   1.395532 A    
C7    H12   1.111968 S    
C12   N4    1.465232 S    
C3    N5    1.451245 S    
C16   N7    1.450280 S    
C46   H56   1.106354 S    
C1    H3    1.109964 S    
N10   O33   1.303483 A    
C13   N6    1.453275 S    
P1    Ba1   3.420596 S    
C4    C5    1.516143 S    
C34   C41   1.529148 S    
O19   C13   1.405531 S    
P2    O20   1.576301 S    
N6    C45   1.443592 S    
C35   H38   1.077504 S    
O14   Ba2   2.799782 S    
N5    C44   1.444966 S    
O5    C6    1.406193 S    
Ba1   O16   2.812350 S    
C28   H32   1.067982 S    
P3    O8    1.742425 S    
C43   H42   1.110780 S    
C15   O24   1.403961 S    
N8    O32   1.301047 A    
P7    C36   1.817417 S    
O6    C10   1.405013 S    
O7    Ba1   2.860924 S    
C17   C29   1.402876 A    
C40   N10   1.428689 S    
C47   H58   1.105289 S    
N2    O27   1.298980 A    
C46   H54   1.108051 S    
Ba1   Ba2   4.623182 S    
C24   C25   1.424204 A    
P4    O15   1.777919 S    
C8    H14   1.111356 S    
C21   C22   1.412263 A    
C38   C42   1.392886 A    
C4    N11   1.458917 S    
Ba2   O21   2.861160 S    
C9    N3    1.451357 S    
P2    O7    1.526793 D    
N7    H53   1.030531 S    
H1    C10   1.111466 S    
C44   H47   1.109691 S    
C16   N9    1.454227 S    
C44   H46   1.109487 S    
C6    N1    1.465018 S    
C5    H8    1.100091 S    
P5    O19   1.745477 S    
C39   C42   1.394235 A    
C7    H11   1.109758 S    
C3    H6    1.109933 S    
C4    N12   1.473532 S    
N4    O29   1.301292 A    
C33   H37   1.071326 S    
P6    C17   1.856658 S    
N1    O25   1.299724 A    
C9    H16   1.106835 S    
H30   C29   1.081926 S    
O13   Ba2   2.950098 S    
C25   C26   1.401848 A    
C9    H15   1.102502 S    
C14   H26   1.109350 S    
C31   C32   1.382958 A    
O14   P8    1.737440 S    
C24   C28   1.428671 A    
C33   C34   1.423797 A    
C21   H34   1.076377 S    
N3    C43   1.448750 S    
N6    H49   1.031062 S    
P7    O21   1.571826 D    
C1    C10   1.521693 S    
C14   H25   1.109514 S    
P3    O9    1.528636 D    
C34   C35   1.417637 A    
C43   H43   1.106163 S    
C22   C24   1.449528 A    
C15   H28   1.112936 S    
N8    O31   1.299304 A    
C42   H39   1.082412 S    
C8    H13   1.098447 S    
O10   C8    1.404885 S    
N9    H57   1.029228 S    
C40   C41   1.434107 A    
P4    Ba2   3.421089 S    
C27   H35   1.070195 S    
N4    O30   1.300369 A    
