data_mof_unit_57010.cif
_audit_creation_date              2012-12-10T17:24:42-0500
_audit_creation_method            fapswitch 2.2
_symmetry_space_group_name_H-M    P1
_symmetry_Int_Tables_number       1
_space_group_crystal_system       triclinic
_cell_length_a                    18.741703
_cell_length_b                    18.474496
_cell_length_c                    19.018223
_cell_angle_alpha                 109.240456
_cell_angle_beta                  110.574331
_cell_angle_gamma                 108.483603
_cell_volume                      5074.98179488

loop_
_atom_site_label
_atom_site_type_symbol
_atom_type_description
_atom_site_fract_x
_atom_site_fract_y
_atom_site_fract_z
_atom_type_partial_charge
C1    C     C_R   0.623530 0.619889 0.503548 0.959953
C2    C     C_R   0.678893 0.756418 0.499239 0.065937
C3    C     C_3   0.005318 0.769303 0.041582 0.113018
C4    C     C_3   0.091983 0.797469 0.041944 -0.334788
C5    C     C_3   0.162020 0.888669 0.118794 -0.994374
C6    C     C_3   0.411251 0.620779 0.219628 0.077788
C7    C     C_3   0.502803 0.661407 0.232389 -0.306677
C8    C     C_3   0.506518 0.702233 0.174999 -0.991779
C9    C     C_3   0.243812 0.240299 0.753946 0.143907
C10   C     C_3   0.300990 0.197721 0.745439 -0.351027
C11   C     C_3   0.357939 0.206255 0.831266 -0.986993
C12   C     C_3   0.358872 0.972900 0.543123 0.085308
C13   C     C_R   0.814907 0.814092 0.501156 -0.141481
C14   C     C_3   0.324630 0.999865 0.604124 -0.345696
C15   C     C_3   0.372235 0.999169 0.687279 -0.973248
C16   C     C_3   0.950908 0.488278 0.722288 0.139953
C17   C     C_3   0.999016 0.589659 0.770735 -0.286619
C18   C     C_3   0.965994 0.626220 0.712996 -1.001510
C19   C     C_3   0.117749 0.536134 0.660792 0.055202
C20   C     C_3   0.211144 0.568689 0.676962 -0.328886
C21   C     C_3   0.215855 0.576001 0.600925 -0.963727
C22   C     C_3   0.941500 0.236262 0.980127 0.153448
C23   C     C_3   0.846666 0.179639 0.901894 -0.397355
C24   C     C_R   0.378868 0.499911 0.379949 0.924300
C25   C     C_3   0.780293 0.161316 0.931471 -0.962502
C26   C     C_R   0.820846 0.737403 0.492498 0.032656
C27   C     C_R   0.762371 0.674192 0.500115 -0.025673
C28   C     C_R   0.690727 0.685300 0.503449 -0.196761
C29   C     C_R   0.884110 0.722539 0.475198 -0.156969
C30   C     C_R   0.889245 0.647437 0.464106 -0.214897
C31   C     C_R   0.837257 0.587983 0.477029 -0.259357
C32   C     C_R   0.777233 0.602030 0.501450 0.528779
C33   C     C_3   0.175818 0.461033 0.247781 0.137636
C34   C     C_R   0.780675 0.654173 0.737255 -0.125837
C35   C     C_R   0.853334 0.734637 0.800119 -0.220344
C36   C     C_R   0.908515 0.744568 0.877484 -0.259427
C37   C     C_R   0.379777 0.379111 0.499590 0.854274
C38   C     C_R   0.894433 0.672035 0.892520 0.506171
C39   C     C_R   0.826115 0.585489 0.821421 -0.031703
C40   C     C_R   0.764339 0.579591 0.748173 0.015192
C41   C     C_R   0.817357 0.504105 0.818210 -0.203261
C42   C     C_R   0.748208 0.421346 0.744987 0.067953
C43   C     C_R   0.678606 0.419323 0.683086 -0.002119
C44   C     C_3   0.256305 0.544017 0.330011 -0.255919
C45   C     C_R   0.687483 0.498804 0.685811 -0.161098
C46   C     C_R   0.747232 0.340306 0.730625 -0.232485
C47   C     C_R   0.674917 0.260078 0.661829 -0.221984
C48   C     C_R   0.602175 0.257905 0.604805 0.537661
C49   C     C_R   0.619001 0.497800 0.620151 0.890097
C50   C     C_R   0.603150 0.337383 0.617606 -0.282859
C51   C     C_R   0.390293 0.404577 0.665171 0.162836
C52   C     C_R   0.373601 0.437890 0.730827 -0.230608
C53   C     C_R   0.299346 0.386214 0.726846 -0.288850
C54   C     C_R   0.247202 0.297403 0.662161 0.482587
C55   C     C_3   0.311555 0.500726 0.314448 -0.074515
C56   C     C_R   0.250538 0.270458 0.583573 -0.067441
C57   C     C_R   0.320662 0.328888 0.583526 -0.000225
C58   C     C_R   0.188419 0.188287 0.506214 -0.195668
C59   C     C_R   0.192294 0.166058 0.429673 0.068131
C60   C     C_R   0.251375 0.231035 0.425323 0.081982
C61   C     C_3   0.327113 0.541456 0.259491 0.517276
C62   C     C_R   0.317484 0.311411 0.503041 -0.191692
C63   C     C_R   0.136259 0.080318 0.355977 -0.140309
C64   C     C_R   0.132853 0.062525 0.277601 -0.139758
C65   C     C_R   0.183114 0.129740 0.270163 -0.160128
C66   C     C_R   0.600988 0.760135 0.486366 -0.194025
C67   C     C_R   0.240927 0.213226 0.342494 -0.162279
C68   C     C_R   0.005634 0.620235 0.124697 0.895695
C69   C     C_R   0.124367 0.500690 0.125062 0.922112
C70   C     C_R   0.004224 0.378956 0.884369 0.996062
C71   C     C_R   0.883204 0.503265 0.885629 0.970746
C72   C     C_R   0.999590 0.878376 0.380806 0.850777
C73   C     C_3   0.272385 0.585753 0.274313 -0.301287
C74   C     C_R   0.880223 0.881393 0.501388 0.838943
C75   C     C_R   0.997186 0.118223 0.618084 0.908107
C76   C     C_R   0.120037 0.123747 0.504519 0.957158
C77   C     C_R   0.594588 0.834576 0.491994 -0.297372
C78   C     C_R   0.164840 0.757621 0.283030 -0.228405
C79   C     C_R   0.243023 0.831481 0.352466 -0.266804
C80   C     C_R   0.241912 0.903336 0.406072 0.540770
C81   C     C_R   0.161941 0.899248 0.391119 -0.248604
C82   C     C_R   0.081368 0.821948 0.324527 0.007868
C83   C     C_R   0.083452 0.754358 0.265493 0.064961
C84   C     C_R   0.999137 0.811230 0.314459 -0.186849
C85   C     C_3   0.191198 0.501372 0.192599 -0.073858
C86   C     C_R   0.918490 0.740717 0.237515 0.039597
C87   C     C_R   0.924459 0.686028 0.170507 0.036001
C88   C     C_R   0.664854 0.907449 0.507661 0.566718
C89   C     C_R   0.004679 0.687358 0.188708 -0.191126
C90   C     C_R   0.831700 0.722553 0.221304 0.131459
C91   C     C_R   0.759806 0.667088 0.137156 -0.135011
C92   C     C_R   0.769427 0.623841 0.069403 -0.197539
C93   C     C_R   0.850055 0.630853 0.085924 -0.117438
C94   C     C_R   0.024145 0.407090 0.743885 0.431317
C95   C     C_R   0.072696 0.433345 0.705157 0.438119
C96   C     C_R   0.084433 0.371236 0.651655 -0.361610
C97   C     C_3   0.246636 0.457968 0.176816 -0.267726
C98   C     C_R   0.050604 0.287026 0.638204 -0.197191
C99   C     C_R   0.740115 0.902528 0.516568 -0.234125
C100  C     C_R   0.018250 0.265441 0.689531 0.023558
C101  C     C_R   0.012947 0.328488 0.750248 -0.095816
C102  C     C_R   0.993897 0.182328 0.682261 -0.091451
C103  C     C_R   0.977135 0.162752 0.741850 -0.019467
C104  C     C_R   0.990503 0.229726 0.815627 -0.063244
C105  C     C_R   0.000661 0.310971 0.815362 -0.174655
C106  C     C_R   0.952259 0.077208 0.730463 -0.244785
C107  C     C_R   0.963541 0.062114 0.799114 0.068611
C108  C     C_R   0.993711 0.131752 0.879472 0.057473
C109  C     C_3   0.230879 0.418948 0.233521 0.060123
C110  C     C_R   0.745604 0.825126 0.506493 -0.017969
C111  C     C_R   0.995505 0.211211 0.885434 0.440323
C112  C     C_3   0.584139 0.975269 0.463128 0.091990
C113  C     C_3   0.552647 0.922386 0.366453 -0.393765
C114  C     C_3   0.470332 0.920764 0.309600 -0.963134
C115  C     C_3   0.748552 0.477851 0.523890 0.107106
C116  C     C_3   0.685844 0.399056 0.431749 -0.320860
C117  C     C_3   0.691679 0.317091 0.426613 -1.009736
C118  C     C_3   0.505580 0.166524 0.458011 0.027449
C119  C     C_3   0.407520 0.103336 0.396723 -0.245008
C120  C     C_3   0.376718 0.098027 0.308612 -0.992031
H1    H     H_    0.288102 0.654073 0.288954 0.140232
H2    H     H_    0.544524 0.333660 0.574706 0.150540
H3    H     H_    0.284388 0.600964 0.615180 0.267968
H4    H     H_    0.193540 0.622273 0.589805 0.261931
H5    H     H_    0.986835 0.959879 0.766048 0.194405
H6    H     H_    0.881978 0.931437 0.738651 0.193137
H7    H     H_    0.943828 0.292512 0.027644 0.185203
H8    H     H_    0.956380 0.199984 0.014286 0.133215
H9    H     H_    0.833150 0.213325 0.864271 0.245778
H10   H     H_    0.836622 0.115447 0.858090 0.218771
H11   H     H_    0.791485 0.126571 0.968581 0.264853
H12   H     H_    0.713158 0.119207 0.874139 0.270988
H13   H     H_    0.177712 0.117181 0.208236 0.138211
H14   H     H_    0.785613 0.223835 0.972715 0.256727
H15   H     H_    0.103789 0.401809 0.290800 0.169884
H16   H     H_    0.053779 0.356439 0.182991 0.175616
H17   H     H_    0.422776 0.499992 0.789485 0.159732
H18   H     H_    0.289225 0.411826 0.780374 0.159528
H19   H     H_    0.094116 0.026065 0.357651 0.137099
H20   H     H_    0.089087 0.997093 0.221943 0.133648
H21   H     H_    0.241339 0.423119 0.113674 0.147129
H22   H     H_    0.274979 0.262581 0.330671 0.170281
H23   H     H_    0.713305 0.581259 0.004470 0.153150
H24   H     H_    0.169327 0.704152 0.242812 0.164748
H25   H     H_    0.793632 0.960253 0.530195 0.170681
H26   H     H_    0.304609 0.833833 0.363245 0.135206
H27   H     H_    0.164783 0.958132 0.431860 0.167446
H28   H     H_    0.694999 0.655173 0.124764 0.143687
H29   H     H_    0.853469 0.593284 0.031190 0.173921
H30   H     H_    0.118698 0.386356 0.618725 0.173870
H31   H     H_    0.057057 0.241237 0.591479 0.200083
H32   H     H_    0.930482 0.022071 0.669677 0.150634
H33   H     H_    0.260378 0.577389 0.392796 0.170729
H34   H     H_    0.847083 0.532014 0.468314 0.132615
H35   H     H_    0.542731 0.705208 0.469727 0.196263
H36   H     H_    0.929792 0.766978 0.467225 0.160574
H37   H     H_    0.534598 0.834033 0.484660 0.139941
H38   H     H_    0.593918 0.042153 0.477614 0.183269
H39   H     H_    0.533727 0.947994 0.478835 0.125971
H40   H     H_    0.605078 0.952231 0.353883 0.236054
H41   H     H_    0.537617 0.853511 0.348003 0.220209
H42   H     H_    0.417577 0.892940 0.322494 0.263679
H43   H     H_    0.447319 0.879256 0.240394 0.263590
H44   H     H_    0.484442 0.988186 0.322125 0.265913
H45   H     H_    0.733692 0.458597 0.568240 0.177720
H46   H     H_    0.817169 0.492072 0.548570 0.101204
H47   H     H_    0.936057 0.636387 0.447642 0.159980
H48   H     H_    0.617677 0.385322 0.412119 0.246962
H49   H     H_    0.701297 0.413710 0.385154 0.201341
H50   H     H_    0.758812 0.328379 0.443648 0.266872
H51   H     H_    0.644979 0.260832 0.359767 0.267441
H52   H     H_    0.674923 0.300117 0.471659 0.260440
H53   H     H_    0.542357 0.138311 0.434678 0.135110
H54   H     H_    0.520697 0.228605 0.455395 0.145641
H55   H     H_    0.392661 0.036751 0.387982 0.247762
H56   H     H_    0.371021 0.126264 0.425354 0.257552
H57   H     H_    0.389382 0.163701 0.315638 0.272257
H58   H     H_    0.738943 0.650766 0.678657 0.177423
H59   H     H_    0.305393 0.052163 0.266410 0.283605
H60   H     H_    0.410805 0.073657 0.277516 0.260414
H61   H     H_    0.018555 0.770918 0.103486 0.175511
H62   H     H_    0.980919 0.817028 0.043430 0.108285
H63   H     H_    0.115108 0.749791 0.045868 0.248836
H64   H     H_    0.083343 0.797831 0.981323 0.197228
H65   H     H_    0.141682 0.938172 0.114830 0.258804
H66   H     H_    0.224168 0.906711 0.118227 0.271349
H67   H     H_    0.173501 0.889410 0.180546 0.279043
H68   H     H_    0.393734 0.673628 0.237659 0.142033
H69   H     H_    0.865546 0.790555 0.789797 0.167451
H70   H     H_    0.364074 0.570013 0.150219 0.144783
H71   H     H_    0.550388 0.712971 0.301221 0.230035
H72   H     H_    0.522074 0.609795 0.216549 0.234014
H73   H     H_    0.461610 0.651109 0.105681 0.266806
H74   H     H_    0.574100 0.732128 0.186888 0.267980
H75   H     H_    0.487783 0.754294 0.189766 0.268262
H76   H     H_    0.488477 0.401930 0.641570 0.173206
H77   H     H_    0.505720 0.504419 0.704007 0.228800
H78   H     H_    0.197602 0.202724 0.768689 0.175185
H79   H     H_    0.283788 0.307143 0.811550 0.111363
H80   H     H_    0.961830 0.810430 0.924354 0.139803
H81   H     H_    0.258722 0.126846 0.696258 0.238191
H82   H     H_    0.344258 0.229659 0.724753 0.223273
H83   H     H_    0.401394 0.276635 0.881974 0.271787
H84   H     H_    0.399359 0.176188 0.823620 0.276021
H85   H     H_    0.316411 0.171977 0.852118 0.261750
H86   H     H_    0.430238 0.018695 0.577678 0.189534
H87   H     H_    0.351048 0.905944 0.526589 0.113720
H88   H     H_    0.333925 0.066987 0.620487 0.236441
H89   H     H_    0.253674 0.953612 0.571567 0.219193
H90   H     H_    0.364664 0.932834 0.672244 0.265595
H91   H     H_    0.802693 0.337365 0.770403 0.179203
H92   H     H_    0.344007 0.016093 0.728657 0.266331
H93   H     H_    0.442837 0.048208 0.723541 0.269569
H94   H     H_    0.859153 0.762778 0.346136 0.176522
H95   H     H_    0.797498 0.799027 0.291224 0.228251
H96   H     H_    0.017295 0.062285 0.942820 0.208550
H97   H     H_    0.089078 0.169679 0.997252 0.183636
H98   H     H_    0.151642 0.287455 0.153376 0.189225
H99   H     H_    0.193456 0.319383 0.258783 0.162074
H100  H     H_    0.882181 0.464844 0.706612 0.128754
H101  H     H_    0.946264 0.461707 0.658145 0.103793
H102  H     H_    0.675393 0.199296 0.653099 0.162827
H103  H     H_    0.989913 0.615028 0.826274 0.230443
H104  H     H_    0.070354 0.616989 0.797907 0.258528
H105  H     H_    0.972399 0.601567 0.655090 0.257487
H106  H     H_    0.004857 0.699126 0.749649 0.272452
H107  H     H_    0.896747 0.607234 0.692673 0.284911
H108  H     H_    0.101277 0.589069 0.662209 0.162830
H109  H     H_    0.068591 0.478462 0.594788 0.122677
H110  H     H_    0.255152 0.634328 0.736395 0.222328
H111  H     H_    0.235326 0.523501 0.687786 0.229029
H112  H     H_    0.174312 0.510467 0.541328 0.263871
N1    N     N_3   0.480476 0.439040 0.689726 -0.448101
N2    N     N_3   0.810274 0.747230 0.287422 -0.456102
N3    N     N_3   0.022525 0.123848 0.956100 -0.472536
N4    N     N_3   0.208967 0.328989 0.213775 -0.453342
N5    N     N_3   0.947055 0.976553 0.787500 -0.477200
N6    N     N_3   0.091962 0.416555 0.240705 -0.439627
O1    O     O_R   0.592010 0.539900 0.448660 -0.580462
O2    O     O_R   0.948620 0.908400 0.356980 -0.631575
O3    O     O_R   0.960510 0.908410 0.552140 -0.634440
O4    O     O_R   0.591210 0.643320 0.551330 -0.644853
O5    O     O_R   0.856270 0.908390 0.447890 -0.635777
O6    O     O_R   0.051380 0.091620 0.643040 -0.612155
O7    O     O_R   0.947140 0.091600 0.538800 -0.634563
O8    O     O_R   0.143730 0.091640 0.552130 -0.606496
O9    O     O_R   0.039490 0.091610 0.447890 -0.636897
O10   O     O_R   0.408080 0.448290 0.356360 -0.602666
O11   O     O_R   0.407280 0.551710 0.459030 -0.642965
O12   O     O_R   0.054870 0.643310 0.094700 -0.627494
O13   O     O_R   0.408790 0.356680 0.448670 -0.646659
O14   O     O_R   0.407990 0.460100 0.551340 -0.624629
O15   O     O_R   0.592720 0.448290 0.540970 -0.626248
O16   O     O_R   0.591920 0.551710 0.643640 -0.642585
O17   O     O_R   0.951440 0.539900 0.094740 -0.623525
O18   O     O_3   0.665775 0.986079 0.517752 -0.659279
O19   O     O_3   0.737291 0.552344 0.532107 -0.663208
O20   O     O_3   0.528031 0.177597 0.541647 -0.643815
O21   O     O_3   0.941878 0.681915 0.973890 -0.668039
O22   O     O_3   0.411882 0.582836 0.272929 -0.657824
O23   O     O_R   0.044440 0.448270 0.096110 -0.616829
O24   O     O_3   0.194296 0.238635 0.676192 -0.656007
O25   O     O_3   0.318835 0.980618 0.469600 -0.662633
O26   O     O_3   0.989106 0.457065 0.776218 -0.630138
O27   O     O_3   0.113633 0.521752 0.728375 -0.653726
O28   O     O_3   0.008267 0.271596 0.961649 -0.644623
O29   O     O_R   0.147870 0.551680 0.096080 -0.656884
O30   O     O_R   0.952810 0.356650 0.912880 -0.614399
O31   O     O_R   0.056240 0.460060 0.912840 -0.580357
O32   O     O_R   0.859800 0.448280 0.911500 -0.646824
O33   O     O_R   0.963240 0.551690 0.911470 -0.575242
O34   O     O_R   0.052860 0.908430 0.461230 -0.638272
Zn1   Zn    Zn3+2 0.500540 0.430950 0.431450 0.937599
Zn2   Zn    Zn3+2 0.499460 0.569050 0.568550 0.926062
Zn3   Zn    Zn3+2 0.934770 0.430930 0.003810 0.943705
Zn4   Zn    Zn3+2 0.072900 0.569020 0.003770 0.960953
Zn5   Zn    Zn3+2 0.069600 0.000030 0.569620 0.918642
Zn6   Zn    Zn3+2 0.930400 0.000000 0.430410 0.930252

loop_
_geom_bond_atom_site_label_1
_geom_bond_atom_site_label_2
_ccdc_geom_bond_type
O13   Zn1   S    
C94   O26   S    
O34   Zn5   S    
C112  H39   S    
H16   N6    S    
C22   O28   S    
C102  C103  A    
C41   C42   A    
C92   C93   A    
C93   H29   S    
C35   C36   A    
C117  H52   S    
C100  C101  A    
C5    H65   S    
C15   H93   S    
C38   O21   S    
H97   N3    S    
C37   C62   S    
O16   Zn2   S    
C58   C76   S    
C7    C8    S    
C88   O18   S    
C53   C54   A    
C1    O1    A    
C24   C55   S    
C107  N5    S    
C48   O20   S    
C26   C27   A    
C15   H92   S    
C112  H38   S    
C19   H108  S    
C34   C40   A    
C44   H33   S    
C73   C85   S    
C6    O22   S    
C32   O19   S    
C120  H59   S    
C84   C86   A    
C30   H47   S    
C15   H90   S    
C14   H88   S    
C24   O10   A    
C38   C39   A    
C95   O27   S    
C106  C107  A    
C67   H22   S    
C115  C116  S    
C6    H68   S    
C4    H63   S    
C97   C109  S    
C116  C117  S    
C23   H9    S    
C8    H75   S    
C60   C62   A    
C34   C35   A    
C42   C46   A    
C55   C61   S    
C92   H23   S    
C33   C85   S    
C118  C119  S    
C91   H28   S    
C33   N6    S    
C18   H106  S    
C119  H55   S    
C74   O3    A    
C22   H8    S    
C117  H50   S    
C95   C96   A    
C118  H53   S    
C16   C17   S    
C65   C67   A    
C50   H2    S    
C46   H91   S    
C1    C28   S    
C107  C108  A    
C72   O2    A    
C8    H74   S    
O7    Zn6   S    
C75   O6    A    
O12   Zn4   S    
C115  H45   S    
C29   C30   A    
C52   H17   S    
C9    C10   S    
C75   O7    A    
C85   C97   S    
C41   C71   S    
C48   C50   A    
C99   H25   S    
C108  N3    S    
C59   C60   A    
C35   H69   S    
C20   H111  S    
C55   C109  S    
C33   C44   S    
C7    H71   S    
C16   H101  S    
H94   N2    S    
C80   O25   S    
C5    H66   S    
C78   C83   A    
O5    Zn6   S    
C104  C105  A    
C10   H81   S    
C103  C104  A    
C81   C82   A    
C79   H26   S    
C98   H31   S    
C22   C23   S    
C101  C105  A    
O33   Zn4   S    
C83   C89   A    
C54   C56   A    
O29   Zn4   S    
C59   C63   A    
C20   H110  S    
O31   Zn4   S    
H99   N4    S    
C51   C52   A    
C54   O24   S    
C12   H87   S    
O3    Zn5   S    
C57   C62   A    
H5    N5    S    
C106  H32   S    
C60   C67   A    
C39   C41   A    
C115  O19   S    
C39   C40   A    
O11   Zn2   S    
H77   N1    S    
C78   C79   A    
C80   C81   A    
C70   O31   A    
C69   O23   A    
C114  H42   S    
C61   C73   S    
C58   C59   A    
C37   O13   A    
C99   C110  A    
C18   H107  S    
C63   C64   A    
C23   H10   S    
C96   C98   A    
C12   O25   S    
C12   H86   S    
C21   H3    S    
O8    Zn5   S    
C120  H57   S    
H95   N2    S    
C13   C110  A    
C17   H103  S    
C18   H105  S    
C78   H24   S    
C119  H56   S    
C75   C102  S    
C49   O15   A    
C117  H51   S    
C114  H44   S    
C47   C48   A    
C45   C49   S    
C30   C31   A    
C96   H30   S    
C9    O24   S    
C6    H70   S    
C100  C102  A    
C17   C18   S    
C90   N2    S    
C61   C97   S    
C8    H73   S    
C71   O33   A    
C11   H83   S    
C4    H64   S    
C115  H46   S    
C25   H14   S    
C10   H82   S    
C97   H21   S    
C72   C84   S    
C22   H7    S    
C3    H61   S    
C29   H36   S    
O23   Zn3   S    
C74   O5    A    
C94   C101  A    
C47   H102  S    
C12   C14   S    
C82   C84   A    
C53   H18   S    
C87   C89   A    
C86   C90   A    
C9    H78   S    
C68   O17   A    
O2    Zn6   S    
C13   C26   A    
C34   H58   S    
C76   O9    A    
C33   C109  S    
C42   C43   A    
C5    H67   S    
C90   C91   A    
C3    C4    S    
C25   H11   S    
O9    Zn6   S    
C91   C92   A    
C31   H34   S    
C69   C85   S    
C52   C53   A    
C113  C114  S    
C64   H20   S    
C68   O12   A    
C44   C73   S    
C56   C57   A    
C66   C77   A    
C46   C47   A    
C2    C110  A    
C14   H89   S    
C27   C32   A    
C86   C87   A    
C98   C100  A    
C63   H19   S    
O32   Zn3   S    
C31   C32   A    
C76   O8    A    
C36   H80   S    
C111  O28   S    
C4    C5    S    
C2    C66   A    
C70   C105  S    
C69   O29   A    
C104  C111  A    
C119  C120  S    
C108  C111  A    
C43   C50   A    
C70   O30   A    
C6    C7    S    
C118  O20   S    
C37   O14   A    
C24   O11   A    
C73   H1    S    
H15   N6    S    
C19   O27   S    
C51   N1    S    
C64   C65   A    
C19   C20   S    
O1    Zn1   S    
C120  H60   S    
H98   N4    S    
C19   H109  S    
C43   C45   A    
C17   H104  S    
O15   Zn1   S    
C49   O16   A    
H6    N5    S    
C44   C55   S    
C81   H27   S    
C114  H43   S    
C66   H35   S    
C21   H4    S    
C71   O32   A    
C3    O21   S    
C87   C93   A    
O30   Zn3   S    
C36   C38   A    
O6    Zn5   S    
C56   C58   A    
C116  H49   S    
C16   H100  S    
C103  C106  A    
C112  C113  S    
C1    O4    A    
C21   H112  S    
C113  H40   S    
C94   C95   A    
C7    H72   S    
C3    H62   S    
C11   H84   S    
C77   C88   A    
C88   C99   A    
C112  O18   S    
C10   C11   S    
C113  H41   S    
C79   C80   A    
C16   O26   S    
C109  N4    S    
C51   C57   A    
O10   Zn1   S    
C23   C25   S    
C40   C45   A    
C118  H54   S    
C26   C29   A    
C20   C21   S    
C82   C83   A    
H76   N1    S    
O4    Zn2   S    
O17   Zn3   S    
C27   C28   A    
C72   O34   A    
H96   N3    S    
C14   C15   S    
C116  H48   S    
C2    C28   A    
C11   H85   S    
C61   O22   S    
C68   C89   S    
C25   H12   S    
O14   Zn2   S    
C65   H13   S    
C9    H79   S    
C77   H37   S    
C13   C74   S    
