data_mof_unit_42337.cif
_audit_creation_date              2013-03-05T15:45:21-0500
_audit_creation_method            fapswitch 2.2
_symmetry_space_group_name_H-M    P1
_symmetry_Int_Tables_number       1
_space_group_crystal_system       triclinic
_cell_length_a                    10.837032
_cell_length_b                    11.262389
_cell_length_c                    10.06094
_cell_angle_alpha                 110.607586
_cell_angle_beta                  101.24619
_cell_angle_gamma                 89.869801
_cell_volume                      1124.3539853

loop_
_atom_site_label
_atom_site_type_symbol
_atom_site_description
_atom_site_fract_x
_atom_site_fract_y
_atom_site_fract_z
_atom_type_partial_charge
O1    O     O_R   0.511700 0.332340 0.577400 -0.513413
O2    O     O_R   0.488300 0.667660 0.422600 -0.540766
O3    O     O_R   0.474680 0.295500 0.332650 -0.612426
O4    O     O_R   0.525320 0.704500 0.667350 -0.558715
C1    C     C_R   0.490235 0.256039 0.441764 0.761414
C2    C     C_R   0.503478 0.744407 0.557960 0.830268
O5    O     O_R   0.338170 0.518410 0.622370 -0.585914
O6    O     O_R   0.661830 0.481590 0.377630 -0.586284
O7    O     O_R   0.301150 0.481570 0.377630 -0.584136
O8    O     O_R   0.698850 0.518430 0.622370 -0.565098
C3    C     C_R   0.260927 0.505061 0.496927 0.833865
C4    C     C_R   0.737381 0.486712 0.500440 0.783906
Cu1   Cu    Cu3+1 0.521920 0.521810 0.644910 1.056656
Cu2   Cu    Cu3+1 0.478080 0.478190 0.355090 1.029398
C5    C     C_R   0.141343 0.694602 0.719729 0.215892
C6    C     C_R   0.849724 0.277370 0.277625 0.209939
C7    C     C_R   0.097271 0.750155 0.848937 0.064325
C8    C     C_R   0.888187 0.218167 0.146229 0.156241
C9    C     C_R   0.004679 0.683008 0.881096 0.110268
C10   C     C_R   0.986451 0.275911 0.112546 0.051431
C11   C     C_R   0.945278 0.568983 0.774115 0.025215
C12   C     C_R   0.053225 0.387585 0.217212 0.016221
C13   C     C_R   0.963632 0.538501 0.630865 -0.115918
C14   C     C_R   0.033742 0.429392 0.362037 -0.073154
C15   C     C_R   0.078239 0.581220 0.612765 0.029829
C16   C     C_R   0.916541 0.391195 0.381360 0.006987
C17   C     C_R   0.873839 0.464231 0.506820 -0.087301
C18   C     C_R   0.121996 0.512786 0.486239 -0.056145
C19   C     C_2   0.462538 0.120654 0.406653 -0.204377
C20   C     C_2   0.499018 0.882154 0.588248 -0.277629
C21   C     C_2   0.515035 0.057728 0.494840 -0.063476
C22   C     C_2   0.467204 0.927090 0.478148 -0.042377
N1    N     N_2   0.445130 0.445420 0.137360 -0.305706
N2    N     N_2   0.554870 0.554580 0.862640 -0.301366
C23   C     C_2   0.512026 0.511374 0.084636 -0.012311
C24   C     C_2   0.485852 0.497838 0.922420 -0.037940
N3    N     N_3   0.016047 0.224201 0.971112 -0.497747
H1    H     H_    0.043321 0.131992 0.953588 0.233081
H2    H     H_    0.935587 0.220446 0.893047 0.234304
N4    N     N_3   0.968517 0.732138 0.019016 -0.462819
H3    H     H_    0.932099 0.820330 0.030567 0.248960
H4    H     H_    0.048452 0.748136 0.100950 0.245941
N5    N     N_3   0.240380 0.760154 0.690885 -0.570671
H5    H     H_    0.318513 0.776802 0.776232 0.256156
H6    H     H_    0.210448 0.848340 0.690374 0.258007
N6    N     N_3   0.754086 0.209778 0.309430 -0.525877
H7    H     H_    0.753720 0.241818 0.420060 0.219663
H8    H     H_    0.667411 0.222012 0.251348 0.266637
N7    N     N_3   0.149572 0.872913 0.947855 -0.608171
H9    H     H_    0.076367 0.933357 0.962003 0.224669
H10   H     H_    0.187312 0.864872 0.047462 0.256821
N8    N     N_3   0.821894 0.101832 0.044727 -0.530215
H11   H     H_    0.886245 0.032043 0.022315 0.217511
H12   H     H_    0.782291 0.116095 0.948657 0.258558
C25   C     C_2   0.887718 0.469392 0.814175 0.962044
O9    O     O_2   0.866625 0.360270 0.726858 -0.627140
O10   O     O_R   0.862762 0.497005 0.952061 -0.695356
H13   H     H_    0.827087 0.418783 0.963199 0.353046
C26   C     C_2   0.113117 0.477680 0.167091 0.983509
O11   O     O_2   0.146644 0.441721 0.051099 -0.540155
O12   O     O_R   0.129120 0.606106 0.253068 -0.732452
H14   H     H_    0.181868 0.653101 0.213307 0.333585
C27   C     C_2   0.366367 0.854887 0.353633 0.883665
O13   O     O_2   0.256542 0.864746 0.366223 -0.585998
O14   O     O_R   0.396731 0.782257 0.221566 -0.667406
H15   H     H_    0.320870 0.742959 0.140661 0.316277
C28   C     C_2   0.637441 0.109498 0.598297 0.868584
O15   O     O_2   0.641644 0.197960 0.712857 -0.517425
O16   O     O_R   0.747086 0.050674 0.565983 -0.746295
H16   H     H_    0.824513 0.091093 0.644606 0.343785
C29   C     C_2   0.508798 0.967927 0.741024 0.863946
O17   O     O_2   0.441478 0.056819 0.768032 -0.519526
O18   O     O_R   0.587704 0.942770 0.853926 -0.727596
H17   H     H_    0.579783 0.004349 0.952852 0.375030
C30   C     C_2   0.378562 0.059820 0.263395 0.886588
O19   O     O_2   0.265717 0.075488 0.247631 -0.578244
O20   O     O_R   0.432897 0.999478 0.144199 -0.739541
H18   H     H_    0.371316 0.974986 0.047964 0.345709
C31   C     C_2   0.372537 0.416135 0.830037 0.946882
O21   O     O_2   0.381256 0.305680 0.755397 -0.510163
O22   O     O_R   0.254137 0.464519 0.835134 -0.746346
H19   H     H_    0.183034 0.399817 0.769080 0.346870
C32   C     C_2   0.631860 0.582533 0.176182 0.961736
O23   O     O_2   0.730223 0.530595 0.165400 -0.599761
O24   O     O_R   0.635163 0.708085 0.270883 -0.680956
H20   H     H_    0.723715 0.744472 0.325459 0.342549
C33   C     C_2   0.614942 0.677622 0.943503 1.064222
O25   O     O_2   0.712095 0.707642 0.915838 -0.552837
O26   O     O_R   0.555431 0.769290 0.038754 -0.713078
H21   H     H_    0.609854 0.852049 0.089868 0.377577
C34   C     C_2   0.425722 0.312472 0.057800 1.082153
O27   O     O_2   0.513663 0.252434 0.015887 -0.583227
O28   O     O_R   0.309048 0.249500 0.037983 -0.699511
H22   H     H_    0.306308 0.155180 0.980304 0.343044

loop_
_geom_bond_atom_site_label_1
_geom_bond_atom_site_label_2
_geom_bond_distance
_ccdc_geom_bond_type
C25   O9    1.223661 D    
C27   O14   1.395383 S    
O28   H22   1.012690 S    
O18   H17   1.012966 S    
C23   C24   1.552983 S    
C30   O19   1.222650 D    
Cu2   N1    2.046632 S    
O22   H19   1.014058 S    
C8    N8    1.432448 S    
O20   H18   1.009800 S    
C15   C18   1.408007 A    
O5    C3    1.330817 A    
C16   C17   1.406851 A    
O1    C1    1.306286 A    
C9    C11   1.408031 A    
C14   C16   1.411981 A    
N1    C34   1.420907 S    
C5    C15   1.416313 A    
O4    Cu1   1.988932 S    
C30   O20   1.395213 S    
N1    C23   1.337343 D    
C32   O23   1.219760 D    
N7    H10   1.040964 S    
C13   C17   1.413955 A    
C8    C10   1.403857 A    
O12   H14   1.003258 S    
N4    H4    1.039244 S    
C26   O11   1.220620 D    
Cu1   Cu2   2.724274 S    
O2    C2    1.308990 A    
N8    H12   1.044703 S    
C20   C29   1.482799 S    
C1    C19   1.456488 S    
C6    C16   1.422889 A    
N3    H2    1.043369 S    
N6    H8    1.041511 S    
C26   O12   1.390056 S    
C4    C17   1.492582 S    
C28   O15   1.222504 D    
O4    C2    1.309729 A    
C6    N6    1.435441 S    
C12   C26   1.481876 S    
C31   O22   1.395968 S    
C23   C32   1.481772 S    
O24   H20   1.014004 S    
C24   C31   1.475290 S    
C31   O21   1.220615 D    
C28   O16   1.397129 S    
C21   C28   1.490220 S    
O7    Cu2   1.972937 S    
N3    H1    1.042579 S    
C34   O28   1.395585 S    
N5    H6    1.045538 S    
C21   C22   1.502383 S    
O6    C4    1.325070 A    
O7    C3    1.296375 A    
O3    Cu2   1.988932 S    
O8    C4    1.302870 A    
N4    H3    1.044349 S    
C32   O24   1.395377 S    
C10   C12   1.410316 A    
N7    H9    1.042314 S    
C25   O10   1.391626 S    
N5    H5    1.045573 S    
C12   C14   1.423362 A    
O1    Cu1   1.994628 S    
C7    N7    1.427625 S    
C34   O27   1.223262 D    
N8    H11   1.043566 S    
C29   O18   1.395829 S    
C5    C7    1.406317 A    
N6    H7    1.043112 S    
C11   C25   1.492998 S    
O6    Cu2   1.958642 S    
C2    C20   1.474631 S    
C14   C18   1.438782 A    
C22   C27   1.475717 S    
O3    C1    1.304598 A    
O8    Cu1   1.972935 S    
C19   C30   1.473454 S    
C11   C13   1.413427 A    
C5    N5    1.434253 S    
Cu1   N2    2.046631 S    
C19   C21   1.362728 D    
C20   C22   1.359007 D    
C10   N3    1.435498 S    
O10   H13   1.012954 S    
C3    C18   1.492927 S    
C7    C9    1.409170 A    
N2    C24   1.333327 D    
N2    C33   1.417702 S    
C13   C15   1.399932 A    
O16   H16   1.013101 S    
O2    Cu2   1.994627 S    
C9    N4    1.433812 S    
C27   O13   1.221967 D    
O5    Cu1   1.958642 S    
C29   O17   1.221003 D    
C33   O25   1.217560 D    
C6    C8    1.399676 A    
O14   H15   1.010617 S    
C33   O26   1.393455 S    
O26   H21   1.013823 S    
