data_mof_unit_21052.cif
_audit_creation_date              2012-10-26T20:40:13-0400
_audit_creation_method            fapswitch 2.2
_symmetry_space_group_name_H-M    P1
_symmetry_Int_Tables_number       1
_space_group_crystal_system       triclinic
_cell_length_a                    15.079281
_cell_length_b                    10.854292
_cell_length_c                    9.594882
_cell_angle_alpha                 88.126498
_cell_angle_beta                  90.387647
_cell_angle_gamma                 92.081643
_cell_volume                      1568.54177467

loop_
_atom_site_label
_atom_site_type_symbol
_atom_type_description
_atom_site_fract_x
_atom_site_fract_y
_atom_site_fract_z
_atom_type_partial_charge
C1    C     C_R   0.499769 0.261695 0.503452 0.548748
C2    C     C_R   0.185035 0.466051 0.618566 -0.182719
C3    C     C_R   0.231748 0.500797 0.496832 0.005831
C4    C     C_R   0.328730 0.499471 0.499247 0.590863
C5    C     C_R   0.185597 0.540840 0.375619 0.241274
C6    C     C_R   0.437591 0.101447 0.755822 -0.102579
C7    C     C_R   0.391963 0.029105 0.856616 0.224392
C8    C     C_R   0.358707 0.912609 0.822680 -0.088295
C9    C     C_R   0.378271 0.863979 0.693212 0.262755
C10   C     C_R   0.440832 0.927552 0.604542 0.021470
C11   C     C_R   0.459709 0.054189 0.624708 -0.061439
C12   C     C_R   0.906427 0.533123 0.376438 0.023195
C13   C     C_R   0.498769 0.126284 0.511844 0.006012
C14   C     C_R   0.532149 0.067277 0.396715 -0.150309
C15   C     C_R   0.527596 0.940235 0.390760 -0.183425
C16   C     C_R   0.493661 0.736707 0.497909 0.575210
C17   C     C_R   0.483303 0.869677 0.494452 0.010494
C18   C     C_R   0.617147 0.663187 0.139805 -0.082689
C19   C     C_R   0.675589 0.741965 0.065888 0.334078
C20   C     C_R   0.676870 0.740700 0.922395 -0.119683
C21   C     C_R   0.619443 0.661181 0.852095 -0.134975
C22   C     C_R   0.558625 0.579057 0.923183 0.126455
C23   C     C_R   0.954135 0.439843 0.746387 0.376233
C24   C     C_R   0.558135 0.579502 0.072619 0.050737
C25   C     C_R   0.441378 0.427460 0.076733 0.405996
C26   C     C_R   0.442903 0.427016 0.927476 0.005901
C27   C     C_R   0.671191 0.500477 0.500398 0.535998
C28   C     C_R   0.814164 0.531825 0.377685 -0.104729
C29   C     C_R   0.767964 0.501631 0.500990 -0.029510
C30   C     C_R   0.814312 0.472322 0.624181 -0.106588
C31   C     C_R   0.906907 0.471369 0.624436 0.026211
C32   C     C_R   0.953193 0.502236 0.499822 0.009708
C33   C     C_3   0.413495 0.020564 0.091338 -0.103975
C34   C     C_R   0.046531 0.437860 0.744139 -0.085378
C35   C     C_3   0.238835 0.780170 0.652541 -0.136842
C36   C     C_3   0.296611 0.350467 0.098655 -0.091034
C37   C     C_3   0.248973 0.709326 0.263600 -0.119611
C38   C     C_R   0.092849 0.468730 0.621001 -0.067579
C39   C     C_R   0.046277 0.502334 0.498473 -0.002726
C40   C     C_R   0.092517 0.536485 0.374751 0.025927
C41   C     C_R   0.044816 0.566904 0.252779 -0.108439
C42   C     C_R   0.952520 0.564723 0.253599 -0.102206
Cu1   Cu    Cu3+1 0.499990 0.499990 0.640660 0.957377
Cu2   Cu    Cu3+1 0.500010 0.500010 0.359340 1.011902
F1    F     F_    0.731247 0.820405 0.134529 -0.636918
F2    F     F_    0.911075 0.410281 0.867460 -0.644150
H1    H     H_    0.778423 0.555343 0.282635 0.154679
H2    H     H_    0.081920 0.412564 0.838935 0.131438
H3    H     H_    0.220569 0.437670 0.712218 0.129050
H4    H     H_    0.078559 0.592129 0.156148 0.157741
H5    H     H_    0.917165 0.588326 0.158229 0.164020
H6    H     H_    0.564290 0.119691 0.311982 0.155008
H7    H     H_    0.486793 0.027982 0.077658 0.134111
H8    H     H_    0.390858 0.922244 0.104094 0.097157
H9    H     H_    0.397336 0.066469 0.189059 0.175683
H10   H     H_    0.204538 0.729172 0.569183 0.130135
H11   H     H_    0.221423 0.878485 0.634427 0.109860
H12   H     H_    0.458553 0.190934 0.788882 0.174590
H13   H     H_    0.212052 0.744244 0.754082 0.132246
H14   H     H_    0.288008 0.282456 0.015465 0.144470
H15   H     H_    0.277972 0.443388 0.058092 0.135616
H16   H     H_    0.249623 0.322403 0.183319 0.166127
H17   H     H_    0.280142 0.742297 0.164209 0.131121
H18   H     H_    0.296713 0.730630 0.349039 0.154753
H19   H     H_    0.187217 0.760966 0.276118 0.107368
H20   H     H_    0.314756 0.861861 0.894485 0.114441
H21   H     H_    0.559736 0.896997 0.305330 0.154202
H22   H     H_    0.620844 0.672491 0.249272 0.196001
H23   H     H_    0.722379 0.802313 0.864605 0.154802
H24   H     H_    0.625665 0.669248 0.742196 0.188094
H25   H     H_    0.778158 0.448693 0.719177 0.194574
H26   H     H_    0.397304 0.367404 0.871541 0.108780
N1    N     N_R   0.500860 0.501210 0.147910 -0.231054
N2    N     N_R   0.500890 0.501290 0.852040 -0.262883
O1    O     O_R   0.499990 0.319640 0.618810 -0.528695
O2    O     O_3   0.331228 0.761105 0.646187 -0.557189
O3    O     O_3   0.383823 0.349455 0.153567 -0.521847
O4    O     O_3   0.231002 0.581186 0.256747 -0.580521
O5    O     O_R   0.500000 0.319660 0.381240 -0.457217
O6    O     O_R   0.370250 0.499960 0.618800 -0.493463
O7    O     O_R   0.370260 0.499980 0.381230 -0.420060
O8    O     O_R   0.500000 0.680340 0.618760 -0.485818
O9    O     O_R   0.500010 0.680360 0.381190 -0.551551
O10   O     O_R   0.629740 0.500020 0.618770 -0.527101
O11   O     O_R   0.629750 0.500040 0.381200 -0.527863
O12   O     O_3   0.369300 0.080935 0.980384 -0.581772

loop_
_geom_bond_atom_site_label_1
_geom_bond_atom_site_label_2
_ccdc_geom_bond_type
C33   H9    S    
C28   H1    S    
C8    H20   S    
C27   C29   S    
C26   H26   S    
C41   C42   A    
C6    H12   S    
C19   C20   A    
Cu1   Cu2   S    
Cu2   O9    S    
C30   H25   S    
C7    C8    A    
C12   C28   A    
C25   O3    S    
C27   O10   A    
C4    O6    A    
C36   O3    S    
C30   C31   A    
C24   N1    A    
C7    O12   S    
C10   C17   A    
C18   H22   S    
C35   H13   S    
C18   C19   A    
C32   C39   A    
C27   O11   A    
C12   C42   A    
C14   H6    S    
C4    O7    A    
C8    C9    A    
C37   H19   S    
C18   C24   A    
C9    O2    S    
C9    C10   A    
C42   H5    S    
Cu1   N2    S    
C23   F2    S    
C13   C14   A    
C12   C32   A    
Cu1   O1    S    
Cu1   O10   S    
C36   H16   S    
C37   H17   S    
C33   H7    S    
C35   O2    S    
C1    O1    A    
Cu2   O7    S    
C6    C11   A    
C16   C17   S    
C36   H14   S    
C25   C26   A    
C16   O9    A    
C23   C31   A    
C33   O12   S    
C29   C30   A    
C2    H3    S    
C2    C38   A    
C31   C32   A    
C23   C34   A    
C15   H21   S    
C16   O8    A    
Cu2   O11   S    
C40   C41   A    
C1    O5    A    
C22   C24   A    
C20   H23   S    
C34   H2    S    
C22   N2    A    
C3    C4    S    
C41   H4    S    
C39   C40   A    
C37   H18   S    
C33   H8    S    
C15   C17   A    
C28   C29   A    
C35   H10   S    
C34   C38   A    
Cu2   O5    S    
C3    C5    A    
C19   F1    S    
C6    C7    A    
C37   O4    S    
C21   H24   S    
C35   H11   S    
C2    C3    A    
Cu1   O6    S    
C11   C13   A    
C38   C39   A    
C26   N2    A    
C25   N1    A    
Cu2   N1    S    
C10   C11   A    
C1    C13   S    
C20   C21   A    
C5    C40   A    
Cu1   O8    S    
C14   C15   A    
C5    O4    S    
C21   C22   A    
C36   H15   S    
