data_mof_unit_42861.cif
_audit_creation_date              2012-12-10T17:43:41-0500
_audit_creation_method            fapswitch 2.2
_symmetry_space_group_name_H-M    P1
_symmetry_Int_Tables_number       1
_space_group_crystal_system       triclinic
_cell_length_a                    15.013526
_cell_length_b                    10.629817
_cell_length_c                    9.914045
_cell_angle_alpha                 90.082361
_cell_angle_beta                  90.280558
_cell_angle_gamma                 91.738766
_cell_volume                      1581.4432353

loop_
_atom_site_label
_atom_site_type_symbol
_atom_type_description
_atom_site_fract_x
_atom_site_fract_y
_atom_site_fract_z
_atom_type_partial_charge
C1    C     C_R   0.501603 0.260866 0.499922 0.871063
C2    C     C_R   0.184608 0.474767 0.616940 -0.270396
C3    C     C_R   0.230594 0.501888 0.497827 -0.230815
C4    C     C_R   0.326679 0.500650 0.499459 0.889488
C5    C     C_R   0.184821 0.529631 0.378073 0.638744
C6    C     C_R   0.657435 0.136475 0.598100 -0.144194
C7    C     C_R   0.731458 0.073288 0.644911 -0.122343
C8    C     C_R   0.730849 0.942397 0.644143 -0.131649
C9    C     C_R   0.656140 0.874374 0.596877 -0.155520
C10   C     C_R   0.579887 0.937054 0.550178 0.052200
C11   C     C_R   0.580936 0.068779 0.550458 0.096978
C12   C     C_R   0.906482 0.527026 0.379483 0.047847
C13   C     C_R   0.505803 0.128937 0.499513 -0.179432
C14   C     C_R   0.432043 0.063603 0.447134 -0.215102
C15   C     C_R   0.428620 0.934757 0.449100 0.451234
C16   C     C_R   0.500717 0.739298 0.500100 0.856682
C17   C     C_R   0.502911 0.871945 0.500634 -0.222446
C18   C     C_R   0.382527 0.335913 0.139127 -0.086435
C19   C     C_R   0.324391 0.255285 0.068480 -0.139787
C20   C     C_R   0.324422 0.255066 0.928847 -0.185953
C21   C     C_R   0.382619 0.335428 0.859039 -0.158228
C22   C     C_R   0.442117 0.419002 0.927214 0.174003
C23   C     C_R   0.954065 0.447612 0.739149 0.605359
C24   C     C_R   0.442092 0.419145 0.071806 0.181561
C25   C     C_R   0.555489 0.577286 0.072019 -0.085446
C26   C     C_R   0.555455 0.577278 0.928901 -0.092018
C27   C     C_R   0.673182 0.500315 0.500275 0.852544
C28   C     C_R   0.814488 0.526710 0.380985 -0.184378
C29   C     C_R   0.768939 0.500441 0.500590 -0.099692
C30   C     C_R   0.814730 0.474132 0.619859 -0.223535
C31   C     C_R   0.907078 0.473937 0.620378 -0.008115
C32   C     C_R   0.953229 0.500669 0.499339 0.027369
C33   C     C_R   0.046581 0.447876 0.737724 -0.230719
C34   C     C_R   0.092576 0.474551 0.618167 0.050058
C35   C     C_R   0.046041 0.501198 0.498100 -0.096251
C36   C     C_R   0.092176 0.528590 0.377028 -0.153608
C37   C     C_R   0.044489 0.554383 0.258112 0.702275
C38   C     C_R   0.952097 0.553415 0.259904 -0.301430
F1    F     F_    0.910711 0.421819 0.856303 -0.670754
F2    F     F_    0.230324 0.559513 0.263617 -0.591862
F3    F     F_    0.086426 0.580095 0.139807 -0.594611
H1    H     H_    0.778463 0.547760 0.289010 0.164327
H2    H     H_    0.379000 0.329125 0.752049 0.202244
H3    H     H_    0.778415 0.453022 0.711745 0.211104
H4    H     H_    0.600762 0.640458 0.875518 0.148501
H5    H     H_    0.082276 0.427414 0.830068 0.202648
H6    H     H_    0.220363 0.453071 0.708949 0.194314
H7    H     H_    0.916176 0.573375 0.167622 0.199717
H8    H     H_    0.375366 0.113496 0.408231 0.157422
H9    H     H_    0.349416 0.785607 0.428210 0.345268
H10   H     H_    0.661172 0.238171 0.598262 0.143857
H11   H     H_    0.789666 0.126079 0.680867 0.159058
H12   H     H_    0.788613 0.893345 0.679524 0.150667
H13   H     H_    0.659281 0.772894 0.596327 0.140184
H14   H     H_    0.600850 0.640441 0.126171 0.145010
H15   H     H_    0.378874 0.330143 0.246076 0.189495
H16   H     H_    0.279192 0.192381 0.122596 0.165732
H17   H     H_    0.279204 0.192033 0.874070 0.163608
N1    N     N_R   0.499150 0.498800 0.142780 -0.120823
N2    N     N_R   0.499120 0.498720 0.857170 -0.122687
O1    O     O_R   0.500000 0.316780 0.614690 -0.638499
O2    O     O_R   0.499990 0.316750 0.385360 -0.639017
O3    O     O_R   0.367850 0.499980 0.614680 -0.642369
O4    O     O_R   0.367840 0.499960 0.385350 -0.576026
O5    O     O_R   0.500010 0.683250 0.614640 -0.610117
O6    O     O_R   0.500000 0.683220 0.385310 -0.596968
O7    O     O_R   0.632160 0.500040 0.614650 -0.635495
O8    O     O_R   0.632150 0.500020 0.385320 -0.620776
O9    O     O_3   0.351402 0.875197 0.401541 -0.729004
Zn1   Zn    Zn3+2 0.500010 0.500020 0.653130 0.945280
Zn2   Zn    Zn3+2 0.499990 0.499980 0.346870 0.980657

loop_
_geom_bond_atom_site_label_1
_geom_bond_atom_site_label_2
_ccdc_geom_bond_type
C8    H12   S    
O1    Zn1   S    
C5    C36   A    
C6    C7    A    
C16   O5    A    
C18   H15   S    
C2    H6    S    
C27   C29   S    
C9    C10   A    
C4    O4    A    
C38   H7    S    
C31   C32   A    
C26   H4    S    
O3    Zn1   S    
N2    Zn1   S    
C7    H11   S    
O7    Zn1   S    
C1    O2    A    
C2    C34   A    
C19   C20   A    
C33   C34   A    
C7    C8    A    
C21   H2    S    
C21   C22   A    
C19   H16   S    
C37   F3    S    
C33   H5    S    
C11   C13   A    
C4    O3    A    
C30   H3    S    
C29   C30   A    
C16   O6    A    
C35   C36   A    
C12   C28   A    
O8    Zn2   S    
C23   F1    S    
C28   H1    S    
C36   C37   A    
C37   C38   A    
O2    Zn2   S    
C2    C3    A    
C23   C31   A    
C24   N1    A    
C22   N2    A    
C30   C31   A    
C15   O9    S    
C22   C24   A    
O4    Zn2   S    
C12   C38   A    
C1    C13   S    
C10   C11   A    
C10   C17   A    
C20   H17   S    
O5    Zn1   S    
C14   H8    S    
C32   C35   A    
C25   H14   S    
C27   O7    A    
C20   C21   A    
C18   C24   A    
C34   C35   A    
C5    F2    S    
C6    C11   A    
C15   C17   A    
C18   C19   A    
C14   C15   A    
C28   C29   A    
C9    H13   S    
C25   N1    A    
C27   O8    A    
C23   C33   A    
C25   C26   A    
C13   C14   A    
C26   N2    A    
H9    O9    S    
C12   C32   A    
C3    C4    S    
O6    Zn2   S    
C16   C17   S    
N1    Zn2   S    
C8    C9    A    
C3    C5    A    
C6    H10   S    
C1    O1    A    
