data_mof_unit_60117.cif
_audit_creation_date              2012-12-10T19:39:55-0500
_audit_creation_method            fapswitch 2.2
_symmetry_space_group_name_H-M    P1
_symmetry_Int_Tables_number       1
_space_group_crystal_system       triclinic
_cell_length_a                    15.787417
_cell_length_b                    17.035411
_cell_length_c                    19.333886
_cell_angle_alpha                 90.109379
_cell_angle_beta                  92.446187
_cell_angle_gamma                 95.128456
_cell_volume                      5174.13400498

loop_
_atom_site_label
_atom_site_type_symbol
_atom_type_description
_atom_site_fract_x
_atom_site_fract_y
_atom_site_fract_z
_atom_type_partial_charge
C1    C     C_R   0.490639 0.348772 0.500494 0.853686
C2    C     C_R   0.509368 0.651237 0.499426 0.853353
C3    C     C_R   0.489544 0.262894 0.504316 -0.164770
C4    C     C_R   0.510527 0.737112 0.495170 -0.165127
C5    C     C_R   0.536975 0.223291 0.457358 -0.135985
C6    C     C_R   0.462576 0.777051 0.541512 -0.135892
C7    C     C_R   0.548509 0.143338 0.467193 -0.098760
C8    C     C_R   0.451425 0.857011 0.531256 -0.098695
C9    C     C_R   0.506825 0.101123 0.520738 0.235447
C10   C     C_R   0.493985 0.898915 0.477982 0.235676
C11   C     C_R   0.465019 0.142162 0.570395 0.135698
C12   C     C_R   0.536288 0.857558 0.428867 0.135543
C13   C     C_R   0.454549 0.222755 0.561596 0.080503
C14   C     C_R   0.546373 0.776944 0.438053 0.080725
C15   C     C_R   0.752802 0.463568 0.465082 0.048949
C16   C     C_R   0.247182 0.536270 0.535044 0.048832
C17   C     C_R   0.842069 0.465824 0.467312 -0.278639
C18   C     C_R   0.157916 0.534019 0.532804 -0.278586
C19   C     C_R   0.891039 0.516142 0.514883 0.339847
C20   C     C_R   0.108960 0.483875 0.485089 0.339806
C21   C     C_R   0.847159 0.562873 0.558878 0.045933
C22   C     C_R   0.152854 0.437304 0.440968 0.045921
C23   C     C_R   0.500139 0.499613 0.367261 0.830991
C24   C     C_R   0.499861 0.500376 0.632739 0.830993
C25   C     C_R   0.757730 0.558660 0.554711 0.036436
C26   C     C_R   0.242283 0.441505 0.445152 0.036247
C27   C     C_R   0.423447 0.495007 0.251840 -0.196675
C28   C     C_R   0.576553 0.504928 0.748159 -0.196491
C29   C     C_R   0.423142 0.494588 0.179644 -0.042456
C30   C     C_R   0.576858 0.505312 0.820356 -0.042455
C31   C     C_R   0.500904 0.498449 0.145793 -0.038676
C32   C     C_R   0.499097 0.501436 0.854208 -0.038612
C33   C     C_R   0.578284 0.502150 0.185391 0.179130
C34   C     C_R   0.421716 0.497745 0.814611 0.179177
C35   C     C_R   0.577502 0.502454 0.257484 -0.157632
C36   C     C_R   0.422496 0.497475 0.742518 -0.158191
C37   C     C_R   0.500411 0.499091 0.291202 -0.077109
C38   C     C_R   0.499588 0.500863 0.708799 -0.077273
C39   C     C_R   0.498812 0.501054 0.930080 0.420725
C40   C     C_R   0.501193 0.498824 0.069922 0.420734
Cu1   Cu    Cu3+1 0.415220 0.496180 0.496660 0.984916
Cu2   Cu    Cu3+1 0.584780 0.503820 0.503340 0.985009
H1    H     H_    0.363347 0.492454 0.277254 0.167785
H2    H     H_    0.636652 0.507493 0.722744 0.167806
H3    H     H_    0.127962 0.571273 0.568098 0.196485
H4    H     H_    0.872010 0.428430 0.432130 0.196421
H5    H     H_    0.724562 0.594738 0.588733 0.153427
H6    H     H_    0.275462 0.405551 0.411031 0.153396
H7    H     H_    0.637497 0.504919 0.287087 0.181139
H8    H     H_    0.362501 0.495018 0.712916 0.180986
H9    H     H_    0.284077 0.574949 0.571678 0.158308
H10   H     H_    0.715893 0.424753 0.428561 0.158035
N1    N     N_R   0.544589 0.558424 0.036307 -0.174185
N2    N     N_R   0.455416 0.441453 0.963694 -0.174119
N3    N     N_R   0.543635 0.559395 0.967495 -0.195011
N4    N     N_R   0.456370 0.440482 0.032506 -0.194953
N5    N     N_2   0.508404 0.018146 0.527261 -0.200947
N6    N     N_2   0.492720 0.981900 0.471253 -0.201102
N7    N     N_R   0.712130 0.509560 0.508360 -0.187062
N8    N     N_R   0.287870 0.490440 0.491640 -0.187126
N9    N     N_2   0.982600 0.521617 0.520319 -0.193667
N10   N     N_2   0.017399 0.478402 0.479648 -0.193648
O1    O     O_R   0.420530 0.382500 0.496880 -0.560990
O2    O     O_R   0.579470 0.617500 0.503120 -0.560957
O3    O     O_R   0.563720 0.388950 0.502520 -0.581189
O4    O     O_R   0.436280 0.611050 0.497480 -0.581111
O5    O     O_R   0.428380 0.496760 0.397320 -0.591954
O6    O     O_R   0.571620 0.503240 0.602680 -0.591764
O7    O     O_R   0.571570 0.503220 0.402960 -0.576655
O8    O     O_R   0.428430 0.496780 0.597040 -0.576868
I1    I     I_    0.913481 0.640406 0.632409 -0.256118
I2    I     I_    0.086556 0.360044 0.367210 -0.256273
C41   C     C_1   0.342215 0.492420 0.141489 0.302864
N11   N     N_1   0.277414 0.490701 0.110937 -0.193387
C42   C     C_1   0.657786 0.507464 0.858508 0.302867
N12   N     N_1   0.722587 0.509171 0.889058 -0.193406
I3    I     I_    0.698865 0.502614 0.140493 -0.204366
I4    I     I_    0.301135 0.497254 0.859514 -0.204649
C43   C     C_1   0.423744 0.735546 0.599418 0.279354
N13   N     N_1   0.392952 0.702465 0.645559 -0.267689
C44   C     C_1   0.574993 0.265189 0.399303 0.278410
N14   N     N_1   0.605142 0.298588 0.353054 -0.267825
C45   C     C_1   0.386847 0.892257 0.568716 0.355712
N15   N     N_1   0.333651 0.918690 0.598092 -0.200611
C46   C     C_1   0.612764 0.108534 0.429027 0.355854
N16   N     N_1   0.665734 0.082529 0.399060 -0.200300
I5    I     I_    0.426898 0.083133 0.662637 -0.175592
I6    I     I_    0.575810 0.916107 0.336801 -0.175155
I7    I     I_    0.391302 0.285497 0.637451 -0.236182
I8    I     I_    0.610347 0.713758 0.362944 -0.236245

loop_
_geom_bond_atom_site_label_1
_geom_bond_atom_site_label_2
_ccdc_geom_bond_type
C27   C29   A    
C8    C45   S    
Cu1   Cu2   S    
C23   O7    A    
C16   H9    S    
C44   N14   T    
C6    C43   S    
C24   O8    A    
Cu1   O5    S    
C46   N16   T    
C21   I1    S    
C35   C37   A    
C19   N9    S    
C16   N8    A    
C39   N2    A    
C29   C41   S    
C31   C40   S    
C7    C9    A    
C41   N11   T    
C32   C39   S    
C23   O5    A    
C14   I8    S    
C17   C19   A    
C39   N3    A    
C11   I5    S    
C40   N4    A    
C35   H7    S    
Cu2   O3    S    
C1    O3    A    
C31   C33   A    
C25   H5    S    
C18   C20   A    
C3    C13   A    
C26   H6    S    
Cu2   O6    S    
C1    O1    A    
C22   I2    S    
C2    O2    A    
N1    N3    A    
N2    N4    A    
C12   I6    S    
C17   H4    S    
C4    C6    A    
C5    C7    A    
C6    C8    A    
C3    C5    A    
C23   C37   S    
C28   H2    S    
Cu2   O7    S    
C1    C3    S    
C32   C34   A    
C2    C4    S    
C42   N12   T    
C20   N10   S    
C5    C44   S    
C24   C38   S    
C45   N15   T    
C28   C38   A    
C15   H10   S    
C9    C11   A    
C10   C12   A    
C16   C18   A    
C20   C22   A    
Cu1   O1    S    
C18   H3    S    
Cu2   O2    S    
C36   H8    S    
C15   C17   A    
C21   C25   A    
C13   I7    S    
C15   N7    A    
Cu1   N8    S    
C12   C14   A    
C2    O4    A    
Cu2   N7    S    
Cu1   O4    S    
C36   C38   A    
C29   C31   A    
C34   I4    S    
C30   C32   A    
C30   C42   S    
C11   C13   A    
C33   I3    S    
N5    N6    D    
C7    C46   S    
C27   C37   A    
C28   C30   A    
C33   C35   A    
C34   C36   A    
C9    N5    S    
C4    C14   A    
N9    N10   D    
C24   O6    A    
C43   N13   T    
C27   H1    S    
C8    C10   A    
C40   N1    A    
C22   C26   A    
C10   N6    S    
C25   N7    A    
C26   N8    A    
Cu1   O8    S    
C19   C21   A    
