data_mof_unit_37850.cif
_audit_creation_date              2012-12-11T15:24:33-0500
_audit_creation_method            fapswitch 2.2
_symmetry_space_group_name_H-M    P1
_symmetry_Int_Tables_number       1
_space_group_crystal_system       triclinic
_cell_length_a                    23.069059
_cell_length_b                    6.969444
_cell_length_c                    20.690257
_cell_angle_alpha                 89.977682
_cell_angle_beta                  93.077312
_cell_angle_gamma                 89.966966
_cell_volume                      3321.75108261

loop_
_atom_site_label
_atom_site_type_symbol
_atom_type_description
_atom_site_fract_x
_atom_site_fract_y
_atom_site_fract_z
_atom_type_partial_charge
O1    O     O_R   0.188030 0.379840 0.189340 -0.538315
O2    O     O_R   0.811970 0.620160 0.810660 -0.538315
O3    O     O_R   0.311970 0.879840 0.310660 -0.540909
O4    O     O_R   0.688030 0.120160 0.689340 -0.540909
O5    O     O_R   0.307090 0.708420 0.185790 -0.531577
O6    O     O_R   0.692910 0.291580 0.814210 -0.531577
O7    O     O_R   0.192910 0.208420 0.314210 -0.532271
O8    O     O_R   0.807090 0.791580 0.685790 -0.532272
C1    C     C_R   0.326591 0.541350 0.170682 0.732428
C2    C     C_R   0.673408 0.458650 0.829318 0.732428
C3    C     C_R   0.173411 0.041367 0.329319 0.741781
C4    C     C_R   0.826589 0.958633 0.670681 0.741781
O9    O     O_R   0.188180 0.709480 0.181650 -0.534942
O10   O     O_R   0.811820 0.290520 0.818350 -0.534943
O11   O     O_R   0.311820 0.209480 0.318350 -0.541334
O12   O     O_R   0.688180 0.790520 0.681650 -0.541335
O13   O     O_R   0.192210 0.880960 0.306500 -0.537744
O14   O     O_R   0.807790 0.119040 0.693500 -0.537744
O15   O     O_R   0.307790 0.380960 0.193500 -0.538734
O16   O     O_R   0.692210 0.619040 0.806500 -0.538734
C5    C     C_R   0.167714 0.540778 0.165815 0.680755
C6    C     C_R   0.832286 0.459222 0.834185 0.680756
C7    C     C_R   0.332221 0.040670 0.334106 0.679826
C8    C     C_R   0.667779 0.959330 0.665894 0.679826
O17   O     O_3   0.251460 0.546730 0.290970 -0.371147
O18   O     O_3   0.748540 0.453270 0.709030 -0.371147
O19   O     O_3   0.248540 0.046730 0.209030 -0.366119
O20   O     O_3   0.751460 0.953270 0.790970 -0.366119
V1    V     V_3+5 0.249730 0.821120 0.242400 1.534116
V2    V     V_3+5 0.750270 0.178880 0.757600 1.534116
V3    V     V_3+5 0.250270 0.321120 0.257600 1.523780
V4    V     V_3+5 0.749730 0.678880 0.742400 1.523780
C9    C     C_R   0.564157 0.042352 0.634277 -0.071836
C10   C     C_R   0.435843 0.957648 0.365723 -0.071836
C11   C     C_R   0.928630 0.595449 0.873822 -0.040693
C12   C     C_R   0.071369 0.404550 0.126178 -0.040693
C13   C     C_R   0.618125 0.969725 0.616858 -0.168035
C14   C     C_R   0.381874 0.030275 0.383142 -0.168035
C15   C     C_R   0.882041 0.469543 0.883262 -0.159186
C16   C     C_R   0.117959 0.530457 0.116738 -0.159187
C17   C     C_R   0.624932 0.908336 0.552915 -0.066184
C18   C     C_R   0.375068 0.091663 0.447084 -0.066184
C19   C     C_R   0.882964 0.354427 0.939329 -0.031474
C20   C     C_R   0.117036 0.645573 0.060671 -0.031474
C21   C     C_R   0.580023 0.942475 0.504169 -0.053636
C22   C     C_R   0.419976 0.057525 0.495831 -0.053636
C23   C     C_R   0.933425 0.348775 0.982032 -0.007203
C24   C     C_R   0.066575 0.651225 0.017968 -0.007203
C25   C     C_R   0.523722 0.993653 0.523486 -0.039327
C26   C     C_R   0.476278 0.006347 0.476514 -0.039327
C27   C     C_R   0.976342 0.493661 0.976575 0.005542
C28   C     C_R   0.023658 0.506339 0.023425 0.005542
C29   C     C_R   0.514880 0.032118 0.589804 -0.056883
C30   C     C_R   0.485120 0.967881 0.410196 -0.056883
C31   C     C_R   0.971939 0.625885 0.924227 -0.011317
C32   C     C_R   0.028060 0.374115 0.075773 -0.011317
C33   C     C_R   0.589643 0.933240 0.436970 0.326244
C34   C     C_R   0.410357 0.066760 0.563030 0.326244
C35   C     C_R   0.943165 0.201692 0.028927 0.352735
C36   C     C_R   0.056835 0.798308 0.971073 0.352735
C37   C     C_R   0.542888 0.946104 0.390657 0.328098
C38   C     C_R   0.457112 0.053896 0.609343 0.328098
C39   C     C_R   0.989951 0.214104 0.075131 0.356950
C40   C     C_R   0.010048 0.785896 0.924869 0.356950
C41   C     C_3   0.044030 0.097571 0.529139 -0.195781
C42   C     C_3   0.955970 0.902428 0.470861 -0.195781
C43   C     C_3   0.456005 0.597865 0.970815 -0.196023
C44   C     C_3   0.543995 0.402135 0.029185 -0.196023
C45   C     C_3   0.020521 0.903708 0.552678 0.414891
C46   C     C_3   0.979479 0.096292 0.447322 0.414891
C47   C     C_3   0.479516 0.403949 0.947291 0.412048
C48   C     C_3   0.520484 0.596050 0.052708 0.412048
C49   C     C_1   0.872013 0.964423 0.624998 -0.101178
C50   C     C_1   0.127987 0.035576 0.375002 -0.101178
C51   C     C_1   0.628004 0.464443 0.875024 -0.105660
C52   C     C_1   0.371996 0.535557 0.124976 -0.105661
C53   C     C_3   0.981161 0.171893 0.517755 -0.172826
C54   C     C_3   0.018839 0.828107 0.482246 -0.172826
C55   C     C_3   0.518873 0.671833 0.982275 -0.173720
C56   C     C_3   0.481127 0.328167 0.017725 -0.173720
C57   C     C_3   0.957506 0.978331 0.541192 -0.047341
C58   C     C_3   0.042494 0.021669 0.458808 -0.047340
C59   C     C_3   0.542531 0.478220 0.958854 -0.048288
C60   C     C_3   0.457469 0.521780 0.041146 -0.048288
C61   C     C_1   0.910395 0.967681 0.587128 0.101386
C62   C     C_1   0.089605 0.032319 0.412872 0.101386
C63   C     C_1   0.589640 0.467623 0.912916 0.098579
C64   C     C_1   0.410360 0.532377 0.087083 0.098579
C65   C     C_1   0.561550 0.135715 0.696754 0.410724
N1    N     N_1   0.559975 0.210639 0.746564 -0.262374
C66   C     C_1   0.438450 0.864285 0.303246 0.410724
N2    N     N_1   0.440024 0.789361 0.253436 -0.262374
C67   C     C_1   0.934959 0.672504 0.809393 0.438849
N3    N     N_1   0.939945 0.732368 0.757787 -0.259216
C68   C     C_1   0.065041 0.327493 0.190607 0.438850
N4    N     N_1   0.060056 0.267628 0.242212 -0.259218
C69   C     C_1   0.677189 0.802362 0.539803 0.405006
N5    N     N_1   0.718939 0.717194 0.530059 -0.272607
C70   C     C_1   0.322811 0.197638 0.460197 0.405005
N6    N     N_1   0.281061 0.282806 0.469941 -0.272607
C71   C     C_1   0.829391 0.261422 0.955596 0.427982
N7    N     N_1   0.786339 0.188644 0.968258 -0.271804
C72   C     C_1   0.170609 0.738579 0.044404 0.427983
N8    N     N_1   0.213660 0.811357 0.031742 -0.271804
Cl1   Cl    Cl    0.660745 0.936123 0.407833 -0.439955
Cl2   Cl    Cl    0.339255 0.063877 0.592167 -0.439955
Cl3   Cl    Cl    0.903041 0.983953 0.025515 -0.534750
Cl4   Cl    Cl    0.096959 0.016047 0.974485 -0.534750
Cl5   Cl    Cl    0.560091 0.965034 0.308138 -0.415007
Cl6   Cl    Cl    0.439909 0.034966 0.691862 -0.415007
Cl7   Cl    Cl    0.004836 0.010029 0.124902 -0.536915
Cl8   Cl    Cl    0.995164 0.989971 0.875098 -0.536915
Cl9   Cl    Cl    0.047949 0.775025 0.622254 -0.509909
Cl10  Cl    Cl    0.952051 0.224975 0.377746 -0.509909
Cl11  Cl    Cl    0.452138 0.275531 0.877680 -0.481606
Cl12  Cl    Cl    0.547862 0.724469 0.122320 -0.481606
C73   C     C_1   0.092032 0.205427 0.561202 0.484914
N9    N     N_1   0.129866 0.290604 0.586433 -0.189367
C74   C     C_1   0.907968 0.794573 0.438798 0.484914
N10   N     N_1   0.870134 0.709395 0.413567 -0.189368
C75   C     C_1   0.408112 0.706203 0.938634 0.483501
N11   N     N_1   0.370380 0.791797 0.913292 -0.193348
C76   C     C_1   0.591888 0.293797 0.061366 0.483501
N12   N     N_1   0.629620 0.208203 0.086708 -0.193348
C77   C     C_1   0.041955 0.644413 0.460449 0.423940
N13   N     N_1   0.060857 0.501449 0.442578 -0.322791
C78   C     C_1   0.958045 0.355587 0.539551 0.423939
N14   N     N_1   0.939143 0.498550 0.557422 -0.322790
C79   C     C_1   0.458001 0.144507 0.039510 0.425843
N15   N     N_1   0.439097 0.001574 0.057380 -0.320583
C80   C     C_1   0.541999 0.855493 0.960490 0.425843
N16   N     N_1   0.560903 0.998426 0.942620 -0.320583

loop_
_geom_bond_atom_site_label_1
_geom_bond_atom_site_label_2
_ccdc_geom_bond_type
C34   C38   A    
C59   C63   S    
O18   V4    S    
C67   N3    T    
O19   V1    S    
O13   V1    S    
O3    C7    A    
C68   N4    T    
C56   C60   S    
C37   Cl5   S    
C69   N5    T    
C76   N12   T    
C46   Cl10  S    
O1    C5    A    
C21   C33   A    
C71   N7    T    
O9    V1    S    
C14   C18   A    
C48   C55   S    
C11   C15   A    
O4    C8    A    
C25   C29   A    
C40   Cl8   S    
C43   C47   S    
O1    V3    S    
O2    V4    S    
C18   C22   A    
O3    V1    S    
C10   C66   S    
C12   C16   A    
C1    O15   A    
C2    O16   A    
O2    C6    A    
O14   V2    S    
C1    C52   S    
C21   C25   A    
C52   C64   T    
O5    V1    S    
C36   Cl4   S    
C44   C48   S    
O11   C7    A    
O15   V3    S    
C43   C60   S    
O12   C8    A    
C4    C49   S    
C22   C34   A    
C46   C53   S    
O17   V1    S    
C45   C54   S    
O10   V2    S    
C43   C75   S    
C44   C76   S    
C47   C56   S    
C20   C72   S    
C57   C61   S    
C24   C36   A    
C47   C59   S    
C11   C67   S    
C9    C29   A    
C42   C54   S    
C41   C53   S    
C33   Cl1   S    
C11   C31   A    
C27   C28   A    
O8    V4    S    
O20   V4    S    
O7    V3    S    
C66   N2    T    
C39   Cl7   S    
C15   C19   A    
C58   C62   S    
O19   V3    S    
C9    C13   A    
C34   Cl2   S    
O7    C3    A    
C19   C71   S    
O5    C1    A    
C12   C32   A    
C9    C65   S    
C2    C51   S    
C54   C58   S    
C70   N6    T    
C38   Cl6   S    
C53   C57   S    
O8    C4    A    
C55   C80   S    
C31   C40   A    
C8    C13   S    
C32   C39   A    
C47   Cl11  S    
C26   C30   A    
C50   C62   T    
C33   C37   A    
C49   C61   T    
C75   N11   T    
C48   C60   S    
C51   C63   T    
O6    V2    S    
C10   C30   A    
C42   C74   S    
C77   N13   T    
C17   C69   S    
C44   C56   S    
C79   N15   T    
O16   V4    S    
C48   Cl12  S    
C3    O13   A    
C41   C73   S    
C56   C79   S    
C10   C14   A    
C44   C59   S    
O17   V3    S    
C60   C64   S    
C3    C50   S    
C53   C78   S    
O6    C2    A    
C23   C27   A    
C74   N10   T    
O11   V3    S    
C30   C37   A    
O12   V4    S    
C7    C14   S    
C22   C26   A    
C35   C39   A    
C36   C40   A    
O10   C6    A    
O20   V2    S    
C73   N9    T    
O9    C5    A    
C42   C57   S    
C55   C59   S    
C12   C68   S    
C41   C58   S    
C42   C46   S    
C5    C16   S    
C28   C32   A    
C41   C45   S    
C6    C15   S    
C27   C31   A    
C13   C17   A    
C80   N16   T    
C46   C58   S    
C35   Cl3   S    
C45   C57   S    
C23   C35   A    
C45   Cl9   S    
C20   C24   A    
C16   C20   A    
C29   C38   A    
C25   C26   A    
C4    O14   A    
C72   N8    T    
C17   C21   A    
C65   N1    T    
C24   C28   A    
C54   C77   S    
C19   C23   A    
C43   C55   S    
O4    V2    S    
C78   N14   T    
C18   C70   S    
O18   V2    S    
