data_mof_unit_58701.cif
_audit_creation_date              2012-12-10T17:45:30-0500
_audit_creation_method            fapswitch 2.2
_symmetry_space_group_name_H-M    P1
_symmetry_Int_Tables_number       1
_space_group_crystal_system       triclinic
_cell_length_a                    11.516461
_cell_length_b                    10.66584
_cell_length_c                    9.878648
_cell_angle_alpha                 90.667295
_cell_angle_beta                  89.743048
_cell_angle_gamma                 92.185228
_cell_volume                      1212.44673543

loop_
_atom_site_label
_atom_site_type_symbol
_atom_type_description
_atom_site_fract_x
_atom_site_fract_y
_atom_site_fract_z
_atom_type_partial_charge
C1    C     C_R   0.510206 0.260379 0.499656 0.842633
C2    C     C_R   0.564968 0.059621 0.868688 0.474313
C3    C     C_R   0.491687 0.952710 0.876295 -0.282787
C4    C     C_R   0.446807 0.893591 0.759787 0.434487
C5    C     C_R   0.479838 0.940592 0.629962 -0.047710
C6    C     C_R   0.527543 0.062235 0.623716 0.002576
C7    C     C_R   0.518511 0.126426 0.500023 -0.070903
C8    C     C_R   0.493015 0.061518 0.379580 -0.219160
C9    C     C_R   0.473898 0.934230 0.382003 -0.215249
C10   C     C_R   0.471479 0.872253 0.505958 -0.124098
C11   C     C_R   0.345538 0.336108 0.138988 -0.256046
C12   C     C_R   0.281956 0.500173 0.500185 0.881545
C13   C     C_R   0.269246 0.253159 0.068020 0.510925
C14   C     C_R   0.270698 0.254723 0.927678 -0.260413
C15   C     C_R   0.344089 0.338353 0.858437 -0.219416
C16   C     C_R   0.421322 0.422291 0.927089 0.132994
C17   C     C_R   0.421850 0.421555 0.071617 -0.001773
C18   C     C_R   0.576897 0.574335 0.073606 0.515830
C19   C     C_R   0.576966 0.572464 0.928488 -0.234790
C20   C     C_R   0.487395 0.739125 0.501555 0.888115
C21   C     C_R   0.718096 0.500874 0.499768 0.907609
C22   C     C_1   0.161687 0.502953 0.500300 -0.224674
C23   C     C_1   0.059520 0.504491 0.499971 -0.030757
C24   C     C_1   0.940883 0.504099 0.499544 -0.002898
C25   C     C_1   0.838605 0.502692 0.499381 -0.191139
C26   C     C_R   0.581594 0.115382 0.740391 -0.305769
H1    H     H_    0.487346 0.108759 0.283405 0.194333
H2    H     H_    0.215422 0.188639 0.871103 0.161897
H3    H     H_    0.340196 0.331102 0.751113 0.225763
H4    H     H_    0.640700 0.627635 0.872103 0.156358
H5    H     H_    0.638865 0.197057 0.728569 0.169976
H6    H     H_    0.469686 0.914113 0.974458 0.167682
H7    H     H_    0.462795 0.884362 0.286426 0.175197
H8    H     H_    0.346237 0.328279 0.245742 0.208708
N1    N     N_R   0.498930 0.498800 0.142780 -0.140055
N2    N     N_R   0.498900 0.498720 0.857170 -0.115164
O1    O     O_R   0.500000 0.316780 0.614690 -0.639946
O2    O     O_R   0.499990 0.316750 0.385360 -0.651768
O3    O     O_R   0.334450 0.500030 0.614670 -0.615101
O4    O     O_R   0.334440 0.500000 0.385330 -0.633916
O5    O     O_R   0.500010 0.683250 0.614640 -0.565828
O6    O     O_R   0.500000 0.683220 0.385310 -0.599811
O7    O     O_R   0.665560 0.500000 0.614670 -0.632200
O8    O     O_R   0.665550 0.499970 0.385330 -0.557526
Zn1   Zn    Zn3+2 0.500010 0.500020 0.653130 0.948135
Zn2   Zn    Zn3+2 0.499990 0.499980 0.346870 0.962312
O9    O     O_3   0.618885 0.099908 0.988902 -0.660978
C27   C     C_3   0.660406 0.226480 0.990507 0.099653
H9    H     H_    0.647835 0.263814 0.094814 0.171386
H10   H     H_    0.610355 0.287736 0.924627 0.143115
C28   C     C_3   0.790695 0.235563 0.958066 -0.370970
H11   H     H_    0.839238 0.189770 0.039619 0.224972
H12   H     H_    0.808847 0.185944 0.861265 0.223509
C29   C     C_3   0.834334 0.372077 0.947418 -0.951769
H13   H     H_    0.790243 0.418621 0.862906 0.274542
H14   H     H_    0.929363 0.375774 0.927367 0.266157
H15   H     H_    0.817510 0.423688 0.043437 0.278679
O10   O     O_3   0.368807 0.792961 0.777984 -0.593061
C30   C     C_3   0.259160 0.817356 0.721428 0.145662
H16   H     H_    0.246174 0.758628 0.628752 0.136620
H17   H     H_    0.249048 0.917250 0.692254 0.068504
C31   C     C_3   0.162826 0.784669 0.823790 -0.384895
H18   H     H_    0.173287 0.847009 0.914240 0.225161
H19   H     H_    0.077333 0.802079 0.777224 0.175342
C32   C     C_3   0.163705 0.647980 0.868326 -0.730750
H20   H     H_    0.152550 0.583814 0.779841 0.255138
H21   H     H_    0.090847 0.628904 0.940118 0.219226
H22   H     H_    0.246431 0.628826 0.920157 0.280359
O11   O     O_3   0.661895 0.639068 0.149038 -0.618421
C33   C     C_3   0.691670 0.759918 0.099164 0.081554
H23   H     H_    0.687477 0.827103 0.185725 0.183455
H24   H     H_    0.630893 0.794165 0.022133 0.125652
C34   C     C_3   0.816385 0.762836 0.044664 -0.370851
H25   H     H_    0.876181 0.735285 0.126247 0.235952
H26   H     H_    0.823880 0.694598 0.959582 0.214997
C35   C     C_3   0.853425 0.893471 0.995628 -0.914322
H27   H     H_    0.797052 0.921492 0.911071 0.276130
H28   H     H_    0.944684 0.893475 0.959165 0.254699
H29   H     H_    0.847750 0.962785 0.079906 0.270377
O12   O     O_3   0.204283 0.157329 0.130075 -0.655689
C36   C     C_3   0.142325 0.197851 0.245809 0.065121
H30   H     H_    0.049947 0.166790 0.231434 0.172774
H31   H     H_    0.142288 0.301684 0.260678 0.125310
C37   C     C_3   0.188819 0.134485 0.372049 -0.332010
H32   H     H_    0.201663 0.033516 0.349766 0.243999
H33   H     H_    0.273974 0.178939 0.400283 0.206922
C38   C     C_3   0.105952 0.144496 0.492289 -0.979835
H34   H     H_    0.091303 0.244121 0.517497 0.274387
H35   H     H_    0.144151 0.099921 0.581927 0.253880
H36   H     H_    0.021318 0.095757 0.469008 0.267825

loop_
_geom_bond_atom_site_label_1
_geom_bond_atom_site_label_2
_ccdc_geom_bond_type
C38   H34   S    
C34   H25   S    
C37   C38   S    
C36   H30   S    
C7    C8    A    
O4    Zn2   S    
C37   H33   S    
C19   N2    A    
C5    C6    A    
C16   C17   A    
C15   C16   A    
C12   C22   S    
C18   C19   A    
O6    Zn2   S    
C31   H19   S    
C21   O7    A    
C37   H32   S    
C27   C28   S    
C10   C20   S    
C8    C9    A    
C32   H21   S    
C23   C24   S    
C35   H29   S    
C33   H23   S    
C18   N1    A    
C1    O1    A    
O3    Zn1   S    
C18   O11   S    
C27   H10   S    
C13   O12   S    
C26   H5    S    
C13   C14   A    
C9    H7    S    
C34   H26   S    
C3    H6    S    
C20   O5    A    
C36   H31   S    
O8    Zn2   S    
C15   H3    S    
C29   H14   S    
C30   H17   S    
C28   H11   S    
C24   C25   T    
O12   C36   S    
O10   C30   S    
C28   H12   S    
C12   O4    A    
C31   H18   S    
C21   O8    A    
O9    C27   S    
C14   C15   A    
C32   H22   S    
C33   C34   S    
N2    Zn1   S    
C2    C26   A    
C35   H27   S    
O7    Zn1   S    
C1    O2    A    
C27   H9    S    
C38   H35   S    
C34   C35   S    
O1    Zn1   S    
C3    C4    A    
C36   C37   S    
C9    C10   A    
C21   C25   S    
C29   H13   S    
C11   C17   A    
C30   C31   S    
C31   C32   S    
C1    C7    S    
C11   H8    S    
C35   H28   S    
C4    C5    A    
C20   O6    A    
C6    C7    A    
C2    O9    S    
N1    Zn2   S    
C28   C29   S    
C12   O3    A    
C2    C3    A    
C5    C10   A    
C16   N2    A    
C11   C13   A    
C6    C26   A    
O11   C33   S    
O2    Zn2   S    
C30   H16   S    
C32   H20   S    
C38   H36   S    
C4    O10   S    
C8    H1    S    
O5    Zn1   S    
C22   C23   T    
C33   H24   S    
C17   N1    A    
C14   H2    S    
C19   H4    S    
C29   H15   S    
