data_mof_unit_16033.cif
_audit_creation_date              2012-12-10T17:24:47-0500
_audit_creation_method            fapswitch 2.2
_symmetry_space_group_name_H-M    P1
_symmetry_Int_Tables_number       1
_space_group_crystal_system       triclinic
_cell_length_a                    23.50453
_cell_length_b                    10.86299
_cell_length_c                    9.570497
_cell_angle_alpha                 90.559113
_cell_angle_beta                  89.844438
_cell_angle_gamma                 92.514664
_cell_volume                      2441.15418223

loop_
_atom_site_label
_atom_site_type_symbol
_atom_type_description
_atom_site_fract_x
_atom_site_fract_y
_atom_site_fract_z
_atom_type_partial_charge
C1    C     C_R   0.504460 0.263109 0.499994 0.790937
C2    C     C_R   0.966742 0.454222 0.745877 -0.098268
C3    C     C_R   0.026189 0.450948 0.750581 0.139118
C4    C     C_R   0.058736 0.480869 0.628452 -0.014540
C5    C     C_R   0.029915 0.517394 0.506360 -0.046809
C6    C     C_R   0.061204 0.552110 0.386311 -0.064845
C7    C     C_R   0.032715 0.586669 0.265436 -0.209322
C8    C     C_R   0.973500 0.586870 0.260681 0.394385
C9    C     C_R   0.118920 0.475620 0.622180 0.539780
C10   C     C_R   0.120733 0.551971 0.389099 0.556898
C11   C     C_R   0.237481 0.442765 0.399139 -0.092217
C12   C     C_R   0.391132 0.500183 0.500240 0.806635
C13   C     C_R   0.296786 0.441055 0.396828 -0.216382
C14   C     C_R   0.328892 0.503113 0.501079 -0.038321
C15   C     C_R   0.301171 0.568690 0.606162 -0.219608
C16   C     C_R   0.242004 0.573497 0.605980 -0.090660
C17   C     C_R   0.209626 0.509704 0.503209 0.335641
C18   C     C_R   0.760075 0.400636 0.504817 -0.104199
C19   C     C_R   0.700541 0.394496 0.504469 0.099805
C20   C     C_R   0.670863 0.505114 0.499729 -0.012260
C21   C     C_R   0.701495 0.620387 0.495851 0.094116
C22   C     C_R   0.761069 0.623277 0.495860 -0.088954
C23   C     C_R   0.497293 0.737795 0.501826 0.773453
C24   C     C_R   0.790285 0.514155 0.500455 0.258675
C25   C     C_R   0.541869 0.125099 0.750301 -0.154660
C26   C     C_R   0.537397 0.068382 0.879929 -0.151213
C27   C     C_R   0.509576 0.953548 0.890665 -0.145778
C28   C     C_R   0.491657 0.890088 0.770174 -0.165159
C29   C     C_R   0.501803 0.940758 0.635650 0.096471
C30   C     C_R   0.518569 0.066636 0.628945 0.099147
C31   C     C_R   0.510344 0.129606 0.501889 -0.121302
C32   C     C_R   0.500059 0.062673 0.378308 -0.204996
C33   C     C_R   0.495469 0.935496 0.380510 -0.208092
C34   C     C_R   0.608643 0.500720 0.499853 0.795315
C35   C     C_R   0.495891 0.872674 0.507672 -0.110463
C36   C     C_R   0.576045 0.663423 0.145405 -0.145141
C37   C     C_R   0.613258 0.742917 0.073557 -0.200693
C38   C     C_R   0.613334 0.742615 0.929627 -0.173251
C39   C     C_R   0.576052 0.663135 0.856773 -0.136750
C40   C     C_R   0.537352 0.580335 0.925676 0.189252
C41   C     C_R   0.537343 0.580367 0.075437 0.206649
C42   C     C_R   0.464665 0.423179 0.073369 -0.062041
C43   C     C_R   0.464684 0.423208 0.925283 -0.058868
C44   C     C_R   0.880636 0.551187 0.383016 0.585365
C45   C     C_R   0.878815 0.487356 0.621005 0.565042
C46   C     C_R   0.938373 0.486702 0.624184 -0.046005
C47   C     C_R   0.969710 0.519275 0.503653 -0.071799
C48   C     C_R   0.940887 0.553236 0.380533 -0.099003
Cu1   Cu    Cu3+1 0.500000 0.499990 0.640660 0.925920
Cu2   Cu    Cu3+1 0.500000 0.500010 0.359340 0.937396
H1    H     H_    0.942282 0.430618 0.838730 0.213197
H2    H     H_    0.785022 0.710796 0.493249 0.160808
H3    H     H_    0.495246 0.108554 0.279291 0.162625
H4    H     H_    0.564455 0.213836 0.746341 0.167142
H5    H     H_    0.553892 0.115296 0.972590 0.141905
H6    H     H_    0.502864 0.912277 0.992255 0.139999
H7    H     H_    0.467959 0.804216 0.786229 0.170462
H8    H     H_    0.490282 0.886436 0.281939 0.164223
H9    H     H_    0.435743 0.360258 0.128323 0.135884
H10   H     H_    0.579736 0.671493 0.255467 0.204741
H11   H     H_    0.642215 0.805377 0.130311 0.160499
H12   H     H_    0.642201 0.805117 0.873638 0.161727
H13   H     H_    0.579198 0.671944 0.746786 0.205334
H14   H     H_    0.435792 0.360262 0.869276 0.149093
H15   H     H_    0.056528 0.613024 0.172501 0.211206
H16   H     H_    0.213141 0.391973 0.319961 0.156521
H17   H     H_    0.317529 0.389427 0.315351 0.149688
H18   H     H_    0.325363 0.618083 0.686762 0.154446
H19   H     H_    0.221264 0.626694 0.686029 0.157476
H20   H     H_    0.783284 0.316665 0.508256 0.156429
N1    N     N_R   0.851388 0.518351 0.501689 -0.471094
N2    N     N_R   0.148354 0.512637 0.504879 -0.464406
N3    N     N_R   0.500540 0.501210 0.147910 -0.197226
N4    N     N_R   0.500560 0.501290 0.852040 -0.204246
O1    O     O_R   0.500000 0.319640 0.618810 -0.585321
O2    O     O_2   0.848336 0.457425 0.736506 -0.505854
O3    O     O_2   0.148117 0.431717 0.730498 -0.546586
O4    O     O_2   0.150933 0.591820 0.276866 -0.540916
O5    O     O_R   0.500000 0.319660 0.381240 -0.579717
O6    O     O_R   0.417880 0.499950 0.618810 -0.577577
O7    O     O_R   0.417880 0.499980 0.381240 -0.573711
O8    O     O_R   0.500000 0.680340 0.618760 -0.617013
O9    O     O_R   0.500000 0.680360 0.381190 -0.599515
O10   O     O_R   0.582120 0.500020 0.618760 -0.594276
O11   O     O_R   0.582120 0.500050 0.381190 -0.587041
O12   O     O_2   0.851048 0.580214 0.268451 -0.450215
C49   C     C_3   0.670974 0.268471 0.509320 -0.847731
H21   H     H_    0.624029 0.271333 0.506949 0.212076
H22   H     H_    0.684393 0.212708 0.418131 0.238997
H23   H     H_    0.682981 0.221354 0.606670 0.239298
C50   C     C_3   0.672853 0.742082 0.492747 -0.886742
H24   H     H_    0.625760 0.732373 0.494790 0.210507
H25   H     H_    0.686461 0.798730 0.584943 0.239146
H26   H     H_    0.685593 0.792266 0.396303 0.241625
C51   C     C_3   0.052433 0.417664 0.888500 -0.701944
H27   H     H_    0.082607 0.492923 0.924158 0.260186
H28   H     H_    0.020016 0.404497 0.972360 0.217029
H29   H     H_    0.074394 0.329669 0.877829 0.256644
Cl1   Cl    Cl    0.944157 0.630728 0.099902 -0.546184

loop_
_geom_bond_atom_site_label_1
_geom_bond_atom_site_label_2
_ccdc_geom_bond_type
C18   H20   S    
C49   H21   S    
C33   H8    S    
C23   O8    A    
C45   N1    A    
C51   H27   S    
C19   C20   A    
C9    N2    A    
Cu2   O5    S    
C10   O4    S    
C51   H29   S    
C7    C8    A    
C28   H7    S    
C2    C46   A    
C5    C47   A    
C26   C27   A    
C37   C38   A    
C23   O9    A    
C45   O2    S    
C18   C24   A    
C5    C6    A    
Cu1   O10   S    
C36   C37   A    
C8    Cl1   S    
C19   C49   S    
C13   H17   S    
C30   C31   A    
C50   H25   S    
C15   C16   A    
C1    C31   S    
C44   N1    A    
C18   C19   A    
Cu2   O11   S    
C11   C17   A    
C31   C32   A    
C16   C17   A    
Cu2   O9    S    
Cu1   O1    S    
C11   H16   S    
C20   C34   S    
C43   N4    A    
C21   C22   A    
C26   H5    S    
C36   C41   A    
C34   O10   A    
C44   O12   S    
C43   H14   S    
C1    O1    A    
C25   H4    S    
Cu2   N3    S    
C50   H24   S    
C27   H6    S    
C25   C26   A    
C45   C46   A    
C34   O11   A    
Cu1   O8    S    
C8    C48   A    
C29   C30   A    
C7    H15   S    
C47   C48   A    
C9    O3    S    
C40   C41   A    
C12   C14   S    
C23   C35   S    
C49   H22   S    
C1    O5    A    
C22   C24   A    
C42   C43   A    
C3    C4    A    
C32   H3    S    
C39   C40   A    
C22   H2    S    
C21   C50   S    
C25   C30   A    
C46   C47   A    
C28   C29   A    
C42   N3    A    
C14   C15   A    
C16   H19   S    
C4    C5    A    
C36   H10   S    
C42   H9    S    
C6    C10   A    
C37   H11   S    
C51   H28   S    
C6    C7    A    
C39   H13   S    
C29   C35   A    
Cu1   O6    S    
C32   C33   A    
C2    C3    A    
C50   H26   S    
C11   C13   A    
C38   C39   A    
C15   H18   S    
C12   O6    A    
C33   C35   A    
C40   N4    A    
C12   O7    A    
C2    H1    S    
C41   N3    A    
C20   C21   A    
C24   N1    S    
C17   N2    S    
Cu1   Cu2   S    
C49   H23   S    
C27   C28   A    
Cu1   N4    S    
C3    C51   S    
C4    C9    A    
C13   C14   A    
C44   C48   A    
Cu2   O7    S    
C38   H12   S    
C10   N2    A    
