data_mof_unit_54230.cif
_audit_creation_date              2012-12-11T15:35:30-0500
_audit_creation_method            fapswitch 2.2
_symmetry_space_group_name_H-M    P1
_symmetry_Int_Tables_number       1
_space_group_crystal_system       triclinic
_cell_length_a                    17.268456
_cell_length_b                    24.181801
_cell_length_c                    14.832132
_cell_angle_alpha                 90.00024
_cell_angle_beta                  124.958605
_cell_angle_gamma                 89.999889
_cell_volume                      5076.09553124

loop_
_atom_site_label
_atom_site_type_symbol
_atom_type_description
_atom_site_fract_x
_atom_site_fract_y
_atom_site_fract_z
_atom_type_partial_charge
C1    C     C_R   0.307844 0.122924 0.908552 -0.120322
C2    C     C_R   0.557952 0.152952 0.910419 -0.140837
C3    C     C_R   0.268564 0.546455 0.248831 -0.109381
C4    C     C_R   0.057952 0.347048 0.910418 -0.140838
C5    C     C_R   0.057953 0.652952 0.910419 -0.140838
C6    C     C_R   0.553122 1.000000 0.728034 0.043720
C7    C     C_R   0.053121 0.500000 0.728032 0.043718
C8    C     C_R   0.825253 0.999998 0.275494 -0.036478
C9    C     C_R   0.325254 0.499998 0.275512 -0.036489
C10   C     C_R   0.619100 0.184503 0.002259 0.039181
C11   C     C_R   0.619099 0.815496 0.002257 0.039184
C12   C     C_R   0.119102 0.684503 0.002260 0.039179
C13   C     C_R   0.307843 0.877076 0.908552 -0.120324
C14   C     C_R   0.119100 0.315497 0.002258 0.039183
C15   C     C_3   0.082067 0.948018 0.458846 -0.400913
C16   C     C_3   0.037608 0.000022 0.571019 -0.397310
C17   C     C_3   0.537642 0.500022 0.571020 -0.397275
C18   C     C_3   0.582105 0.551946 0.458755 -0.400899
C19   C     C_3   0.977949 0.948107 0.359504 -0.394368
C20   C     C_3   0.934656 0.000032 0.473182 -0.379119
C21   C     C_3   0.434683 0.500049 0.473201 -0.379171
C22   C     C_3   0.477990 0.551841 0.359390 -0.394277
C23   C     C_3   0.082107 0.051943 0.458798 -0.400906
C24   C     C_R   0.807842 0.622922 0.908551 -0.120328
C25   C     C_3   0.582083 0.448014 0.458815 -0.400894
C26   C     C_3   0.103011 0.999995 0.531161 0.388271
C27   C     C_3   0.603032 0.499995 0.531134 0.388272
C28   C     C_3   0.927009 0.999997 0.363783 0.384104
C29   C     C_3   0.427014 0.499995 0.363785 0.384115
C30   C     C_R   0.401611 0.875886 0.093211 -0.116545
C31   C     C_R   0.401611 0.124114 0.093211 -0.116545
C32   C     C_R   0.901611 0.375886 0.093210 -0.116543
C33   C     C_R   0.901610 0.624114 0.093210 -0.116545
C34   C     C_3   0.977992 0.051850 0.359441 -0.394366
C35   C     C_R   0.807842 0.377078 0.908551 -0.120332
C36   C     C_3   0.477948 0.448091 0.359517 -0.394401
C37   C     C_R   0.155981 0.816743 0.904701 -0.164215
C38   C     C_R   0.155980 0.183256 0.904699 -0.164214
C39   C     C_R   0.655981 0.316743 0.904698 -0.164213
C40   C     C_R   0.655980 0.683256 0.904696 -0.164212
C41   C     C_R   0.608931 0.270386 0.904620 -0.168494
C42   C     C_R   0.608930 0.729613 0.904618 -0.168494
C43   C     C_R   0.108932 0.770386 0.904623 -0.168494
C44   C     C_R   0.108929 0.229613 0.904621 -0.168494
C45   C     C_R   0.642967 0.242616 0.003711 0.141982
C46   C     C_R   0.648457 0.151569 0.092574 -0.121662
C47   C     C_R   0.642965 0.757384 0.003710 0.141980
C48   C     C_R   0.142969 0.742615 0.003713 0.141983
C49   C     C_R   0.142966 0.257384 0.003711 0.141981
C50   C     C_R   0.711066 0.268176 0.103675 -0.165832
C51   C     C_R   0.711064 0.731823 0.103673 -0.165829
C52   C     C_R   0.211069 0.768175 0.103677 -0.165832
C53   C     C_R   0.211066 0.231824 0.103675 -0.165829
C54   C     C_R   0.257954 0.814566 0.103650 -0.170344
C55   C     C_R   0.257952 0.185433 0.103648 -0.170344
C56   C     C_R   0.757951 0.314568 0.103647 -0.170345
C57   C     C_R   0.648455 0.848431 0.092573 -0.121668
C58   C     C_R   0.757949 0.685432 0.103646 -0.170345
C59   C     C_R   0.237711 0.834830 0.003714 0.144446
C60   C     C_R   0.237710 0.165170 0.003713 0.144446
C61   C     C_R   0.737710 0.334831 0.003712 0.144446
C62   C     C_R   0.737708 0.665169 0.003710 0.144445
C63   C     C_R   0.612873 0.950065 0.634034 -0.221181
C64   C     C_R   0.612873 0.049935 0.634035 -0.221181
C65   C     C_R   0.112868 0.450064 0.634031 -0.221184
C66   C     C_R   0.112876 0.549933 0.634037 -0.221182
C67   C     C_R   0.616222 0.950026 0.543018 -0.141293
C68   C     C_R   0.148459 0.651568 0.092575 -0.121652
C69   C     C_R   0.616221 0.049974 0.543018 -0.141293
C70   C     C_R   0.116216 0.450024 0.543014 -0.141294
C71   C     C_R   0.116225 0.549973 0.543021 -0.141292
C72   C     C_R   0.607268 0.000000 0.489459 0.207393
C73   C     C_R   0.107269 0.499999 0.489459 0.207395
C74   C     C_R   0.552106 0.045435 0.305578 0.589456
C75   C     C_R   0.552106 0.954565 0.305578 0.589455
C76   C     C_R   0.052105 0.545434 0.305578 0.589460
C77   C     C_R   0.052107 0.454565 0.305578 0.589450
C78   C     C_R   0.599689 0.000000 0.671207 0.167417
C79   C     C_R   0.148455 0.348431 0.092573 -0.121664
C80   C     C_R   0.099687 0.499999 0.671206 0.167418
C81   C     C_R   0.245824 0.953950 0.694835 -0.151511
C82   C     C_R   0.245817 0.046046 0.694836 -0.151520
C83   C     C_R   0.745840 0.453951 0.694821 -0.151499
C84   C     C_R   0.745834 0.546045 0.694818 -0.151518
C85   C     C_R   0.310963 0.135942 0.001970 0.011026
C86   C     C_R   0.310964 0.864058 0.001971 0.011026
C87   C     C_R   0.810962 0.635941 0.001969 0.011028
C88   C     C_R   0.810962 0.364059 0.001970 0.011029
C89   C     C_R   0.571397 0.000000 0.372308 -0.304547
C90   C     C_R   0.557951 0.847048 0.910418 -0.140836
C91   C     C_R   0.071397 0.500000 0.372308 -0.304547
C92   C     C_R   0.199856 0.999997 0.631315 0.002987
C93   C     C_R   0.699886 0.499997 0.631282 0.002975
C94   C     C_R   0.520537 0.046022 0.752686 -0.127459
C95   C     C_R   0.520537 0.953978 0.752686 -0.127461
C96   C     C_R   0.020535 0.546022 0.752684 -0.127458
C97   C     C_R   0.020535 0.453977 0.752684 -0.127460
C98   C     C_R   0.768560 0.953543 0.248812 -0.109398
C99   C     C_R   0.768562 0.046455 0.248810 -0.109397
C100  C     C_R   0.268559 0.453543 0.248822 -0.109380
F1    F     F_    0.583839 0.097605 0.340375 -0.736272
F2    F     F_    0.583840 0.902395 0.340375 -0.736272
F3    F     F_    0.083836 0.597606 0.340375 -0.736272
F4    F     F_    0.083845 0.402395 0.340375 -0.736268
H1    H     H_    0.249007 0.127349 0.823763 0.092946
H2    H     H_    0.898927 0.962957 0.478065 0.165736
H3    H     H_    0.399032 0.537172 0.478058 0.165720
H4    H     H_    0.444990 0.590618 0.362108 0.149900
H5    H     H_    0.973467 0.947775 0.281622 0.160755
H6    H     H_    0.898985 0.037142 0.478036 0.165729
H7    H     H_    0.398946 0.462986 0.478107 0.165745
H8    H     H_    0.473533 0.552084 0.281518 0.160760
H9    H     H_    0.129141 0.052600 0.430073 0.158923
H10   H     H_    0.094983 0.090519 0.506155 0.149572
H11   H     H_    0.594979 0.409452 0.506219 0.149555
H12   H     H_    0.249006 0.872652 0.823764 0.092947
H13   H     H_    0.629075 0.447331 0.430026 0.158931
H14   H     H_    0.973526 0.052122 0.281569 0.160764
H15   H     H_    0.945010 0.090616 0.362211 0.149947
H16   H     H_    0.444964 0.409357 0.362433 0.149957
H17   H     H_    0.473424 0.447735 0.281608 0.160745
H18   H     H_    0.134001 0.834103 0.826259 0.106481
H19   H     H_    0.134000 0.165896 0.826258 0.106480
H20   H     H_    0.634002 0.334101 0.826257 0.106481
H21   H     H_    0.634001 0.665897 0.826255 0.106480
H22   H     H_    0.552389 0.253837 0.826079 0.108875
H23   H     H_    0.749005 0.627343 0.823761 0.092946
H24   H     H_    0.552388 0.746162 0.826077 0.108875
H25   H     H_    0.052389 0.753838 0.826081 0.108875
H26   H     H_    0.052387 0.246161 0.826079 0.108875
H27   H     H_    0.735310 0.249807 0.182085 0.111555
H28   H     H_    0.735306 0.750193 0.182083 0.111556
H29   H     H_    0.235314 0.749805 0.182087 0.111555
H30   H     H_    0.235309 0.250194 0.182085 0.111556
H31   H     H_    0.316367 0.830140 0.182048 0.115231
H32   H     H_    0.316365 0.169861 0.182046 0.115232
H33   H     H_    0.816363 0.330141 0.182045 0.115229
H34   H     H_    0.749004 0.372656 0.823761 0.092948
H35   H     H_    0.816361 0.669858 0.182044 0.115232
H36   H     H_    0.610143 0.910652 0.666490 0.119877
H37   H     H_    0.610143 0.089348 0.666492 0.119878
H38   H     H_    0.110134 0.410651 0.666484 0.119877
H39   H     H_    0.110148 0.589346 0.666495 0.119879
H40   H     H_    0.428933 0.870729 0.178678 0.153744
H41   H     H_    0.428931 0.129271 0.178677 0.153744
H42   H     H_    0.928932 0.370729 0.178677 0.153737
H43   H     H_    0.928930 0.629271 0.178676 0.153746
H44   H     H_    0.616142 0.910316 0.510266 0.200981
H45   H     H_    0.094922 0.909462 0.506241 0.149578
H46   H     H_    0.616139 0.089684 0.510266 0.200982
H47   H     H_    0.116131 0.410314 0.510259 0.200979
H48   H     H_    0.116150 0.589682 0.510272 0.200982
H49   H     H_    0.233527 0.911246 0.668890 0.089233
H50   H     H_    0.233511 0.088750 0.668885 0.089229
H51   H     H_    0.733552 0.411246 0.668882 0.089232
H52   H     H_    0.733527 0.588749 0.668870 0.089237
H53   H     H_    0.531152 0.088990 0.743280 0.095984
H54   H     H_    0.531152 0.911010 0.743280 0.095985
H55   H     H_    0.031150 0.588990 0.743277 0.095984
H56   H     H_    0.051374 0.962913 0.622755 0.158754
H57   H     H_    0.031151 0.411009 0.743279 0.095984
H58   H     H_    0.789716 0.910737 0.264539 0.095541
H59   H     H_    0.789724 0.089260 0.264557 0.095541
H60   H     H_    0.289715 0.410737 0.264561 0.095545
H61   H     H_    0.289732 0.589259 0.264599 0.095530
H62   H     H_    0.685380 0.164878 0.177109 0.101923
H63   H     H_    0.685377 0.835121 0.177107 0.101925
H64   H     H_    0.185384 0.664876 0.177111 0.101920
H65   H     H_    0.185378 0.335122 0.177108 0.101924
H66   H     H_    0.511651 0.832794 0.826527 0.088692
H67   H     H_    0.551467 0.537138 0.622772 0.158721
H68   H     H_    0.511651 0.167206 0.826528 0.088692
H69   H     H_    0.011651 0.332794 0.826527 0.088692
H70   H     H_    0.011653 0.667206 0.826528 0.088693
H71   H     H_    0.129092 0.947321 0.430110 0.158926
H72   H     H_    0.051418 0.037145 0.622748 0.158724
H73   H     H_    0.551410 0.462902 0.622742 0.158752
H74   H     H_    0.629147 0.552616 0.430036 0.158895
H75   H     H_    0.594953 0.590524 0.506104 0.149589
H76   H     H_    0.944942 0.909366 0.362352 0.149934
N1    N     N_R   0.392140 0.102630 0.941800 -0.044450
N2    N     N_R   0.525160 0.972040 0.206160 -0.135225
N3    N     N_R   0.025160 0.527960 0.206160 -0.135226
N4    N     N_R   0.025160 0.472040 0.206160 -0.135225
N5    N     N_R   0.317870 0.971120 0.792790 -0.035840
N6    N     N_R   0.317870 0.028880 0.792790 -0.035838
N7    N     N_R   0.817870 0.471120 0.792790 -0.035845
N8    N     N_R   0.817870 0.528880 0.792790 -0.035843
N9    N     N_R   0.473480 0.027920 0.793480 -0.040141
N10   N     N_R   0.473480 0.972080 0.793480 -0.040142
N11   N     N_R   0.973480 0.527920 0.793480 -0.040138
N12   N     N_R   0.392140 0.897370 0.941800 -0.044451
N13   N     N_R   0.973480 0.472080 0.793480 -0.040139
N14   N     N_R   0.681610 0.971120 0.207570 -0.037625
N15   N     N_R   0.681610 0.028880 0.207570 -0.037625
N16   N     N_R   0.181610 0.471120 0.207570 -0.037626
N17   N     N_R   0.181610 0.528880 0.207570 -0.037627
N18   N     N_R   0.605410 0.102620 0.056870 -0.037748
N19   N     N_R   0.605410 0.897380 0.056870 -0.037749
N20   N     N_R   0.105410 0.602620 0.056870 -0.037749
N21   N     N_R   0.105410 0.397380 0.056870 -0.037750
N22   N     N_R   0.549680 0.896430 0.944180 -0.042469
N23   N     N_R   0.892140 0.602630 0.941800 -0.044450
N24   N     N_R   0.549680 0.103570 0.944180 -0.042469
N25   N     N_R   0.049680 0.396430 0.944180 -0.042470
N26   N     N_R   0.049680 0.603570 0.944180 -0.042470
N27   N     N_R   0.892140 0.397370 0.941800 -0.044451
N28   N     N_R   0.450890 0.896450 0.057150 -0.032846
N29   N     N_R   0.450890 0.103550 0.057150 -0.032847
N30   N     N_R   0.950890 0.396450 0.057150 -0.032845
N31   N     N_R   0.950890 0.603550 0.057150 -0.032847
N32   N     N_R   0.525160 0.027960 0.206160 -0.135225
Ni1   Ni    Ni4+2 0.433410 0.064680 0.868830 0.205819
Ni2   Ni    Ni4+2 0.433410 0.935320 0.868830 0.205817
Ni3   Ni    Ni4+2 0.933410 0.564680 0.868830 0.205817
Ni4   Ni    Ni4+2 0.933410 0.435320 0.868830 0.205815
Ni5   Ni    Ni4+2 0.565650 0.934380 0.131170 0.262128
Ni6   Ni    Ni4+2 0.565650 0.065620 0.131170 0.262128
Ni7   Ni    Ni4+2 0.065650 0.434380 0.131170 0.262129
Ni8   Ni    Ni4+2 0.065650 0.565620 0.131170 0.262127

loop_
_geom_bond_atom_site_label_1
_geom_bond_atom_site_label_2
_ccdc_geom_bond_type
N26   Ni3   S    
C34   H14   S    
C24   N23   A    
C58   C62   A    
N3    Ni8   S    
C31   C85   A    
C22   C29   S    
C16   H56   S    
C95   H54   S    
C84   H52   S    
C5    H70   S    
C53   C55   A    
C11   C47   S    
N19   Ni5   S    
C12   C48   S    
C83   N7    A    
C82   C92   A    
C4    N25   A    
C39   C41   A    
C15   C19   S    
C7    C96   A    
C12   C68   A    
C29   C36   S    
C3    H61   S    
C13   N12   A    
C54   H31   S    
C82   N6    A    
N29   Ni6   S    
C96   N11   A    
N23   Ni3   S    
C8    C99   A    
C81   H49   S    
C25   H11   S    
C35   H34   S    
C22   H4    S    
C46   N18   A    
C14   C49   S    
C83   H51   S    
C64   H37   S    
C99   H59   S    
C44   H26   S    
C55   H32   S    
C83   C93   A    
N6    Ni1   S    
C99   N15   A    
N28   Ni5   S    
C77   N4    A    
C40   C62   A    
N5    Ni2   S    
C98   N14   A    
C6    C78   S    
N1    N29   A    
C67   C72   A    
C63   H36   S    
C23   C26   S    
C97   N13   A    
N21   N25   A    
C8    C98   A    
C33   H43   S    
C95   N10   A    
N11   Ni3   S    
C5    N26   A    
C81   C92   A    
N4    Ni7   S    
C71   H48   S    
N25   Ni4   S    
C79   N21   A    
C13   C86   A    
C10   C46   A    
N19   N22   A    
C30   C86   A    
C76   N3    A    
C7    C97   A    
C43   C48   A    
C38   H19   S    
C42   H24   S    
C42   C47   A    
C16   H72   S    
C76   F3    S    
C40   C42   A    
N14   N15   A    
C28   C34   S    
C65   C80   A    
C55   C60   A    
C57   N19   A    
C16   C26   S    
C52   H29   S    
N12   N28   A    
N23   N31   A    
N18   Ni6   S    
C70   C73   A    
C58   H35   S    
C81   N5    A    
C98   H58   S    
N8    Ni3   S    
C52   C54   A    
C53   H30   S    
N14   Ni5   S    
C20   H2    S    
C54   C59   A    
C100  N16   A    
C1    C85   A    
C39   C61   A    
C63   C67   A    
C70   H47   S    
C17   C27   S    
C43   H25   S    
C2    N24   A    
N21   Ni7   S    
C5    C12   A    
C100  H60   S    
C71   C73   A    
C1    N1    A    
C15   C26   S    
C47   C51   A    
C66   H39   S    
C20   C28   S    
C75   F2    S    
C6    C94   A    
C64   C69   A    
C21   C29   S    
N24   Ni1   S    
C44   C49   A    
C17   C21   S    
C39   H20   S    
C74   N32   A    
C82   H50   S    
C76   C91   A    
C37   C43   A    
C69   C72   A    
N3    N4    A    
N11   N13   A    
C24   H23   S    
C38   C44   A    
C3    C9    A    
C61   C88   S    
C23   H9    S    
C32   N30   A    
C35   C88   A    
C21   H7    S    
C66   C71   A    
C31   N29   A    
N31   Ni8   S    
C16   C20   S    
C23   C34   S    
C30   N28   A    
C90   H66   S    
C10   C45   S    
N2    N32   A    
N12   Ni2   S    
C51   C58   A    
C21   H3    S    
C14   C79   A    
N22   Ni2   S    
C19   C28   S    
N10   Ni2   S    
C73   C91   S    
C37   C59   A    
N9    Ni1   S    
N27   N30   A    
C74   F1    S    
C38   C60   A    
C68   H64   S    
C35   N27   A    
C18   H75   S    
C9    C100  A    
C22   H8    S    
C4    H69   S    
N18   N24   A    
N20   Ni8   S    
C65   H38   S    
C20   H6    S    
C27   C93   S    
C25   C27   S    
C69   H46   S    
C30   H40   S    
C2    C10   A    
C15   H45   S    
N16   Ni7   S    
C74   C89   A    
N13   Ni4   S    
C17   H73   S    
C34   H15   S    
N7    Ni4   S    
C77   C91   A    
N20   N26   A    
C46   H62   S    
C18   C22   S    
C64   C78   A    
C41   H22   S    
C18   C27   S    
N16   N17   A    
C77   F4    S    
C25   H13   S    
N1    Ni1   S    
C51   H28   S    
C17   H67   S    
C57   H63   S    
C9    C29   S    
C94   H53   S    
C66   C80   A    
C62   C87   S    
C97   H57   S    
C15   H71   S    
C68   N20   A    
C79   H65   S    
C36   H17   S    
C33   C87   A    
C94   N9    A    
N7    N8    A    
N2    Ni5   S    
C23   H10   S    
C56   H33   S    
C33   N31   A    
C11   C90   A    
N5    N6    A    
C19   H5    S    
N32   Ni6   S    
C45   C50   A    
C49   C53   A    
C40   H21   S    
N27   Ni4   S    
C3    N17   A    
C84   C93   A    
C4    C14   A    
N9    N10   A    
C36   H16   S    
C24   C87   A    
C50   C56   A    
C59   C86   S    
C13   H12   S    
C84   N8    A    
C50   H27   S    
N30   Ni7   S    
C25   C36   S    
C37   H18   S    
C31   H41   S    
C48   C52   A    
C96   H55   S    
C32   H42   S    
C18   H74   S    
C8    C28   S    
C6    C95   A    
C75   C89   A    
C2    H68   S    
C67   H44   S    
C41   C45   A    
C56   C61   A    
C60   C85   S    
C72   C89   S    
C11   C57   A    
C75   N2    A    
C26   C92   S    
C19   H76   S    
C63   C78   A    
N15   Ni6   S    
C65   C70   A    
C1    H1    S    
C7    C80   S    
C90   N22   A    
N17   Ni8   S    
C32   C88   A    
