data_mof_unit_12153.cif
_audit_creation_date              2012-10-26T20:22:08-0400
_audit_creation_method            fapswitch 2.2
_symmetry_space_group_name_H-M    P1
_symmetry_Int_Tables_number       1
_space_group_crystal_system       triclinic
_cell_length_a                    10.782335
_cell_length_b                    9.654467
_cell_length_c                    10.656608
_cell_angle_alpha                 90.287472
_cell_angle_beta                  93.109645
_cell_angle_gamma                 90.523458
_cell_volume                      1107.63181662

loop_
_atom_site_label
_atom_site_type_symbol
_atom_type_description
_atom_site_fract_x
_atom_site_fract_y
_atom_site_fract_z
_atom_type_partial_charge
C1    C     C_R   0.871180 0.502630 0.496951 0.002292
C2    C     C_3   0.525720 0.370422 0.040658 0.066591
C3    C     C_3   0.414939 0.412997 0.952766 0.194879
C4    C     C_3   0.585061 0.587003 0.047234 0.194879
C5    C     C_3   0.500621 0.502443 0.876503 -0.012460
C6    C     C_3   0.499379 0.497557 0.123497 -0.012460
C7    C     C_R   0.407155 0.072012 0.436917 0.384107
C8    C     C_R   0.592845 0.927988 0.563083 0.384107
C9    C     C_R   0.592943 0.074541 0.563034 0.389929
C10   C     C_R   0.407056 0.925459 0.436966 0.389929
C11   C     C_R   0.060552 0.423936 0.407949 0.274926
C12   C     C_R   0.128820 0.497370 0.503049 0.002292
C13   C     C_R   0.939447 0.576064 0.592051 0.274927
C14   C     C_R   0.930462 0.428159 0.403067 0.206646
C15   C     C_R   0.069538 0.571841 0.596933 0.206646
C16   C     C_R   0.262840 0.499310 0.500412 0.584342
C17   C     C_R   0.737160 0.500689 0.499588 0.584342
C18   C     C_R   0.499963 0.499438 0.259943 0.577250
C19   C     C_R   0.500037 0.500562 0.740057 0.577250
C20   C     C_3   0.387121 0.538307 0.036042 0.047016
C21   C     C_3   0.612879 0.461693 0.963958 0.047016
C22   C     C_3   0.474280 0.629578 0.959341 0.066590
Cu1   Cu    Cu3+1 0.500000 0.640660 0.500000 1.060218
Cu2   Cu    Cu3+1 0.500000 0.359340 0.500000 1.060217
H1    H     H_    0.343448 0.221075 0.334961 0.380385
H2    H     H_    0.218466 0.597515 0.708379 0.352468
H3    H     H_    0.656552 0.778925 0.665039 0.380385
H4    H     H_    0.657512 0.225069 0.666093 0.369454
H5    H     H_    0.342488 0.774931 0.333906 0.369454
H6    H     H_    0.285667 0.278122 0.970656 0.366311
H7    H     H_    0.714333 0.721879 0.029344 0.366311
H8    H     H_    0.065955 0.304571 0.258646 0.406670
H9    H     H_    0.934044 0.695425 0.741356 0.406670
H10   H     H_    0.781534 0.402485 0.291622 0.352468
I1    I     I_    0.206241 0.592632 0.091851 -0.142682
I2    I     I_    0.793759 0.407367 0.908149 -0.142684
I3    I     I_    0.434767 0.836848 0.899943 -0.140677
I4    I     I_    0.565233 0.163152 0.100057 -0.140678
N1    N     N_R   0.500000 0.852070 0.500000 -0.324316
N2    N     N_R   0.500000 0.147930 0.500000 -0.324316
O1    O     O_R   0.319640 0.618740 0.499990 -0.496262
O2    O     O_3   0.688499 0.865813 0.631324 -0.577333
O3    O     O_3   0.689271 0.139258 0.630602 -0.588145
O4    O     O_3   0.310729 0.860742 0.369398 -0.588145
O5    O     O_3   0.325356 0.321911 0.898881 -0.620693
O6    O     O_3   0.674644 0.678088 0.101119 -0.620693
O7    O     O_3   0.124519 0.354093 0.318258 -0.638423
O8    O     O_3   0.875481 0.645907 0.681742 -0.638424
O9    O     O_3   0.864961 0.361468 0.304648 -0.640224
O10   O     O_3   0.135039 0.638533 0.695351 -0.640224
O11   O     O_R   0.680360 0.381260 0.500010 -0.496263
O12   O     O_R   0.680360 0.618740 0.500010 -0.457720
O13   O     O_R   0.319640 0.381260 0.499990 -0.457720
O14   O     O_R   0.499970 0.618770 0.316850 -0.492993
O15   O     O_R   0.500030 0.381230 0.683150 -0.492993
O16   O     O_R   0.500030 0.618770 0.683150 -0.531553
O17   O     O_R   0.499970 0.381230 0.316850 -0.531553
O18   O     O_3   0.311501 0.134187 0.368675 -0.577334

loop_
_geom_bond_atom_site_label_1
_geom_bond_atom_site_label_2
_ccdc_geom_bond_type
C19   O16   A    
C8    C9    A    
C7    C10   A    
C7    N2    A    
C5    C19   S    
C8    N1    A    
C13   O8    S    
C4    C22   S    
C2    I4    S    
H6    O5    S    
C1    C17   S    
Cu1   O1    S    
C12   C15   A    
C11   C12   A    
C17   O11   A    
C2    C21   S    
C13   C15   A    
C2    C3    S    
C5    C21   S    
Cu1   O16   S    
C21   I2    S    
C4    O6    S    
Cu2   O15   S    
C4    C21   S    
C22   I3    S    
H3    O2    S    
Cu1   O12   S    
C2    C6    S    
Cu2   O11   S    
Cu1   N1    S    
C17   O12   A    
H8    O7    S    
Cu2   N2    S    
C20   C22   S    
H2    O10   S    
H5    O4    S    
C6    C18   S    
C18   O17   A    
C9    O3    S    
C14   O9    S    
C1    C13   A    
H1    O18   S    
C18   O14   A    
Cu1   Cu2   S    
C10   O4    S    
C7    O18   S    
C3    C20   S    
C6    C20   S    
Cu1   O14   S    
C4    C6    S    
C15   O10   S    
C19   O15   A    
C11   C14   A    
H9    O8    S    
C16   O13   A    
C10   N1    A    
H10   O9    S    
C1    C14   A    
H4    O3    S    
Cu2   O13   S    
C20   I1    S    
C11   O7    S    
C16   O1    A    
C3    O5    S    
C9    N2    A    
C5    C22   S    
C12   C16   S    
C8    O2    S    
Cu2   O17   S    
C3    C5    S    
H7    O6    S    
