data_mof_unit_53341.cif
_audit_creation_date              2012-12-10T17:40:29-0500
_audit_creation_method            fapswitch 2.2
_symmetry_space_group_name_H-M    P1
_symmetry_Int_Tables_number       1
_space_group_crystal_system       triclinic
_cell_length_a                    13.719691
_cell_length_b                    15.07366
_cell_length_c                    15.731152
_cell_angle_alpha                 89.903319
_cell_angle_beta                  68.814363
_cell_angle_gamma                 90.476518
_cell_volume                      3033.27673907

loop_
_atom_site_label
_atom_site_type_symbol
_atom_type_description
_atom_site_fract_x
_atom_site_fract_y
_atom_site_fract_z
_atom_type_partial_charge
C1    C     C_R   0.500341 0.671420 0.499638 0.856808
C2    C     C_R   0.499707 0.328563 0.500367 0.862209
C3    C     C_R   0.377401 0.494755 0.100712 -0.141770
C4    C     C_R   0.622046 0.507924 0.898722 -0.137282
C5    C     C_R   0.301858 0.482514 0.061660 0.441833
C6    C     C_R   0.697479 0.519846 0.938019 0.428029
C7    C     C_R   0.405613 0.184685 0.526680 -0.102867
C8    C     C_R   0.594809 0.815192 0.473448 -0.121460
C9    C     C_R   0.499991 0.231788 0.500608 -0.075246
C10   C     C_R   0.500343 0.768160 0.499191 -0.089893
C11   C     C_R   0.595029 0.186515 0.475225 -0.147545
C12   C     C_R   0.405436 0.813471 0.524030 -0.145109
C13   C     C_R   0.596752 0.093755 0.474542 0.037432
C14   C     C_R   0.403831 0.906182 0.524557 0.038549
C15   C     C_R   0.500690 0.046512 0.499772 0.029375
C16   C     C_R   0.499914 0.953405 0.499380 0.028694
C17   C     C_R   0.405184 0.092358 0.525697 0.052553
C18   C     C_R   0.595385 0.907525 0.473661 0.044997
C19   C     C_R   0.691612 0.046892 0.449072 0.265138
C20   C     C_R   0.309022 0.953006 0.549754 0.274192
C21   C     C_R   0.690115 0.954408 0.448603 -0.138066
C22   C     C_R   0.310552 0.045428 0.550227 -0.155972
C23   C     C_R   0.435734 0.498895 0.673357 0.911884
C24   C     C_R   0.564177 0.501135 0.326587 0.892027
C25   C     C_R   0.221061 0.571565 0.466944 0.069829
C26   C     C_R   0.778647 0.428606 0.533494 0.122318
C27   C     C_R   0.193660 0.427066 0.529821 0.178283
C28   C     C_R   0.806300 0.572977 0.470351 0.227283
C29   C     C_R   0.090804 0.423257 0.528390 -0.154484
C30   C     C_R   0.908807 0.576883 0.472405 -0.123468
C31   C     C_R   0.051761 0.499639 0.499644 -0.012505
C32   C     C_R   0.947942 0.500443 0.500928 -0.013520
C33   C     C_R   0.117954 0.574267 0.466882 -0.053931
C34   C     C_R   0.881607 0.425961 0.533890 -0.076903
C35   C     C_R   0.026212 0.346081 0.555790 0.371342
C36   C     C_R   0.972697 0.654462 0.446424 0.296792
C37   C     C_R   0.919293 0.350599 0.565610 0.201825
C38   C     C_R   0.079701 0.650039 0.436241 0.200384
C39   C     C_R   0.395232 0.496229 0.774374 -0.286092
C40   C     C_R   0.604241 0.504200 0.225494 -0.263124
C41   C     C_R   0.264614 0.457137 0.921925 -0.129118
C42   C     C_R   0.735065 0.543299 0.077941 -0.118471
C43   C     C_R   0.297692 0.456079 0.826753 0.362124
C44   C     C_R   0.702262 0.543592 0.173086 0.298669
C45   C     C_R   0.458729 0.531290 0.820004 0.305876
C46   C     C_R   0.539890 0.470411 0.179870 0.215436
C47   C     C_R   0.437191 0.506493 0.911845 -0.027064
C48   C     C_R   0.561921 0.495824 0.087946 -0.019402
C49   C     C_R   0.333321 0.481836 0.965706 -0.107503
C50   C     C_R   0.666024 0.519876 0.034081 -0.089921
C51   C     C_R   0.514826 0.505849 0.952005 0.040989
C52   C     C_R   0.484545 0.496588 0.047531 0.024929
Cu1   Cu    Cu3+1 0.402580 0.500010 0.499990 1.044251
Cu2   Cu    Cu3+1 0.597420 0.499990 0.500010 1.074174
H1    H     H_    0.273824 0.626985 0.442022 0.171423
H2    H     H_    0.725762 0.373273 0.558449 0.164053
H3    H     H_    0.223984 0.372747 0.556832 0.209125
H4    H     H_    0.776100 0.627520 0.443526 0.212016
H5    H     H_    0.187158 0.432684 0.961213 0.246330
H6    H     H_    0.812742 0.567350 0.038788 0.247120
H7    H     H_    0.352126 0.503352 0.173120 0.186661
H8    H     H_    0.647542 0.500614 0.825888 0.222198
H9    H     H_    0.332503 0.220063 0.548998 0.205600
H10   H     H_    0.667921 0.779816 0.452137 0.227280
H11   H     H_    0.667271 0.224259 0.455362 0.198062
H12   H     H_    0.333163 0.775788 0.543700 0.200969
H13   H     H_    0.763396 0.919109 0.428751 0.241887
H14   H     H_    0.237330 0.080558 0.569489 0.207002
N1    N     N_R   0.256170 0.500070 0.500040 -0.217047
N2    N     N_R   0.743830 0.499930 0.499960 -0.212901
O1    O     O_R   0.417730 0.629750 0.499970 -0.614635
O2    O     O_R   0.582270 0.370250 0.500030 -0.620013
O3    O     O_R   0.582270 0.629730 0.499980 -0.553673
O4    O     O_R   0.417730 0.370270 0.500020 -0.559667
O5    O     O_R   0.371590 0.500020 0.629830 -0.511210
O6    O     O_R   0.628410 0.499980 0.370170 -0.508569
O7    O     O_R   0.536130 0.499990 0.629840 -0.551794
O8    O     O_R   0.463870 0.500010 0.370160 -0.602852
S1    S     S_3+6 0.169126 0.472556 0.135320 0.071775
O9    O     O_2   0.103495 0.534598 0.104036 -0.219608
O10   O     O_2   0.132374 0.378795 0.132420 -0.210778
O11   O     O_3   0.155563 0.497552 0.243223 -0.529687
H15   H     H_    0.079508 0.492872 0.278446 0.387561
S2    S     S_3+6 0.830139 0.530619 0.864369 0.054592
O12   O     O_2   0.866861 0.624030 0.869276 -0.231649
O13   O     O_2   0.895927 0.467381 0.894110 -0.227101
O14   O     O_3   0.843436 0.508125 0.755986 -0.515068
H16   H     H_    0.918869 0.516661 0.720140 0.373142
S3    S     S_3+6 0.082327 0.243107 0.569711 0.053460
O15   O     O_2   0.014856 0.164222 0.569388 -0.155885
O16   O     O_2   0.184978 0.232509 0.492235 -0.295976
O17   O     O_3   0.102385 0.245804 0.668977 -0.485036
H17   H     H_    0.128305 0.186116 0.675740 0.381534
S4    S     S_3+6 0.915087 0.758160 0.436846 0.056656
O18   O     O_2   0.812858 0.766069 0.515365 -0.277523
O19   O     O_2   0.981533 0.836880 0.439932 -0.144088
O20   O     O_3   0.892492 0.760744 0.338753 -0.484971
H18   H     H_    0.960514 0.746413 0.290854 0.393815
Br1   Br    Br    0.821110 0.258458 0.630422 -0.318251
Br2   Br    Br    0.176803 0.743322 0.372779 -0.357349
S5    S     S_3+6 0.465021 0.370835 0.222424 0.084875
O21   O     O_2   0.464723 0.315469 0.143131 -0.191445
O22   O     O_2   0.515756 0.318443 0.276302 -0.250160
O23   O     O_3   0.339777 0.389163 0.289723 -0.439736
H19   H     H_    0.336048 0.451639 0.309280 0.338214
S6    S     S_3+6 0.536417 0.628430 0.774801 0.044964
O24   O     O_2   0.642451 0.603791 0.708147 -0.260001
O25   O     O_2   0.482457 0.684729 0.726494 -0.269822
O26   O     O_3   0.550966 0.688106 0.859795 -0.494778
H20   H     H_    0.600968 0.736181 0.828967 0.404274
S7    S     S_3+6 0.786141 0.595667 0.221775 0.059343
O27   O     O_2   0.834916 0.526250 0.261987 -0.223451
O28   O     O_2   0.871852 0.647212 0.151040 -0.211580
O29   O     O_3   0.716850 0.665618 0.304073 -0.541193
H21   H     H_    0.683973 0.707045 0.273714 0.340725
S8    S     S_3+6 0.214197 0.403391 0.778128 0.068363
O30   O     O_2   0.276695 0.341751 0.703813 -0.317471
O31   O     O_2   0.130182 0.350711 0.849328 -0.201241
O32   O     O_3   0.157866 0.481186 0.734834 -0.484639
H22   H     H_    0.097119 0.450949 0.727337 0.381692
Br3   Br    Br    0.825916 0.104699 0.414598 -0.300062
Br4   Br    Br    0.174675 0.895277 0.584090 -0.311311

loop_
_geom_bond_atom_site_label_1
_geom_bond_atom_site_label_2
_ccdc_geom_bond_type
O14   H16   S    
S5    O21   D    
C27   C29   A    
C18   C21   A    
Cu1   O4    S    
S2    O14   S    
Cu1   N1    S    
O29   H21   S    
C47   C49   A    
Cu1   Cu2   S    
C40   C46   A    
C1    O1    A    
C35   C37   A    
S2    O13   D    
S6    O24   D    
C15   C16   A    
C34   C37   A    
C4    H8    S    
S8    O30   D    
C15   C17   A    
C45   C47   A    
C26   C34   A    
S7    O27   D    
C7    C17   A    
C31   C33   A    
C5    S1    S    
C20   Br4   S    
C27   N1    A    
C39   C45   A    
Cu2   O7    S    
C48   C50   A    
S5    O22   D    
C21   H13   S    
C41   C43   A    
C5    C49   A    
Cu1   O5    S    
C42   C44   A    
C2    O2    A    
C41   C49   A    
O23   H19   S    
O20   H18   S    
C3    H7    S    
C46   S5    S    
C46   C48   A    
C6    S2    S    
C13   C19   A    
C4    C51   A    
C51   C52   A    
C14   C20   A    
S2    O12   D    
C41   H5    S    
C38   Br2   S    
C27   H3    S    
C42   H6    S    
S1    O10   D    
C24   O6    A    
C39   C43   A    
S4    O20   S    
C12   H12   S    
C8    C18   A    
C26   H2    S    
C32   C34   A    
C43   S8    S    
Cu2   O3    S    
C31   C32   A    
Cu2   N2    S    
C40   C44   A    
C3    C52   A    
C22   H14   S    
Cu2   O2    S    
S7    O28   D    
C16   C18   A    
C23   O7    A    
S3    O17   S    
S4    O19   D    
C9    C11   A    
C7    H9    S    
C10   C12   A    
C42   C50   A    
Cu2   O6    S    
C35   S3    S    
C24   O8    A    
C8    H10   S    
S5    O23   S    
C13   C15   A    
C26   N2    A    
C14   C16   A    
C4    C6    A    
S3    O16   D    
C20   C22   A    
Cu1   O1    S    
C37   Br1   S    
C23   O5    A    
C45   S6    S    
C7    C9    A    
C19   Br3   S    
C6    C50   A    
C19   C21   A    
C28   N2    A    
C1    C10   S    
C25   H1    S    
C12   C14   A    
C3    C5    A    
C2    O4    A    
S1    O11   S    
C47   C51   A    
O32   H22   S    
C28   H4    S    
C29   C35   A    
C17   C22   A    
S8    O32   S    
C30   C36   A    
C1    O3    A    
C28   C30   A    
Cu1   O8    S    
C29   C31   A    
O26   H20   S    
C30   C32   A    
C11   C13   A    
S6    O25   D    
C23   C39   S    
C36   C38   A    
O17   H17   S    
C24   C40   S    
S8    O31   D    
S7    O29   S    
S4    O18   D    
S1    O9    D    
C44   S7    S    
C36   S4    S    
C48   C52   A    
C25   N1    A    
C8    C10   A    
O11   H15   S    
C33   C38   A    
S3    O15   D    
C2    C9    S    
C11   H11   S    
C25   C33   A    
S6    O26   S    
