data_mof_unit_66680.cif
_audit_creation_date              2012-12-11T18:15:17-0500
_audit_creation_method            fapswitch 2.2
_symmetry_space_group_name_H-M    P1
_symmetry_Int_Tables_number       1
_space_group_crystal_system       triclinic
_cell_length_a                    20.173423
_cell_length_b                    19.991677
_cell_length_c                    8.361745
_cell_angle_alpha                 89.999359
_cell_angle_beta                  91.218817
_cell_angle_gamma                 90.129582
_cell_volume                      3371.52481128

loop_
_atom_site_label
_atom_site_type_symbol
_atom_type_description
_atom_site_fract_x
_atom_site_fract_y
_atom_site_fract_z
_atom_type_partial_charge
Ba1   Ba    Ba6+2 0.999980 0.452130 0.155200 1.640952
Ba2   Ba    Ba6+2 0.999980 0.547870 0.655200 1.632754
Ba3   Ba    Ba6+2 0.499980 0.952130 0.155200 1.631738
Ba4   Ba    Ba6+2 0.499980 0.047870 0.655200 1.630563
C1    C     C_3   0.991410 0.129730 0.516675 -0.411613
C2    C     C_3   0.986567 0.870715 0.027614 -0.397593
C3    C     C_3   0.491432 0.632946 0.549438 -0.405351
C4    C     C_3   0.487353 0.374234 0.018217 -0.392571
C5    C     C_R   0.150015 0.346701 0.822333 0.052857
C6    C     C_R   0.152181 0.651744 0.320768 0.048583
C7    C     C_R   0.651349 0.847568 0.821747 0.054090
C8    C     C_R   0.651705 0.152120 0.321524 0.056708
C9    C     C_R   0.112190 0.336972 0.682131 -0.294497
C10   C     C_R   0.115663 0.660247 0.178864 -0.299667
C11   C     C_R   0.614498 0.838727 0.680238 -0.296846
C12   C     C_R   0.614654 0.161076 0.180540 -0.299850
C13   C     C_R   0.125268 0.284266 0.578692 0.002240
C14   C     C_R   0.130122 0.711833 0.074249 0.010836
C15   C     C_R   0.628402 0.786852 0.575907 0.009618
C16   C     C_R   0.628723 0.213006 0.076545 0.006220
C17   C     C_R   0.172343 0.235950 0.622591 -0.140337
C18   C     C_R   0.177013 0.760490 0.117890 -0.134938
C19   C     C_R   0.675040 0.738148 0.619787 -0.137140
C20   C     C_R   0.675676 0.261617 0.120225 -0.131876
C21   C     C_R   0.209207 0.242079 0.767042 -0.009670
C22   C     C_R   0.212788 0.755263 0.263745 -0.006435
C23   C     C_R   0.711062 0.743507 0.765427 -0.010646
C24   C     C_R   0.712016 0.255921 0.265199 0.001467
C25   C     C_R   0.199992 0.298892 0.866218 -0.024961
C26   C     C_R   0.202700 0.699090 0.364177 -0.025193
C27   C     C_R   0.701337 0.799845 0.865695 -0.023395
C28   C     C_R   0.702309 0.199419 0.364805 -0.013306
C29   C     C_R   0.798807 0.700645 0.947047 -0.026081
C30   C     C_R   0.799949 0.298601 0.446734 -0.027000
C31   C     C_R   0.298201 0.200236 0.947036 -0.025905
C32   C     C_R   0.299950 0.798569 0.446410 -0.028146
C33   C     C_R   0.789322 0.757148 0.047035 -0.003891
C34   C     C_R   0.790873 0.241629 0.545558 -0.001391
C35   C     C_R   0.288817 0.256873 0.046548 -0.005333
C36   C     C_R   0.290624 0.741818 0.545820 -0.003888
C37   C     C_R   0.849060 0.653049 0.989997 0.053548
C38   C     C_R   0.849912 0.346540 0.490143 0.052288
C39   C     C_R   0.348874 0.153013 0.989629 0.055425
C40   C     C_R   0.349733 0.846658 0.490105 0.053665
C41   C     C_R   0.886859 0.662555 0.130275 -0.291527
C42   C     C_R   0.887977 0.336815 0.630226 -0.281602
C43   C     C_R   0.386903 0.162768 0.129450 -0.290783
C44   C     C_R   0.387502 0.837216 0.630603 -0.286507
C45   C     C_3   0.022300 0.207214 0.926092 0.355812
C46   C     C_3   0.025711 0.788268 0.459806 0.338319
C47   C     C_3   0.525837 0.710827 0.951236 0.339299
C48   C     C_3   0.525984 0.287783 0.459287 0.340743
C49   C     C_R   0.873707 0.715058 0.234110 0.020017
C50   C     C_R   0.875390 0.283539 0.733101 0.002064
C51   C     C_R   0.373700 0.215220 0.233304 0.017145
C52   C     C_R   0.374662 0.784191 0.733774 0.013359
C53   C     C_R   0.826338 0.763215 0.191164 -0.139166
C54   C     C_R   0.828147 0.235236 0.689227 -0.140908
C55   C     C_R   0.326132 0.263236 0.190325 -0.135885
C56   C     C_R   0.327520 0.735767 0.690044 -0.139845
C57   C     C_R   0.758072 0.694192 0.808338 -0.050700
C58   C     C_R   0.758955 0.305316 0.308626 -0.040719
C59   C     C_R   0.256873 0.193222 0.809336 -0.050871
C60   C     C_R   0.259472 0.804848 0.307372 -0.046013
C61   C     C_3   0.053999 0.138876 0.949771 -0.379175
C62   C     C_3   0.059137 0.855869 0.483917 -0.378566
C63   C     C_3   0.559129 0.643744 0.982545 -0.384036
C64   C     C_3   0.559790 0.355381 0.479602 -0.377926
C65   C     C_3   0.811262 0.457979 0.819014 0.306995
C66   C     C_3   0.810568 0.541440 0.318819 0.307489
C67   C     C_3   0.311017 0.958098 0.818661 0.306672
C68   C     C_3   0.310727 0.041547 0.319170 0.307116
C69   C     C_3   0.748877 0.415093 0.807560 -0.391350
C70   C     C_3   0.748004 0.583838 0.309451 -0.392020
C71   C     C_3   0.248508 0.915385 0.807356 -0.391732
C72   C     C_3   0.248207 0.084006 0.309852 -0.390798
C73   C     C_3   0.191372 0.540285 0.994752 0.403474
C74   C     C_3   0.188150 0.457977 0.489397 0.392771
C75   C     C_3   0.689331 0.043123 0.982874 0.357657
C76   C     C_3   0.689481 0.958684 0.490500 0.391355
C77   C     C_3   0.255325 0.580304 0.001341 0.330053
C78   C     C_3   0.250896 0.416452 0.497052 0.321350
C79   C     C_3   0.749520 0.088275 0.962236 0.285433
C80   C     C_3   0.752765 0.917955 0.498453 0.325027
C81   C     C_3   0.987966 0.197833 0.435719 0.339756
C82   C     C_3   0.995753 0.797906 0.980397 0.338472
C83   C     C_3   0.492153 0.703038 0.478575 0.338254
C84   C     C_3   0.496580 0.300560 0.978982 0.333019
C85   C     C_R   0.241247 0.305785 0.004123 -0.036968
C86   C     C_R   0.243269 0.692599 0.503092 -0.038131
C87   C     C_R   0.741932 0.806231 0.004703 -0.040420
C88   C     C_R   0.743292 0.192588 0.502957 -0.019712
H1    H     H_    0.942540 0.200012 0.358327 0.074809
H2    H     H_    0.948459 0.777225 0.931468 0.033516
H3    H     H_    0.443290 0.714332 0.421614 0.041287
H4    H     H_    0.449016 0.278626 0.935222 0.031248
H5    H     H_    0.714099 0.435887 0.715669 0.125254
H6    H     H_    0.712476 0.562349 0.219971 0.125040
H7    H     H_    0.213609 0.936471 0.716121 0.125822
H8    H     H_    0.212804 0.062764 0.219749 0.125461
H9    H     H_    0.761344 0.363095 0.774163 0.066915
H10   H     H_    0.759972 0.635743 0.273865 0.067611
H11   H     H_    0.260753 0.863434 0.773127 0.067151
H12   H     H_    0.260273 0.135994 0.275172 0.067747
H13   H     H_    0.724130 0.414167 0.924933 0.118334
H14   H     H_    0.724334 0.585166 0.428127 0.117794
H15   H     H_    0.223984 0.914260 0.925003 0.118394
H16   H     H_    0.224353 0.085038 0.428320 0.117480
H17   H     H_    0.172257 0.535119 0.117196 -0.028973
H18   H     H_    0.166863 0.460964 0.610020 -0.023304
H19   H     H_    0.674698 0.043046 0.109526 -0.012507
H20   H     H_    0.668571 0.962109 0.611475 -0.025222
H21   H     H_    0.154668 0.566594 0.916368 -0.041479
H22   H     H_    0.152258 0.433941 0.404716 -0.021640
H23   H     H_    0.648397 0.063233 0.906244 -0.006201
H24   H     H_    0.653625 0.933867 0.406996 -0.028225
H25   H     H_    0.246600 0.629139 0.060276 -0.081403
H26   H     H_    0.238826 0.365513 0.540138 -0.084179
H27   H     H_    0.735297 0.140832 0.984662 -0.017886
H28   H     H_    0.741287 0.866871 0.541316 -0.081523
H29   H     H_    0.270572 0.588938 0.875612 0.003686
H30   H     H_    0.270151 0.413095 0.373350 0.013091
H31   H     H_    0.764595 0.085634 0.834596 0.000712
H32   H     H_    0.772231 0.914849 0.374912 0.000936
H33   H     H_    0.982859 0.236385 0.530643 -0.049146
H34   H     H_    0.007910 0.769865 0.091554 -0.048473
H35   H     H_    0.498458 0.738856 0.579402 -0.051828
H36   H     H_    0.510082 0.274984 0.092535 -0.046023
H37   H     H_    0.037264 0.126500 0.592025 0.110870
H38   H     H_    0.032514 0.889668 0.087466 0.114736
H39   H     H_    0.539762 0.622815 0.610536 0.112995
H40   H     H_    0.533512 0.394423 0.074646 0.111507
H41   H     H_    0.947588 0.122540 0.593109 0.081463
H42   H     H_    0.944810 0.875039 0.111394 0.081358
H43   H     H_    0.451175 0.628754 0.637410 0.089827
H44   H     H_    0.446005 0.380156 0.102634 0.087335
H45   H     H_    0.105942 0.140120 0.908424 0.075568
H46   H     H_    0.113818 0.849596 0.486215 0.088192
H47   H     H_    0.613523 0.648662 0.967382 0.085325
H48   H     H_    0.614435 0.348723 0.483636 0.085841
H49   H     H_    0.075063 0.373462 0.647283 0.062190
H50   H     H_    0.077835 0.624175 0.144800 0.064194
H51   H     H_    0.576993 0.874919 0.645906 0.062402
H52   H     H_    0.576895 0.124955 0.146331 0.063281
H53   H     H_    0.181152 0.194524 0.542380 0.070335
H54   H     H_    0.185883 0.801883 0.037478 0.072256
H55   H     H_    0.683747 0.696763 0.539369 0.071345
H56   H     H_    0.684415 0.303133 0.040090 0.071522
H57   H     H_    0.817754 0.804705 0.271372 0.057367
H58   H     H_    0.819595 0.193582 0.768869 0.061435
H59   H     H_    0.317511 0.304749 0.270398 0.059324
H60   H     H_    0.318959 0.694120 0.769847 0.057961
H61   H     H_    0.924419 0.626356 0.164148 0.064955
H62   H     H_    0.925104 0.373490 0.664948 0.063237
H63   H     H_    0.424637 0.126720 0.163132 0.064669
H64   H     H_    0.424743 0.873805 0.665139 0.065313
H65   H     H_    0.237201 0.349136 0.080266 0.103235
H66   H     H_    0.238614 0.649524 0.580012 0.102573
H67   H     H_    0.737488 0.849286 0.081683 0.097087
H68   H     H_    0.738759 0.149369 0.579347 0.094989
H69   H     H_    0.762612 0.651260 0.731031 0.102783
H70   H     H_    0.763029 0.348635 0.232357 0.099936
H71   H     H_    0.261426 0.150143 0.732460 0.101982
H72   H     H_    0.263751 0.847950 0.230513 0.102391
H73   H     H_    0.992487 0.089322 0.425870 0.119025
H74   H     H_    0.976043 0.901988 0.920539 0.109034
H75   H     H_    0.483485 0.594912 0.454288 0.113390
H76   H     H_    0.476199 0.403354 0.908030 0.112619
H77   H     H_    0.051242 0.244029 0.998801 0.096866
H78   H     H_    0.041206 0.755170 0.559381 0.129957
H79   H     H_    0.545517 0.747047 0.040410 0.124150
H80   H     H_    0.541428 0.255420 0.560321 0.130455
H81   H     H_    0.024881 0.220683 0.797483 -0.064096
H82   H     H_    0.042616 0.766584 0.345824 -0.028025
H83   H     H_    0.538730 0.727890 0.829709 -0.036364
H84   H     H_    0.542692 0.264971 0.346415 -0.030583
H85   H     H_    0.054098 0.124885 0.078253 0.152558
H86   H     H_    0.043881 0.878276 0.598822 0.141591
H87   H     H_    0.549569 0.626765 0.106394 0.147721
H88   H     H_    0.544232 0.379265 0.592581 0.141433
H89   H     H_    0.025860 0.100506 0.880267 0.101925
H90   H     H_    0.044896 0.890173 0.384841 0.102500
H91   H     H_    0.539413 0.605528 0.897664 0.103302
H92   H     H_    0.546195 0.388534 0.377756 0.102540
H93   H     H_    0.833498 0.461272 0.699540 0.010571
H94   H     H_    0.831921 0.538047 0.198399 0.010728
H95   H     H_    0.333092 0.961504 0.699031 0.011437
H96   H     H_    0.332197 0.038305 0.198852 0.010543
H97   H     H_    0.846611 0.434085 0.904970 0.068114
H98   H     H_    0.846453 0.565730 0.403130 0.067056
H99   H     H_    0.346420 0.934041 0.904239 0.068054
H100  H     H_    0.346555 0.065695 0.403842 0.067686
O1    O     O_2   0.130070 0.404060 0.104920 -0.478047
O2    O     O_2   0.130070 0.595940 0.604920 -0.473521
O3    O     O_2   0.630070 0.904060 0.104920 -0.476807
O4    O     O_2   0.630070 0.095940 0.604920 -0.482716
O5    O     O_3   0.793326 0.477629 0.372465 -0.641356
O6    O     O_3   0.793515 0.521784 0.871310 -0.640416
O7    O     O_3   0.293367 0.977676 0.372207 -0.640874
O8    O     O_3   0.293458 0.021865 0.871486 -0.640458
O9    O     O_3   0.956232 0.204712 0.975935 -0.596727
O10   O     O_3   0.956644 0.796486 0.458331 -0.630223
O11   O     O_3   0.456917 0.703699 0.965253 -0.623487
O12   O     O_3   0.456940 0.296351 0.457894 -0.629948
O13   O     O_3   0.924190 0.533610 0.949240 -0.494620
O14   O     O_3   0.924190 0.466390 0.449240 -0.494397
O15   O     O_3   0.424190 0.033610 0.949240 -0.494073
O16   O     O_3   0.424190 0.966390 0.449240 -0.494143
O17   O     O_3   0.075780 0.466370 0.861070 -0.494036
O18   O     O_3   0.075780 0.533630 0.361070 -0.495615
O19   O     O_3   0.575780 0.966370 0.861070 -0.494649
O20   O     O_3   0.575780 0.033630 0.361070 -0.494219
O21   O     O_3   0.022320 0.344950 0.359800 -0.471336
O22   O     O_3   0.022320 0.655050 0.859800 -0.474600
O23   O     O_3   0.522320 0.844950 0.359800 -0.471255
O24   O     O_3   0.522320 0.155050 0.859800 -0.474969
O25   O     O_2   0.132334 0.291405 0.245459 -0.496234
O26   O     O_2   0.130821 0.712019 0.738991 -0.507311
O27   O     O_2   0.629948 0.787031 0.239424 -0.507247
O28   O     O_2   0.631320 0.211670 0.741982 -0.510576
O29   O     O_3   0.206599 0.477447 0.933249 -0.608657
O30   O     O_3   0.205855 0.521729 0.437272 -0.618307
O31   O     O_3   0.706678 0.978206 0.938161 -0.629496
O32   O     O_3   0.706277 0.022302 0.436111 -0.615646
O33   O     O_3   0.043859 0.205875 0.338865 -0.591757
O34   O     O_3   0.044995 0.793653 0.863643 -0.603587
O35   O     O_3   0.541787 0.706812 0.362283 -0.599786
O36   O     O_3   0.544732 0.294159 0.860217 -0.601834
O37   O     O_2   0.869860 0.403670 0.205810 -0.467587
O38   O     O_2   0.869860 0.596330 0.705810 -0.466643
O39   O     O_2   0.369860 0.903670 0.205810 -0.467410
O40   O     O_2   0.369860 0.096330 0.705810 -0.466596
O41   O     O_3   0.977590 0.344880 0.951200 -0.490874
O42   O     O_3   0.977590 0.655120 0.451200 -0.492208
O43   O     O_3   0.477590 0.844880 0.951200 -0.491262
O44   O     O_3   0.477590 0.155120 0.451200 -0.491953
O45   O     O_2   0.868071 0.290865 0.065180 -0.473245
O46   O     O_2   0.869941 0.711661 0.567592 -0.491013
O47   O     O_2   0.369518 0.788688 0.066848 -0.486001
O48   O     O_2   0.369907 0.211797 0.567073 -0.490567
P1    P     P_3+3 0.136530 0.426510 0.931350 0.989929
P2    P     P_3+3 0.136530 0.573490 0.431350 0.983332
P3    P     P_3+3 0.636530 0.926510 0.931350 0.980326
P4    P     P_3+3 0.636530 0.073490 0.431350 0.987456
P5    P     P_3+3 0.863410 0.426100 0.379280 0.971633
P6    P     P_3+3 0.863410 0.573900 0.879280 0.972285
P7    P     P_3+3 0.363410 0.926100 0.379280 0.972463
P8    P     P_3+3 0.363410 0.073900 0.879280 0.972997
P9    P     P_3+3 0.918365 0.281291 0.930278 0.953668
P10   P     P_3+3 0.918542 0.718545 0.428048 0.921635
P11   P     P_3+3 0.418790 0.781026 0.928962 0.929586
P12   P     P_3+3 0.418542 0.218562 0.427513 0.921656
P13   P     P_3+3 0.084113 0.716114 0.882969 0.935922
P14   P     P_3+3 0.082444 0.282456 0.381527 0.951241
P15   P     P_3+3 0.583594 0.216636 0.883845 0.930221
P16   P     P_3+3 0.583058 0.783280 0.383126 0.942854
O49   O     O_3   0.303300 0.542723 0.087871 -0.622146
C89   C     C_3   0.366222 0.573175 0.080109 0.282933
H101  H     H_    0.375352 0.598651 0.963895 0.055335
H102  H     H_    0.404225 0.533165 0.092024 0.061141
C90   C     C_3   0.376165 0.621637 0.218663 -0.344824
H103  H     H_    0.365984 0.596298 0.333913 0.122199
H104  H     H_    0.428233 0.638975 0.219267 0.123611
H105  H     H_    0.342992 0.665591 0.204726 0.135675
O50   O     O_3   0.296863 0.448462 0.601663 -0.621024
C91   C     C_3   0.358747 0.415849 0.599625 0.278412
H106  H     H_    0.397702 0.453072 0.632078 0.061808
H107  H     H_    0.371533 0.396144 0.479539 0.058884
C92   C     C_3   0.361114 0.360289 0.723534 -0.340854
H108  H     H_    0.323640 0.321426 0.694823 0.138145
H109  H     H_    0.410569 0.336794 0.722120 0.127896
H110  H     H_    0.351905 0.380849 0.844376 0.117836
O51   O     O_3   0.799744 0.070642 0.075237 -0.628847
C93   C     C_3   0.857952 0.051040 0.997323 0.294866
H111  H     H_    0.876391 0.091993 0.919331 0.054929
H112  H     H_    0.848577 0.005289 0.924244 0.073892
C94   C     C_3   0.911413 0.035582 0.122408 -0.319643
H113  H     H_    0.894757 0.994534 0.201938 0.116529
H114  H     H_    0.957575 0.020061 0.062862 0.053751
H115  H     H_    0.921847 0.081005 0.195142 0.144344
O52   O     O_3   0.798198 0.950431 0.603574 -0.631980
C95   C     C_3   0.860553 0.918725 0.601504 0.262114
H116  H     H_    0.898857 0.956280 0.636270 0.052653
H117  H     H_    0.874024 0.900147 0.480860 0.061403
C96   C     C_3   0.863389 0.862267 0.723115 -0.342160
H118  H     H_    0.826878 0.822801 0.691784 0.142867
H119  H     H_    0.913380 0.839938 0.722225 0.129610
H120  H     H_    0.853134 0.881593 0.844524 0.099173

loop_
_geom_bond_atom_site_label_1
_geom_bond_atom_site_label_2
_ccdc_geom_bond_type
C72   H12   S    
C45   H77   S    
C10   H50   S    
C38   P5    S    
C71   H15   S    
Ba4   O24   S    
C51   C55   A    
C37   P6    S    
C4    H44   S    
C93   C94   S    
C7    P3    S    
C10   C14   A    
C15   C19   A    
C6    P2    S    
O43   P11   S    
C2    H38   S    
C5    P1    S    
O15   P8    S    
O8    P8    S    
C83   H35   S    
O30   P2    S    
O41   P9    S    
C67   O8    S    
C70   H6    S    
C61   H89   S    
C59   H71   S    
C62   H86   S    
C95   H116  S    
C69   H5    S    
Ba4   O19   S    
C45   C61   S    
Ba3   O39   S    
O4    P4    D    
C57   H69   S    
Ba3   O16   S    
Ba4   O40   S    
C12   C16   A    
C12   H52   S    
Ba1   Ba2   S    
C96   H120  S    
C75   H23   S    
C56   H60   S    
C90   H103  S    
C76   O32   S    
Ba3   O23   S    
O28   P15   D    
C77   H25   S    
C30   C58   A    
C44   C52   A    
C93   H111  S    
C21   C59   A    
C79   H27   S    
C6    C10   A    
O24   P15   S    
C5    C9    A    
Ba4   P8    S    
C31   C39   A    
C17   C21   A    
C82   H2    S    
C40   P7    S    
Ba3   O43   S    
C34   C54   A    
C81   H1    S    
C31   C59   A    
Ba2   O42   S    
O34   P13   S    
C3    C83   S    
C60   H72   S    
C76   H24   S    
O31   P3    S    
C2    H74   S    
C8    P4    S    
C53   H57   S    
C4    H40   S    
C65   C69   S    
Ba2   O14   S    
O23   P16   S    
C1    H73   S    
O48   P12   D    
Ba1   O13   S    
O50   C91   S    
C48   H84   S    
C87   H67   S    
O38   P6    D    
C94   H114  S    
C68   C72   S    
C70   H10   S    
C1    C81   S    
O20   P4    S    
C32   C60   A    
C69   H9    S    
C62   H90   S    
C41   C49   A    
C72   H16   S    
C14   C18   A    
C92   H108  S    
O46   P10   D    
O22   P13   S    
C71   H11   S    
Ba4   O44   S    
O42   P10   S    
O21   P14   S    
C74   H22   S    
C7    C11   A    
O44   P12   S    
C73   H21   S    
C25   C85   A    
O45   P9    D    
C47   O11   S    
O39   P7    D    
Ba4   O16   S    
Ba1   O21   S    
C4    C84   S    
C19   C23   A    
C46   O10   S    
C14   P13   S    
C21   C25   A    
C8    C12   A    
C42   H62   S    
C45   O9    S    
C13   P14   S    
C30   C38   A    
C4    H76   S    
O27   P16   D    
C33   C87   A    
O47   P11   D    
C76   C80   S    
C11   C15   A    
C18   H54   S    
C72   H8    S    
C24   C28   A    
O14   P5    S    
C29   C37   A    
O18   P2    S    
C74   H18   S    
O13   P6    S    
C20   H56   S    
Ba2   O38   S    
C65   H97   S    
C91   H106  S    
C90   H104  S    
C49   C53   A    
C45   H81   S    
O33   P14   S    
Ba3   P3    S    
O52   C95   S    
C33   C53   A    
C19   H55   S    
C76   H20   S    
C64   H88   S    
Ba3   O3    S    
C52   C56   A    
C77   H29   S    
C84   H4    S    
Ba2   O2    S    
C23   C57   A    
C86   H66   S    
C31   C35   A    
O5    P5    S    
C66   C70   S    
C96   H118  S    
Ba1   O14   S    
O19   P3    S    
C55   H59   S    
C70   H14   S    
O36   P15   S    
C46   C62   S    
C78   H30   S    
C6    C26   A    
O40   P8    D    
C69   H13   S    
C26   C86   A    
C62   H46   S    
C32   C36   A    
C39   P8    S    
C80   H28   S    
C35   C55   A    
C42   C50   A    
C71   H7    S    
O51   C93   S    
C1    H41   S    
C85   H65   S    
C46   H78   S    
Ba2   O13   S    
C47   C63   S    
C92   H110  S    
C52   P11   S    
C47   H83   S    
O7    P7    S    
Ba2   P2    S    
C54   H58   S    
O26   P13   D    
C91   H107  S    
C74   O30   S    
C11   H51   S    
Ba1   P1    S    
C73   O29   S    
O3    P3    D    
O10   P10   S    
Ba2   O22   S    
C66   O5    S    
C9    H49   S    
C92   H109  S    
C23   C27   A    
C38   C42   A    
C65   O6    S    
C82   O34   S    
C83   O35   S    
O11   P11   S    
C68   H96   S    
C89   C90   S    
C41   H61   S    
C78   H26   S    
O17   P1    S    
Ba3   Ba4   S    
C65   H93   S    
C89   H102  S    
O49   C89   S    
C63   H47   S    
C66   H98   S    
C16   P15   S    
C43   C51   A    
C50   C54   A    
Ba3   O20   S    
Ba4   O4    S    
C3    H75   S    
C83   H3    S    
C73   H17   S    
Ba2   O17   S    
O2    P2    D    
Ba1   O41   S    
C81   H33   S    
C30   C34   A    
C77   O49   S    
Ba4   O15   S    
Ba1   O18   S    
C32   C40   A    
O32   P4    S    
C20   C24   A    
C27   C87   A    
C67   H95   S    
C74   C78   S    
C91   C92   S    
C48   C64   S    
C67   H99   S    
C90   H105  S    
C7    C27   A    
O37   P5    D    
C75   O31   S    
O35   P16   S    
C75   C79   S    
C22   C60   A    
C80   H32   S    
Ba3   O15   S    
C80   O52   S    
Ba2   P6    S    
C36   C56   A    
C95   H117  S    
C2    C82   S    
C75   H19   S    
C88   H68   S    
C79   H31   S    
C82   H34   S    
C47   H79   S    
C89   H101  S    
C84   O36   S    
C64   H92   S    
C61   H45   S    
C3    H39   S    
C96   H119  S    
C63   H87   S    
O29   P1    S    
C68   O7    S    
C67   C71   S    
C5    C25   A    
Ba3   P7    S    
C58   H70   S    
C61   H85   S    
O6    P6    S    
C29   C57   A    
O9    P9    S    
C1    H37   S    
C48   H80   S    
C79   O51   S    
C50   P9    S    
C35   C85   A    
C29   C33   A    
C78   O50   S    
C93   H112  S    
O25   P14   D    
Ba1   O1    S    
C44   H64   S    
C16   C20   A    
C13   C17   A    
O16   P7    S    
C64   H48   S    
C3    H43   S    
C28   C88   A    
C48   O12   S    
C9    C13   A    
O12   P12   S    
O1    P1    D    
Ba1   O37   S    
C15   P16   S    
C2    H42   S    
C81   O33   S    
C49   P10   S    
C95   C96   S    
C84   H36   S    
C73   C77   S    
C18   C22   A    
C94   H115  S    
C68   H100  S    
C37   C41   A    
C51   P12   S    
C63   H91   S    
Ba1   P5    S    
C46   H82   S    
C36   C86   A    
C94   H113  S    
C39   C43   A    
Ba4   P4    S    
C66   H94   S    
C8    C28   A    
C40   C44   A    
C34   C88   A    
C17   H53   S    
C43   H63   S    
C22   C26   A    
C24   C58   A    
