data_mof_unit_28843.cif
_audit_creation_date              2013-03-05T15:55:02-0500
_audit_creation_method            fapswitch 2.2
_symmetry_space_group_name_H-M    P1
_symmetry_Int_Tables_number       1
_space_group_crystal_system       triclinic
_cell_length_a                    23.399041
_cell_length_b                    10.673923
_cell_length_c                    9.928285
_cell_angle_alpha                 89.132434
_cell_angle_beta                  90.415791
_cell_angle_gamma                 93.326629
_cell_volume                      2475.17142009

loop_
_atom_site_label
_atom_site_type_symbol
_atom_site_description
_atom_site_fract_x
_atom_site_fract_y
_atom_site_fract_z
_atom_type_partial_charge
O1    O     O_R   0.500000 0.316780 0.614690 -0.584731
O2    O     O_R   0.500000 0.316750 0.385360 -0.664596
C1    C     C_R   0.504319 0.260217 0.501745 0.936433
O3    O     O_R   0.416160 0.499970 0.614690 -0.561074
O4    O     O_R   0.416150 0.499950 0.385360 -0.611538
C2    C     C_R   0.389436 0.504481 0.499080 0.995363
Zn1   Zn    Zn3+2 0.500000 0.500020 0.653130 1.087308
Zn2   Zn    Zn3+2 0.500000 0.499980 0.346870 0.987763
O5    O     O_R   0.500000 0.683250 0.614640 -0.581452
O6    O     O_R   0.500000 0.683220 0.385310 -0.621128
O7    O     O_R   0.583850 0.500050 0.614640 -0.558910
O8    O     O_R   0.583840 0.500030 0.385310 -0.631573
C3    C     C_R   0.493583 0.738289 0.499404 0.917639
C4    C     C_R   0.610513 0.499631 0.500358 0.933894
C5    C     C_R   0.882597 0.654099 0.510154 0.574018
N1    N     N_R   0.852856 0.541544 0.491296 -0.360664
C6    C     C_R   0.879472 0.433787 0.467165 0.534570
C7    C     C_R   0.938933 0.434951 0.465579 -0.013036
C8    C     C_R   0.970907 0.549307 0.486230 -0.061713
C9    C     C_R   0.942946 0.661735 0.506798 -0.126004
C10   C     C_R   0.966869 0.324026 0.444991 -0.097255
C11   C     C_R   0.026209 0.325399 0.446835 -0.113233
C12   C     C_R   0.058645 0.437821 0.468694 -0.016270
C13   C     C_R   0.031081 0.550358 0.487206 -0.008516
C14   C     C_R   0.063675 0.663422 0.507625 -0.098902
C15   C     C_R   0.036145 0.774967 0.524859 -0.173358
C16   C     C_R   0.976552 0.775612 0.524571 0.432169
C17   C     C_R   0.118290 0.440553 0.473674 0.578438
N2    N     N_R   0.149044 0.550938 0.496552 -0.336257
C18   C     C_R   0.123407 0.661616 0.511384 0.625311
O9    O     O_2   0.853411 0.756581 0.533983 -0.445927
O10   O     O_2   0.848159 0.325700 0.444825 -0.505990
H1    H     H_    0.942991 0.235476 0.428721 0.227473
H2    H     H_    0.046506 0.238034 0.431927 0.211273
O11   O     O_2   0.145573 0.333979 0.456251 -0.518601
O12   O     O_2   0.155691 0.768732 0.531369 -0.495317
H3    H     H_    0.060950 0.862691 0.539466 0.225670
C19   C     C_R   0.241010 0.585111 0.388603 -0.164702
H4    H     H_    0.219108 0.621664 0.301200 0.202531
C20   C     C_R   0.299612 0.571874 0.384446 0.383812
C21   C     C_R   0.327545 0.520012 0.497336 -0.170055
C22   C     C_R   0.296029 0.488479 0.614078 -0.223470
H5    H     H_    0.317290 0.453360 0.702603 0.226834
C23   C     C_R   0.237179 0.502938 0.618883 0.364949
C24   C     C_R   0.209779 0.549753 0.503441 0.116909
C25   C     C_R   0.764394 0.465834 0.601835 -0.128957
H6    H     H_    0.789794 0.421097 0.678349 0.189918
C26   C     C_R   0.704842 0.448086 0.602739 0.320051
C27   C     C_R   0.672879 0.505941 0.500190 -0.157403
C28   C     C_R   0.701037 0.576449 0.397403 -0.219080
H7    H     H_    0.677116 0.621716 0.318466 0.186452
C29   C     C_R   0.760278 0.590452 0.396055 -0.056636
H8    H     H_    0.781706 0.643136 0.315109 0.174177
C30   C     C_R   0.791927 0.535145 0.498063 0.217881
H9    H     H_    0.509383 0.114918 0.287279 0.171941
C31   C     C_R   0.516141 0.104583 0.757444 -0.035814
H10   H     H_    0.542191 0.190434 0.769632 0.207120
C32   C     C_R   0.498899 0.040065 0.874640 -0.181701
H11   H     H_    0.509784 0.079058 0.972195 0.156743
C33   C     C_R   0.464669 0.929615 0.866027 -0.149600
H12   H     H_    0.447221 0.886573 0.957430 0.186534
C34   C     C_R   0.452144 0.876663 0.740042 0.367187
C35   C     C_R   0.477739 0.933189 0.622352 -0.004608
C36   C     C_R   0.500829 0.056513 0.629051 0.084362
C37   C     C_R   0.506667 0.125693 0.506051 -0.064099
C38   C     C_R   0.503893 0.064584 0.382366 -0.203633
H13   H     H_    0.498070 0.890683 0.283583 0.179686
C39   C     C_R   0.495033 0.936983 0.379460 -0.165129
C40   C     C_R   0.484343 0.870243 0.499345 -0.062955
H14   H     H_    0.575156 0.614985 0.125803 0.171822
C41   C     C_R   0.415634 0.361333 0.148632 -0.106774
H15   H     H_    0.420835 0.336917 0.251885 0.209827
C42   C     C_R   0.365097 0.317502 0.090234 -0.189468
H16   H     H_    0.331709 0.271015 0.150985 0.194923
C43   C     C_R   0.359573 0.322588 0.952814 -0.105726
H17   H     H_    0.321500 0.276125 0.909260 0.225936
C44   C     C_R   0.406341 0.361835 0.872571 0.387646
C45   C     C_R   0.455712 0.431635 0.929899 0.035060
C46   C     C_R   0.457422 0.432000 0.074828 0.127517
N3    N     N_R   0.499460 0.498800 0.142780 -0.128967
C47   C     C_R   0.541493 0.562873 0.071612 -0.150754
C48   C     C_R   0.541935 0.562885 0.928848 0.349864
N4    N     N_R   0.499440 0.498720 0.857170 -0.158084
N5    N     N_R   0.678161 0.365097 0.702025 0.231562
O13   O     O_R   0.638804 0.281040 0.665740 -0.422195
O14   O     O_R   0.700043 0.357810 0.822573 -0.324439
N6    N     N_R   0.408804 0.775915 0.730840 0.210825
O15   O     O_R   0.374773 0.769700 0.626649 -0.396273
O16   O     O_R   0.397519 0.702161 0.834017 -0.370312
Cl1   Cl    Cl    0.401055 0.269896 0.728173 -0.636523
N7    N     N_R   0.587827 0.630656 0.860784 0.220362
O17   O     O_R   0.640267 0.604403 0.888328 -0.350437
O18   O     O_R   0.578638 0.737177 0.801812 -0.375700
Cl2   Cl    Cl    0.947957 0.923434 0.546182 -0.491387
Cl3   Cl    Cl    0.335272 0.627568 0.237370 -0.518186
N8    N     N_R   0.205945 0.468819 0.739906 0.238045
O19   O     O_R   0.158827 0.521367 0.768626 -0.347434
O20   O     O_R   0.226609 0.391117 0.827311 -0.361255

loop_
_geom_bond_atom_site_label_1
_geom_bond_atom_site_label_2
_geom_bond_distance
_ccdc_geom_bond_type
C38   C39   1.366465 A    
N6    O15   1.300974 A    
C7    C10   1.403589 A    
C42   H16   1.083102 S    
Zn1   N4    2.025737 S    
C8    C9    1.417870 A    
C41   C46   1.403578 A    
C47   C48   1.417509 A    
C44   C45   1.454986 A    
C29   H8    1.083016 S    
Zn1   O7    2.001579 S    
C15   C16   1.394829 A    
C34   C35   1.426506 A    
C17   N2    1.365650 A    
N5    O14   1.301361 A    
C19   H4    1.083686 S    
O7    C4    1.298993 A    
C4    C27   1.456954 S    
C10   H1    1.083356 S    
C32   C33   1.389677 A    
C5    N1    1.367706 A    
C31   H10   1.078596 S    
C33   C34   1.402411 A    
C7    C8    1.411060 A    
C21   C22   1.404384 A    
H14   C47   1.082305 S    
O5    C3    1.289970 A    
C19   C24   1.394080 A    
C45   N4    1.411068 A    
C35   C40   1.416464 A    
C17   O11   1.350312 S    
N1    C6    1.364490 A    
C2    C21   1.467124 S    
N8    O20   1.301292 A    
C28   C29   1.385723 A    
C12   C13   1.411018 A    
C31   C36   1.417183 A    
C10   C11   1.387717 A    
C42   C43   1.370073 A    
C1    C37   1.440102 S    
C22   C23   1.395750 A    
O3    Zn1   1.995804 S    
C29   C30   1.394398 A    
C28   H7    1.083741 S    
C5    C9    1.410338 A    
C11   H2    1.083355 S    
C25   C26   1.395409 A    
C44   Cl1   1.749160 S    
H13   C39   1.083833 S    
C13   C14   1.406263 A    
O3    C2    1.304685 A    
N7    O17   1.300647 A    
C41   C42   1.373853 A    
C45   C46   1.439215 A    
C39   C40   1.394525 A    
C14   C15   1.399498 A    
C48   N4    1.374658 A    
C48   N7    1.427800 S    
C46   N3    1.361855 A    
N2    C24   1.423075 S    
C33   H12   1.082697 S    
O1    C1    1.288950 A    
C43   H17   1.084528 S    
N2    C18   1.366010 A    
C23   N8    1.441908 S    
N7    O18   1.299295 A    
Zn2   O8    1.995802 S    
N8    O19   1.301013 A    
C25   C30   1.398239 A    
C6    C7    1.390857 A    
C12   C17   1.394790 A    
N5    O13   1.300743 A    
C43   C44   1.398974 A    
C20   C21   1.415071 A    
O8    C4    1.297718 A    
C37   C38   1.398501 A    
N6    O16   1.301620 A    
C22   H5    1.079729 S    
C20   Cl3   1.765129 S    
H9    C38   1.083865 S    
C23   C24   1.408396 A    
C14   C18   1.399132 A    
Zn1   O5    1.987081 S    
C25   H6    1.083393 S    
C26   C27   1.414505 A    
O1    Zn1   1.998439 S    
O2    Zn2   1.987079 S    
N3    C47   1.360776 A    
O6    C3    1.297715 A    
O4    Zn2   2.001581 S    
C15   H3    1.083745 S    
C5    O9    1.347536 S    
C9    C16   1.421440 A    
C34   N6    1.438148 S    
C18   O12   1.349699 S    
C36   C37   1.420778 A    
O2    C1    1.301457 A    
C32   H11   1.082827 S    
C41   H15   1.061785 S    
C19   C20   1.387587 A    
O4    C2    1.297382 A    
C3    C40   1.437309 S    
C31   C32   1.393259 A    
C8    C13   1.407369 A    
N1    C30   1.425380 S    
C35   C36   1.395958 A    
C26   N5    1.436820 S    
Zn2   O6    1.998440 S    
C27   C28   1.403881 A    
Zn2   N3    2.026437 S    
C6    O10   1.350696 S    
C11   C12   1.401039 A    
C16   Cl2   1.765834 S    
