data_mof_unit_49573.cif
_audit_creation_date              2012-12-10T18:21:24-0500
_audit_creation_method            fapswitch 2.2
_symmetry_space_group_name_H-M    P1
_symmetry_Int_Tables_number       1
_space_group_crystal_system       triclinic
_cell_length_a                    15.035459
_cell_length_b                    14.117795
_cell_length_c                    10.878999
_cell_angle_alpha                 89.444497
_cell_angle_beta                  86.093765
_cell_angle_gamma                 90.382127
_cell_volume                      2303.72305605

loop_
_atom_site_label
_atom_site_type_symbol
_atom_type_description
_atom_site_fract_x
_atom_site_fract_y
_atom_site_fract_z
_atom_type_partial_charge
C1    C     C_R   0.326845 0.499454 0.496987 0.978023
C2    C     C_R   0.041320 0.343169 0.605766 0.661839
C3    C     C_R   0.090407 0.419066 0.550729 -0.290291
C4    C     C_R   0.484946 0.499826 0.261595 0.994958
C5    C     C_R   0.046236 0.496574 0.500214 -0.075076
C6    C     C_R   0.095140 0.573661 0.445507 0.060474
C7    C     C_R   0.051187 0.648862 0.391865 -0.229663
C8    C     C_R   0.958786 0.647912 0.391697 0.671083
C9    C     C_R   0.182838 0.419283 0.545440 0.740561
C10   C     C_R   0.230915 0.497542 0.495601 -0.218387
C11   C     C_R   0.187340 0.574509 0.446114 -0.212286
C12   C     C_3   0.570572 0.516280 0.926482 1.034718
C13   C     C_R   0.563204 0.800972 0.427764 -0.075034
C14   C     C_R   0.572191 0.202281 0.445712 -0.001839
C15   C     C_R   0.434983 0.797187 0.568663 0.826936
C16   C     C_R   0.431943 0.200435 0.561086 0.833204
C17   C     C_R   0.432475 0.897821 0.569882 -0.284737
C18   C     C_R   0.431541 0.100038 0.566492 -0.316672
C19   C     C_R   0.672769 0.500130 0.506528 0.956475
C20   C     C_R   0.502417 0.949456 0.507424 -0.092291
C21   C     C_R   0.502747 0.050467 0.506881 -0.096360
C22   C     C_R   0.571384 0.900164 0.442953 -0.213525
C23   C     C_R   0.817595 0.571226 0.449827 -0.076813
C24   C     C_R   0.573983 0.101533 0.445545 -0.202681
C25   C     C_R   0.362492 0.948237 0.631734 0.571407
C26   C     C_R   0.361805 0.047854 0.629571 0.629500
C27   C     C_R   0.645122 0.049777 0.387105 0.609131
C28   C     C_R   0.645725 0.951666 0.391952 0.642117
C29   C     C_R   0.488897 0.499409 0.742589 1.018462
C30   C     C_3   0.400443 0.580052 0.084641 -0.329616
C31   C     C_3   0.449456 0.388898 0.080925 -0.373852
C32   C     C_3   0.406271 0.584058 0.932091 -0.383548
C33   C     C_3   0.435771 0.394622 0.934467 -0.348780
C34   C     C_R   0.768306 0.500343 0.514344 -0.154969
C35   C     C_3   0.566643 0.528070 0.066268 1.014842
C36   C     C_3   0.471840 0.498220 0.126228 -0.446433
C37   C     C_3   0.474667 0.498564 0.881405 -0.462729
C38   C     C_2   0.420382 0.678896 0.146566 1.012872
C39   C     C_2   0.526408 0.316440 0.108580 1.010429
C40   C     C_2   0.611371 0.759433 0.316452 1.113850
C41   C     C_2   0.651992 0.255131 0.395519 1.117494
C42   C     C_2   0.303198 0.565728 0.138265 1.030078
C43   C     C_2   0.369562 0.337554 0.152768 1.124187
C44   C     C_2   0.316838 0.576195 0.867492 0.966395
C45   C     C_R   0.810847 0.431512 0.584385 -0.218523
C46   C     C_2   0.338158 0.385821 0.897993 1.006768
C47   C     C_2   0.430052 0.686264 0.887204 1.104405
C48   C     C_2   0.476004 0.302300 0.875465 1.011162
C49   C     C_2   0.762188 0.379962 0.689097 1.179834
C50   C     C_R   0.903909 0.424358 0.569179 -0.183960
C51   C     C_R   0.953177 0.497592 0.505511 -0.007207
C52   C     C_R   0.909603 0.572953 0.449203 -0.002544
C53   C     C_R   0.949120 0.345888 0.615544 0.511021
F1    F     F_    0.081907 0.266071 0.651667 -0.480974
F2    F     F_    0.587075 0.620789 0.090991 -0.599705
F3    F     F_    0.634932 0.478545 0.116478 -0.558446
F4    F     F_    0.613410 0.594021 0.870854 -0.569836
F5    F     F_    0.626333 0.443620 0.891497 -0.567323
F6    F     F_    0.904746 0.269051 0.665402 -0.550012
F7    F     F_    0.225794 0.344724 0.592624 -0.489414
F8    F     F_    0.917503 0.721015 0.337441 -0.581264
F9    F     F_    0.369655 0.746338 0.630619 -0.583663
F10   F     F_    0.365330 0.248966 0.619969 -0.502764
F11   F     F_    0.293363 0.901653 0.692860 -0.530040
F12   F     F_    0.292177 0.092761 0.689275 -0.478556
F13   F     F_    0.714104 0.091821 0.320030 -0.572017
F14   F     F_    0.721546 0.907504 0.349117 -0.553490
H1    H     H_    0.225341 0.634281 0.406550 0.221561
H2    H     H_    0.256398 0.588128 0.709346 0.363223
H3    H     H_    0.205406 0.381497 0.943320 0.395404
H4    H     H_    0.387498 0.821818 0.875486 0.379783
H5    H     H_    0.458874 0.162240 0.845049 0.347544
H6    H     H_    0.837673 0.439103 0.815331 0.321401
H7    H     H_    0.088375 0.707998 0.349325 0.205306
H8    H     H_    0.784140 0.625795 0.400628 0.244082
H9    H     H_    0.471286 0.811566 0.134276 0.371118
H10   H     H_    0.650628 0.265449 0.068879 0.405103
H11   H     H_    0.660675 0.781114 0.140502 0.431164
H12   H     H_    0.783746 0.280034 0.404261 0.366611
H13   H     H_    0.181216 0.624949 0.169578 0.360186
H14   H     H_    0.285889 0.224267 0.160223 0.381476
N1    N     N_R   0.500070 0.750030 0.500050 -0.190452
N2    N     N_R   0.500070 0.249970 0.500050 -0.210810
O1    O     O_R   0.367860 0.580280 0.500020 -0.577936
O2    O     O_R   0.477458 0.748095 0.091801 -0.705731
O3    O     O_2   0.511906 0.249765 0.180771 -0.601592
O4    O     O_R   0.610656 0.319644 0.046416 -0.610538
O5    O     O_2   0.644330 0.681370 0.318464 -0.536699
O6    O     O_R   0.622704 0.813606 0.207961 -0.733159
O7    O     O_2   0.647822 0.309114 0.308055 -0.552095
O8    O     O_R   0.733542 0.241540 0.447563 -0.694455
O9    O     O_2   0.278574 0.496334 0.197525 -0.607683
O10   O     O_R   0.242641 0.640701 0.130159 -0.701043
O11   O     O_2   0.350962 0.352499 0.261860 -0.562153
O12   O     O_R   0.367860 0.419720 0.500020 -0.506473
O13   O     O_R   0.332610 0.256490 0.102216 -0.702116
O14   O     O_2   0.243766 0.568691 0.922544 -0.544970
O15   O     O_R   0.318494 0.584358 0.739926 -0.750832
O16   O     O_2   0.324532 0.377395 0.789108 -0.496343
O17   O     O_R   0.264069 0.390499 0.982716 -0.730627
O18   O     O_2   0.503266 0.709579 0.841588 -0.489033
O19   O     O_R   0.365121 0.756927 0.904540 -0.699589
O20   O     O_2   0.551886 0.298900 0.828354 -0.477648
O21   O     O_R   0.425809 0.218113 0.883581 -0.698022
O22   O     O_2   0.702101 0.324589 0.671235 -0.465175
O23   O     O_R   0.500000 0.580270 0.314790 -0.584301
O24   O     O_R   0.788805 0.389962 0.809041 -0.612539
O25   O     O_R   0.500000 0.419730 0.314790 -0.576196
O26   O     O_R   0.632160 0.580270 0.499960 -0.580444
O27   O     O_R   0.632160 0.419730 0.499960 -0.619819
O28   O     O_R   0.500030 0.580270 0.685200 -0.546245
O29   O     O_R   0.500030 0.419730 0.685200 -0.583812
O30   O     O_2   0.384088 0.698258 0.247814 -0.624640
Zn1   Zn    Zn3+2 0.500020 0.607200 0.499990 1.120371
Zn2   Zn    Zn3+2 0.500020 0.392800 0.499990 1.141937

loop_
_geom_bond_atom_site_label_1
_geom_bond_atom_site_label_2
_ccdc_geom_bond_type
C46   O16   D    
C4    C36   S    
C47   O18   D    
C42   O10   S    
C29   O29   A    
C35   C36   S    
C18   C26   A    
C24   C27   A    
C39   O4    S    
C43   O11   D    
C53   F6    S    
C7    C8    A    
C49   O24   S    
C1    O1    A    
C4    O25   A    
C31   C43   S    
O23   Zn1   S    
O25   Zn2   S    
C5    C6    A    
H6    O24   S    
C18   C21   A    
C17   C20   A    
C30   C38   S    
C14   C24   A    
C12   C37   S    
C13   C40   S    
C44   O15   S    
O12   Zn2   S    
C31   C33   S    
C16   F10   S    
C40   O6    S    
C7    H7    S    
C9    C10   A    
C8    C52   A    
H12   O8    S    
C8    F8    S    
C12   F5    S    
H2    O15   S    
C41   O7    D    
C47   O19   S    
C22   C28   A    
C33   C46   S    
C14   N2    A    
H3    O17   S    
C50   C51   A    
C15   N1    A    
C19   O26   A    
H11   O6    S    
C50   C53   A    
C38   O2    S    
C35   F2    S    
C51   C52   A    
N2    Zn2   S    
C28   F14   S    
N1    Zn1   S    
C2    F1    S    
C6    C11   A    
C38   O30   D    
C49   O22   D    
H5    O21   S    
C25   C26   A    
C48   O20   D    
C4    O23   A    
C13   N1    A    
C19   C34   S    
C16   N2    A    
C33   C37   S    
C25   F11   S    
C3    C9    A    
C44   O14   D    
C45   C49   S    
C1    O12   A    
C23   C34   A    
C43   O13   S    
C32   C44   S    
C34   C45   A    
C32   C37   S    
C12   C35   S    
O26   Zn1   S    
C14   C41   S    
C12   F4    S    
C41   O8    S    
H4    O19   S    
C20   C22   A    
C32   C47   S    
C11   H1    S    
C19   O27   A    
C15   C17   A    
C46   O17   S    
O1    Zn1   S    
C35   F3    S    
C26   F12   S    
C29   O28   A    
C5    C51   A    
C1    C10   S    
C23   H8    S    
C3    C5    A    
C2    C53   A    
C6    C7    A    
C30   C36   S    
C9    F7    S    
C17   C25   A    
C40   O5    D    
C2    C3    A    
C27   F13   S    
C30   C32   S    
C23   C52   A    
C45   C50   A    
O27   Zn2   S    
C15   F9    S    
C31   C39   S    
C13   C22   A    
O28   Zn1   S    
C42   O9    D    
C10   C11   A    
C20   C21   A    
H10   O4    S    
C16   C18   A    
H14   O13   S    
C21   C24   A    
C29   C37   S    
C27   C28   A    
C33   C48   S    
C31   C36   S    
C30   C42   S    
C39   O3    D    
H13   O10   S    
H9    O2    S    
O29   Zn2   S    
C48   O21   S    
