data_mof_unit_50286.cif
_audit_creation_date              2013-03-05T16:01:58-0500
_audit_creation_method            fapswitch 2.2
_symmetry_space_group_name_H-M    P1
_symmetry_Int_Tables_number       1
_space_group_crystal_system       triclinic
_cell_length_a                    14.909154
_cell_length_b                    14.228771
_cell_length_c                    14.127292
_cell_angle_alpha                 90.0009
_cell_angle_beta                  87.800547
_cell_angle_gamma                 90.001166
_cell_volume                      2994.74081821

loop_
_atom_site_label
_atom_site_type_symbol
_atom_site_description
_atom_site_fract_x
_atom_site_fract_y
_atom_site_fract_z
_atom_type_partial_charge
O1    O     O_R   0.367850 0.580280 0.500020 -0.582363
O2    O     O_R   0.632150 0.419720 0.499980 -0.560475
O3    O     O_R   0.632150 0.580280 0.499980 -0.582342
O4    O     O_R   0.367850 0.419720 0.500020 -0.560464
C1    C     C_R   0.326710 0.500577 0.506802 1.011696
C2    C     C_R   0.673289 0.500578 0.493194 1.011727
O5    O     O_R   0.500000 0.580290 0.373720 -0.570492
O6    O     O_R   0.500000 0.419710 0.626280 -0.577998
O7    O     O_R   0.500000 0.580290 0.626280 -0.570487
O8    O     O_R   0.500000 0.419710 0.373720 -0.578000
C3    C     C_R   0.498921 0.500073 0.329481 0.969990
C4    C     C_R   0.501078 0.500074 0.670519 0.970017
Zn1   Zn    Zn3+2 0.500000 0.607200 0.500000 1.123140
Zn2   Zn    Zn3+2 0.500000 0.392800 0.500000 1.120246
C5    C     C_1   0.498473 0.500306 0.227935 -0.004834
C6    C     C_1   0.501524 0.500309 0.772065 -0.004850
C7    C     C_1   0.498773 0.500467 0.142619 0.096601
C8    C     C_1   0.501224 0.500470 0.857381 0.096596
C9    C     C_1   0.499594 0.500559 0.042673 0.121492
C10   C     C_1   0.500402 0.500560 0.957328 0.121495
C11   C     C_R   0.819728 0.523710 0.405854 0.378433
C12   C     C_R   0.180268 0.523702 0.594136 0.378381
C13   C     C_R   0.770213 0.505770 0.491631 -0.252512
C14   C     C_R   0.229786 0.505767 0.508361 -0.252506
C15   C     C_R   0.809694 0.514014 0.579820 0.247825
C16   C     C_R   0.190309 0.514019 0.420171 0.247846
C17   C     C_R   0.900985 0.536771 0.583908 -0.089539
C18   C     C_R   0.099016 0.536771 0.416080 -0.089554
C19   C     C_R   0.953048 0.542007 0.498521 -0.028802
C20   C     C_R   0.046953 0.542007 0.501467 -0.028792
C21   C     C_R   0.911875 0.546054 0.410300 -0.107280
C22   C     C_R   0.088124 0.546051 0.589690 -0.107264
C23   C     C_R   0.941427 0.560550 0.669673 0.222342
C24   C     C_R   0.058573 0.560546 0.330315 0.222329
C25   C     C_R   0.034690 0.573262 0.670138 0.233459
C26   C     C_R   0.965310 0.573265 0.329853 0.233468
C27   C     C_R   0.558118 0.797547 0.440160 0.354595
C28   C     C_R   0.443808 0.201709 0.561485 0.355621
C29   C     C_R   0.441890 0.797550 0.559844 0.354612
C30   C     C_R   0.556195 0.201711 0.438516 0.355620
N1    N     N_R   0.500000 0.750030 0.500000 -0.206337
N2    N     N_R   0.500000 0.249970 0.500000 -0.207913
C31   C     C_R   0.441230 0.898292 0.562877 -0.184837
C32   C     C_R   0.558342 0.100788 0.436813 -0.185885
C33   C     C_R   0.558808 0.898292 0.437149 -0.184827
C34   C     C_R   0.441671 0.100785 0.563196 -0.185894
C35   C     C_R   0.500013 0.948950 0.500007 0.011805
C36   C     C_R   0.500008 0.050136 0.500005 0.008154
C37   C     C_R   0.383894 0.949984 0.626411 0.223171
C38   C     C_R   0.616394 0.048786 0.373799 0.231955
C39   C     C_R   0.616189 0.949988 0.373659 0.223100
C40   C     C_R   0.383651 0.048780 0.626240 0.231944
S1    S     S_3+6 0.771433 0.503704 0.293540 0.110100
O9    O     O_2   0.742561 0.595192 0.251468 -0.167940
O10   O     O_2   0.839559 0.457521 0.227473 -0.203421
O11   O     O_3   0.682088 0.433531 0.301683 -0.542864
H1    H     H_    0.670287 0.417208 0.235147 0.404187
S2    S     S_3+6 0.228553 0.503682 0.706452 0.110100
O12   O     O_2   0.257405 0.595167 0.748550 -0.167954
O13   O     O_2   0.160423 0.457473 0.772498 -0.203399
O14   O     O_3   0.317908 0.433527 0.698306 -0.542852
H2    H     H_    0.329714 0.417211 0.764843 0.404184
N3    N     N_R   0.757204 0.493679 0.664598 0.207017
O15   O     O_R   0.768208 0.414504 0.708675 -0.289943
O16   O     O_R   0.697541 0.553464 0.696808 -0.360740
N4    N     N_R   0.242806 0.493706 0.335392 0.207010
O17   O     O_R   0.231849 0.414521 0.291328 -0.289989
O18   O     O_R   0.302452 0.553513 0.303190 -0.360695
N5    N     N_R   0.887924 0.586679 0.751876 0.260917
O19   O     O_R   0.847017 0.667443 0.754469 -0.248739
O20   O     O_R   0.886348 0.533660 0.826952 -0.201353
N6    N     N_R   0.112075 0.586656 0.248106 0.260926
O21   O     O_R   0.152957 0.667430 0.245479 -0.248699
O22   O     O_R   0.113656 0.533612 0.173049 -0.201375
N7    N     N_R   0.071471 0.631909 0.741852 0.263468
O23   O     O_R   0.112547 0.709247 0.716933 -0.217340
O24   O     O_R   0.054240 0.615705 0.831353 -0.183230
N8    N     N_R   0.928532 0.631916 0.258144 0.263472
O25   O     O_R   0.887442 0.709241 0.283071 -0.217312
O26   O     O_R   0.945778 0.615730 0.168642 -0.183238
N9    N     N_R   0.619078 0.743691 0.381861 0.239140
O27   O     O_R   0.700876 0.730753 0.408020 -0.300977
O28   O     O_R   0.596993 0.719168 0.297185 -0.286782
N10   N     N_R   0.387960 0.254791 0.625148 0.247723
O29   O     O_R   0.413788 0.269258 0.710847 -0.330016
O30   O     O_R   0.305287 0.271521 0.604089 -0.272085
N11   N     N_R   0.380857 0.743706 0.618069 0.239134
O31   O     O_R   0.299050 0.730907 0.591881 -0.301035
O32   O     O_R   0.402895 0.719053 0.702717 -0.286693
N12   N     N_R   0.612036 0.254796 0.374847 0.247720
O33   O     O_R   0.586205 0.269246 0.289147 -0.330010
O34   O     O_R   0.694706 0.271545 0.395906 -0.272098
N13   N     N_R   0.325566 0.904029 0.694843 0.261365
O35   O     O_R   0.352432 0.891985 0.780540 -0.221716
O36   O     O_R   0.240364 0.897329 0.679226 -0.202502
N14   N     N_R   0.677459 0.094184 0.307682 0.259550
O37   O     O_R   0.761253 0.102934 0.328714 -0.224344
O38   O     O_R   0.656096 0.101415 0.219541 -0.226262
N15   N     N_R   0.674696 0.904038 0.305381 0.261377
O39   O     O_R   0.648093 0.892072 0.219557 -0.221429
O40   O     O_R   0.759849 0.897302 0.321289 -0.202706
N16   N     N_R   0.322612 0.094174 0.692385 0.259552
O41   O     O_R   0.238809 0.102922 0.671389 -0.224337
O42   O     O_R   0.344008 0.101400 0.780516 -0.226280

loop_
_geom_bond_atom_site_label_1
_geom_bond_atom_site_label_2
_geom_bond_distance
_ccdc_geom_bond_type
N4    O18   1.300334 A    
N11   O31   1.300873 A    
N3    O16   1.300351 A    
N13   O35   1.301066 A    
C17   C19   1.411143 A    
C9    C10   1.205290 T    
C29   N11   1.426220 S    
O3    C2    1.291123 A    
Zn1   N1    2.032295 S    
N9    O27   1.300900 A    
C29   N1    1.366142 A    
S1    O9    1.500940 D    
C17   C23   1.414962 A    
O5    C3    1.301686 A    
C11   C21   1.413877 A    
C40   N16   1.432928 S    
C12   C22   1.413867 A    
O1    C1    1.291121 A    
C14   C16   1.403121 A    
C28   N2    1.368227 A    
N8    O26   1.301136 A    
C33   C39   1.420769 A    
S2    O13   1.503962 D    
C34   C40   1.424759 A    
O11   H1    0.990530 S    
C15   N3    1.434804 S    
C33   C35   1.420134 A    
N5    O20   1.301033 A    
O7    Zn1   1.824628 S    
C23   C25   1.402446 A    
C3    C5    1.434845 S    
C4    C6    1.434847 S    
N14   O38   1.301151 A    
C8    C10   1.411554 S    
O14   H2    0.990533 S    
O3    Zn1   2.007129 S    
C23   N5    1.432498 S    
Zn2   N2    2.032297 S    
S2    O14   1.665157 S    
C30   N2    1.368226 A    
N4    O17   1.300555 A    
C18   C24   1.414970 A    
N13   O36   1.301121 A    
O4    Zn2   2.007130 S    
C27   N9    1.426226 S    
O2    C2    1.305576 A    
N9    O28   1.300529 A    
S1    O10   1.503950 D    
C39   N15   1.433250 S    
C34   C36   1.418872 A    
N16   O41   1.301154 A    
C16   N4    1.434795 S    
C22   C25   1.416591 A    
N10   O29   1.300844 A    
N6    O22   1.300999 A    
O8    Zn2   1.824629 S    
N8    O25   1.301266 A    
C31   C37   1.420724 A    
C29   C31   1.434093 A    
S2    O12   1.500946 D    
N7    O23   1.301277 A    
C19   C20   1.402263 A    
C11   S1    1.790194 S    
N12   O34   1.301002 A    
C35   C36   1.439751 A    
O5    Zn1   1.824618 S    
O6    C4    1.303518 A    
C37   C40   1.405761 A    
C25   N7    1.437391 S    
N14   O37   1.301164 A    
C38   C39   1.405770 A    
N16   O42   1.301144 A    
O4    C1    1.305581 A    
N7    O24   1.301144 A    
N15   O40   1.301294 A    
C11   C13   1.417715 A    
C12   C14   1.417707 A    
O1    Zn1   2.007115 S    
C27   C33   1.434125 A    
C24   N6    1.432485 S    
S1    O11   1.665154 S    
C32   C38   1.424758 A    
C5    C7    1.205123 T    
O6    Zn2   1.824616 S    
C28   N10   1.419582 S    
N10   O30   1.301001 A    
N6    O21   1.300796 A    
C12   S2    1.790182 S    
C15   C17   1.402404 A    
C16   C18   1.402418 A    
N15   O39   1.301252 A    
C30   N12   1.419584 S    
C18   C20   1.411149 A    
C19   C21   1.411446 A    
C26   N8    1.437386 S    
C20   C22   1.411447 A    
C38   N14   1.432939 S    
N12   O33   1.300846 A    
C1    C14   1.446264 S    
C2    C13   1.446255 S    
C7    C9    1.411554 S    
C24   C26   1.402459 A    
C13   C15   1.403110 A    
C27   N1    1.366154 A    
N5    O19   1.300853 A    
O2    Zn2   2.007113 S    
O7    C4    1.301687 A    
C28   C34   1.436562 A    
O8    C3    1.303519 A    
N3    O15   1.300639 A    
C30   C32   1.436561 A    
C6    C8    1.205121 T    
N11   O32   1.300480 A    
C21   C26   1.416584 A    
C37   N13   1.433133 S    
C31   C35   1.420118 A    
C32   C36   1.418865 A    
