data_mof_unit_63414.cif
_audit_creation_date              2012-12-10T19:13:02-0500
_audit_creation_method            fapswitch 2.2
_symmetry_space_group_name_H-M    P1
_symmetry_Int_Tables_number       1
_space_group_crystal_system       triclinic
_cell_length_a                    8.779345
_cell_length_b                    15.999792
_cell_length_c                    14.761751
_cell_angle_alpha                 89.969188
_cell_angle_beta                  97.404669
_cell_angle_gamma                 89.955713
_cell_volume                      2056.2560582

loop_
_atom_site_label
_atom_site_type_symbol
_atom_type_description
_atom_site_fract_x
_atom_site_fract_y
_atom_site_fract_z
_atom_type_partial_charge
C1    C     C_R   0.500053 0.340867 0.500002 0.829722
C2    C     C_R   0.499947 0.659133 0.499998 0.829721
C3    C     C_R   0.499884 0.500040 0.902852 0.034290
C4    C     C_R   0.500116 0.499959 0.097148 0.034290
C5    C     C_R   0.411443 0.442038 0.945345 -0.128132
C6    C     C_R   0.588557 0.557962 0.054655 -0.128135
C7    C     C_1   0.499893 0.500036 0.802714 0.175527
C8    C     C_1   0.500107 0.499964 0.197286 0.175520
C9    C     C_R   0.203632 0.499344 0.477557 0.866967
C10   C     C_R   0.796367 0.500653 0.522445 0.866970
C11   C     C_2   0.041264 0.486168 0.467442 -0.077436
C12   C     C_2   0.958741 0.513820 0.532564 -0.077428
C13   C     C_R   0.460511 0.955559 0.575141 -0.213115
C14   C     C_R   0.539488 0.044441 0.424859 -0.213112
C15   C     C_R   0.500668 0.912701 0.499056 0.051245
C16   C     C_R   0.499331 0.087299 0.500944 0.051245
C17   C     C_R   0.540412 0.957201 0.423484 0.180776
C18   C     C_R   0.459588 0.042799 0.576516 0.180777
C19   C     C_1   0.500373 0.823203 0.499609 0.021002
C20   C     C_1   0.499627 0.176797 0.500390 0.021004
C21   C     C_1   0.499878 0.251812 0.500066 -0.115013
C22   C     C_1   0.500121 0.748187 0.499934 -0.115020
C23   C     C_R   0.588435 0.558006 0.958832 -0.135781
C24   C     C_R   0.411566 0.441994 0.041168 -0.135781
Cu1   Cu    Cu3+1 0.500040 0.500000 0.589220 1.036939
Cu2   Cu    Cu3+1 0.499960 0.500000 0.410780 1.036938
H1    H     H_    0.429880 0.921202 0.633440 0.179762
H2    H     H_    0.570120 0.078798 0.366560 0.179763
H3    H     H_    0.657999 0.603426 0.095646 0.151125
H4    H     H_    0.342001 0.396574 0.904354 0.151126
H5    H     H_    0.657794 0.603497 0.928414 0.148610
H6    H     H_    0.342206 0.396503 0.071585 0.148610
N1    N     N_1   0.500050 0.499980 0.276720 -0.137147
N2    N     N_1   0.499950 0.500020 0.723280 -0.137146
O1    O     O_R   0.500070 0.380310 0.575330 -0.567495
O2    O     O_R   0.499930 0.619690 0.424670 -0.567494
O3    O     O_R   0.500000 0.380310 0.424640 -0.564685
O4    O     O_R   0.500000 0.619690 0.575360 -0.564685
O5    O     O_R   0.274870 0.500000 0.557960 -0.560077
O6    O     O_R   0.725130 0.500000 0.442040 -0.560078
O7    O     O_R   0.274790 0.500000 0.407270 -0.562967
O8    O     O_R   0.725210 0.500000 0.592730 -0.562969
I1    I     I_    0.958521 0.404537 0.356382 -0.306005
I2    I     I_    0.041481 0.595436 0.643643 -0.305999
I3    I     I_    0.397460 0.103842 0.693969 -0.308113
I4    I     I_    0.602539 0.896158 0.306030 -0.308116

loop_
_geom_bond_atom_site_label_1
_geom_bond_atom_site_label_2
_ccdc_geom_bond_type
Cu1   O8    S    
C2    C22   S    
C11   C12   D    
C24   H6    S    
Cu2   O3    S    
C1    C21   S    
Cu1   O4    S    
C10   O8    A    
C2    O4    A    
Cu2   N1    S    
C3    C23   A    
C1    O3    A    
Cu1   N2    S    
C16   C20   S    
C19   C22   T    
C12   I2    S    
Cu1   O5    S    
C15   C19   S    
C9    C11   S    
C14   C17   A    
Cu2   O6    S    
C20   C21   T    
C5    C24   A    
C10   C12   S    
C13   C18   A    
Cu1   O1    S    
C6    C23   A    
C10   O6    A    
C3    C7    S    
C8    N1    T    
C13   C15   A    
C4    C24   A    
C7    N2    T    
C14   C16   A    
C11   I1    S    
C4    C6    A    
C18   I3    S    
C9    O5    A    
C6    H3    S    
C17   I4    S    
C1    O1    A    
C16   C18   A    
C5    H4    S    
C2    O2    A    
C4    C8    S    
C15   C17   A    
C13   H1    S    
C14   H2    S    
Cu1   Cu2   S    
C9    O7    A    
Cu2   O2    S    
Cu2   O7    S    
C3    C5    A    
C23   H5    S    
