data_mof_unit_58998.cif
_audit_creation_date              2012-12-10T17:47:13-0500
_audit_creation_method            fapswitch 2.2
_symmetry_space_group_name_H-M    P1
_symmetry_Int_Tables_number       1
_space_group_crystal_system       triclinic
_cell_length_a                    11.701161
_cell_length_b                    14.72306
_cell_length_c                    14.619839
_cell_angle_alpha                 65.408797
_cell_angle_beta                  103.051253
_cell_angle_gamma                 102.626299
_cell_volume                      2208.87009786

loop_
_atom_site_label
_atom_site_type_symbol
_atom_type_description
_atom_site_fract_x
_atom_site_fract_y
_atom_site_fract_z
_atom_type_partial_charge
C1    C     C_R   0.480059 0.119485 0.311743 0.820064
C2    C     C_R   0.518614 0.880570 0.688202 0.819658
C3    C     C_R   0.439396 0.322313 0.998716 0.092687
C4    C     C_R   0.510688 0.677355 0.998530 0.091382
C5    C     C_R   0.477843 0.466377 0.050781 0.083018
C6    C     C_R   0.474720 0.533271 0.946755 0.082409
C7    C     C_R   0.446662 0.491769 0.871321 -0.222745
C8    C     C_R   0.490410 0.507638 0.125050 -0.220782
C9    C     C_R   0.428495 0.388369 0.897136 -0.200986
C10   C     C_R   0.505808 0.611008 0.099011 -0.202268
C11   C     C_R   0.689949 0.282438 0.673250 -0.406950
C12   C     C_R   0.309529 0.717380 0.327052 -0.412399
C13   C     C_R   0.664417 0.202559 0.640159 0.720574
C14   C     C_R   0.335210 0.797288 0.360129 0.717033
C15   C     C_R   0.516775 0.285775 0.508158 -0.103914
C16   C     C_R   0.483199 0.714211 0.491792 -0.103647
C17   C     C_R   0.542933 0.371089 0.535440 -0.020092
C18   C     C_R   0.456613 0.628732 0.464753 -0.019051
C19   C     C_R   0.630071 0.366408 0.621268 0.091646
C20   C     C_R   0.369358 0.633381 0.379008 0.093963
C21   C     C_R   0.485054 0.459388 0.482371 0.097143
C22   C     C_R   0.514260 0.540327 0.517955 0.093913
C23   C     C_R   0.284164 0.000315 0.500046 0.813221
C24   C     C_R   0.715842 0.999664 0.499990 0.813721
C25   C     C_R   0.599294 0.529758 0.605889 -0.237088
C26   C     C_R   0.399651 0.469795 0.394680 -0.239947
C27   C     C_R   0.656384 0.444915 0.655742 -0.171202
C28   C     C_R   0.342727 0.554728 0.344724 -0.179724
C29   C     C_1   0.162633 0.000730 0.500186 -0.189993
C30   C     C_1   0.837385 0.999224 0.499904 -0.189026
C31   C     C_1   0.060028 0.000347 0.500128 -0.011248
C32   C     C_1   0.939996 0.999596 0.499990 -0.010898
C33   C     C_R   0.465895 0.186756 0.202896 -0.157303
C34   C     C_R   0.521923 0.813490 0.796691 -0.153606
C35   C     C_R   0.423908 0.218199 0.022849 -0.289512
C36   C     C_R   0.529319 0.781587 0.974453 -0.289958
C37   C     C_R   0.437954 0.149973 0.124306 0.503937
C38   C     C_R   0.531909 0.850140 0.873661 0.503890
C39   C     C_R   0.481320 0.290974 0.178034 -0.337427
C40   C     C_R   0.507587 0.709327 0.822022 -0.333726
C41   C     C_R   0.465746 0.360357 0.076679 0.091722
C42   C     C_R   0.496841 0.639471 0.921541 0.091340
Cu1   Cu    Cu3+1 0.469550 0.918260 0.475690 0.984528
Cu2   Cu    Cu3+1 0.530450 0.081740 0.524310 0.985004
H1    H     H_    0.406897 0.359950 0.836832 0.148129
H2    H     H_    0.514500 0.639199 0.158343 0.152028
H3    H     H_    0.400793 0.189405 0.962797 0.144842
H4    H     H_    0.541117 0.810175 0.033878 0.144722
H5    H     H_    0.434291 0.536902 0.790912 0.144097
H6    H     H_    0.485235 0.462224 0.204151 0.140272
N1    N     N_R   0.576230 0.204580 0.560790 -0.218382
N2    N     N_R   0.423770 0.795420 0.439210 -0.218295
O1    O     O_R   0.459870 0.022090 0.338120 -0.491481
O2    O     O_R   0.540130 0.977910 0.661880 -0.489269
O3    O     O_R   0.511290 0.160150 0.379180 -0.609987
O4    O     O_R   0.488710 0.839850 0.620820 -0.610180
O5    O     O_R   0.311490 0.930960 0.479480 -0.549818
O6    O     O_R   0.688510 0.069040 0.520520 -0.550668
O7    O     O_R   0.362910 0.069020 0.520540 -0.587924
O8    O     O_R   0.637090 0.930980 0.479460 -0.587445
H7    H     H_    0.623701 0.585810 0.638794 0.131670
H8    H     H_    0.374659 0.413471 0.362139 0.129828
H9    H     H_    0.507091 0.684419 0.762446 0.170638
H10   H     H_    0.508228 0.316581 0.239618 0.174998
O9    O     O_3   0.552559 0.952610 0.852012 -0.538782
C43   C     C_3   0.447090 0.983642 0.852739 -0.292078
H11   H     H_    0.373179 0.965643 0.797114 0.149561
H12   H     H_    0.462223 0.066755 0.829625 0.186527
H13   H     H_    0.421725 0.949527 0.930269 0.147078
O10   O     O_3   0.416965 0.047502 0.146005 -0.535022
C44   C     C_3   0.516859 0.018796 0.131688 -0.282555
H14   H     H_    0.502181 0.935743 0.154283 0.185720
H15   H     H_    0.598451 0.037717 0.180569 0.148384
H16   H     H_    0.529643 0.053863 0.050380 0.148251
H17   H     H_    0.721828 0.440596 0.722533 0.144297
H18   H     H_    0.277131 0.558974 0.278036 0.145461
H19   H     H_    0.552209 0.719208 0.552798 0.149413
H20   H     H_    0.448080 0.280886 0.446917 0.150069
O11   O     O_3   0.279463 0.882408 0.307988 -0.517974
C45   C     C_3   0.156237 0.856360 0.309585 -0.295113
H21   H     H_    0.117694 0.926367 0.287555 0.191646
H22   H     H_    0.135159 0.805155 0.386920 0.144948
H23   H     H_    0.113124 0.822325 0.253101 0.148376
O12   O     O_3   0.719851 0.117298 0.692641 -0.522363
C46   C     C_3   0.843063 0.143061 0.690875 -0.305557
H24   H     H_    0.886411 0.177674 0.746854 0.149060
H25   H     H_    0.864056 0.193686 0.613359 0.147535
H26   H     H_    0.881443 0.072858 0.713465 0.191433
H27   H     H_    0.755133 0.278356 0.740048 0.153271
H28   H     H_    0.244163 0.721390 0.260376 0.153283

loop_
_geom_bond_atom_site_label_1
_geom_bond_atom_site_label_2
_ccdc_geom_bond_type
C43   H12   S    
C21   C26   A    
C4    C36   A    
C9    H1    S    
C35   H3    S    
C1    C33   S    
C39   C41   A    
C46   H24   S    
C23   O7    A    
C39   H10   S    
C13   O12   S    
C11   C19   A    
C33   C39   A    
C40   H9    S    
C34   C40   A    
C23   C29   S    
C12   H28   S    
C35   C37   A    
C5    C6    A    
Cu1   N2    S    
C43   H13   S    
Cu2   O7    S    
C7    C9    A    
C16   H19   S    
C1    O1    A    
C13   N1    A    
Cu1   O1    S    
C14   N2    A    
Cu2   O6    S    
C22   C25   A    
C10   H2    S    
O10   C44   S    
C15   N1    A    
C19   C27   A    
C2    C34   S    
C40   C42   A    
C43   H11   S    
C34   C38   A    
C37   O10   S    
C45   H23   S    
C27   H17   S    
C46   H25   S    
C24   O6    A    
O12   C46   S    
C7    H5    S    
C45   H22   S    
C2    O2    A    
C44   H15   S    
C20   C28   A    
C33   C37   A    
Cu1   Cu2   S    
C3    C9    A    
C44   H16   S    
C11   H27   S    
C31   C32   S    
C38   O9    S    
C3    C35   A    
C24   O8    A    
C12   C20   A    
C25   H7    S    
C14   O11   S    
Cu1   O8    S    
Cu2   N1    S    
C8    C10   A    
C12   C14   A    
C4    C10   A    
C28   H18   S    
C8    H6    S    
C46   H26   S    
C23   O5    A    
C5    C41   A    
C3    C41   A    
C18   C22   A    
C16   N2    A    
C45   H21   S    
C5    C8    A    
C15   C17   A    
C6    C7    A    
C25   C27   A    
C26   C28   A    
C36   C38   A    
C26   H8    S    
C44   H14   S    
C29   C31   T    
C2    O4    A    
C30   C32   T    
C11   C13   A    
Cu2   O3    S    
C4    C42   A    
C17   C19   A    
C36   H4    S    
C18   C20   A    
C1    O3    A    
C24   C30   S    
Cu1   O5    S    
O11   C45   S    
C15   H20   S    
Cu2   O2    S    
Cu1   O4    S    
C16   C18   A    
O9    C43   S    
C6    C42   A    
C21   C22   A    
C17   C21   A    
