data_mof_unit_57839.cif
_audit_creation_date              2012-10-26T17:46:55-0400
_audit_creation_method            fapswitch 2.2
_symmetry_space_group_name_H-M    P1
_symmetry_Int_Tables_number       1
_space_group_crystal_system       triclinic
_cell_length_a                    19.046871
_cell_length_b                    18.852117
_cell_length_c                    18.910594
_cell_angle_alpha                 109.5328
_cell_angle_beta                  110.127073
_cell_angle_gamma                 109.940115
_cell_volume                      5149.11565061

loop_
_atom_site_label
_atom_site_type_symbol
_atom_type_description
_atom_site_fract_x
_atom_site_fract_y
_atom_site_fract_z
_atom_type_partial_charge
C1    C     C_R   0.382237 0.500937 0.380940 0.533061
C2    C     C_R   0.298280 0.503053 0.022762 -0.094246
C3    C     C_R   0.119221 0.117231 0.499107 0.576421
C4    C     C_R   0.000267 0.380634 0.881566 0.535934
C5    C     C_R   0.118501 0.495559 0.114148 0.580582
C6    C     C_R   0.000702 0.619683 0.118408 0.603112
C7    C     C_R   0.880955 0.499195 0.880604 0.554244
C8    C     C_R   0.042580 0.749546 0.535936 -0.075563
C9    C     C_R   0.058905 0.773836 0.478420 -0.037789
C10   C     C_R   0.994804 0.726544 0.388838 0.067277
C11   C     C_R   0.916851 0.650723 0.357271 -0.117605
C12   C     C_R   0.900436 0.626636 0.414712 -0.074923
C13   C     C_R   0.317045 0.573463 0.008113 -0.085201
C14   C     C_R   0.850642 0.829247 0.818998 -0.116010
C15   C     C_R   0.962880 0.676257 0.504366 0.281841
C16   C     C_R   0.021029 0.691297 0.265650 0.210276
C17   C     C_R   0.006025 0.690196 0.187173 -0.018090
C18   C     C_R   0.999556 0.758406 0.175356 -0.045882
C19   C     C_R   0.999363 0.823669 0.239287 0.212888
C20   C     C_R   0.002458 0.816917 0.313277 -0.086027
C21   C     C_R   0.010608 0.748670 0.324660 -0.088991
C22   C     C_R   0.065620 0.796283 0.087212 0.350905
C23   C     C_R   0.053005 0.788417 0.006731 -0.057501
C24   C     C_R   0.077740 0.260607 0.752839 -0.148855
C25   C     C_R   0.969146 0.746456 0.935153 -0.152421
C26   C     C_R   0.822535 0.824781 0.577058 -0.119695
C27   C     C_R   0.998770 0.183226 0.686341 0.000141
C28   C     C_R   0.920247 0.170199 0.683656 -0.040120
C29   C     C_R   0.922766 0.234207 0.750160 -0.138536
C30   C     C_R   0.001574 0.313152 0.815857 -0.016683
C31   C     C_R   0.079828 0.326974 0.816295 -0.039917
C32   C     C_R   0.796031 0.082883 0.529187 -0.020822
C33   C     C_R   0.796140 0.855284 0.839140 0.277395
C34   C     C_R   0.723791 0.003167 0.456641 -0.025641
C35   C     C_R   0.689338 0.930303 0.465326 0.136000
C36   C     C_R   0.725730 0.939201 0.548528 -0.102105
C37   C     C_R   0.798926 0.018759 0.621087 -0.122939
C38   C     C_R   0.813488 0.811487 0.496372 0.023097
C39   C     C_R   0.835575 0.090477 0.611260 0.045850
C40   C     C_R   0.738880 0.736680 0.417104 -0.005952
C41   C     C_R   0.677913 0.674668 0.422269 -0.144528
C42   C     C_R   0.686302 0.688569 0.502865 0.021849
C43   C     C_R   0.757844 0.766264 0.581253 -0.002896
C44   C     C_R   0.896836 0.714336 0.943739 -0.089681
C45   C     C_R   0.639137 0.685021 0.259756 -0.109963
C46   C     C_R   0.620838 0.657742 0.173332 0.106660
C47   C     C_R   0.687391 0.662330 0.154901 0.304830
C48   C     C_R   0.620053 0.619761 0.502002 0.546905
C49   C     C_R   0.771595 0.698248 0.223513 -0.103974
C50   C     C_R   0.789204 0.726126 0.309122 -0.131134
C51   C     C_R   0.723107 0.718091 0.328162 0.021304
C52   C     C_R   0.414472 0.762843 0.551709 -0.102078
C53   C     C_R   0.362089 0.680307 0.475226 -0.026349
C54   C     C_R   0.376779 0.664886 0.405072 0.048640
C55   C     C_R   0.907761 0.719559 0.022521 -0.069472
C56   C     C_R   0.441846 0.734345 0.410943 -0.105455
C57   C     C_R   0.493452 0.817291 0.487250 -0.116150
C58   C     C_R   0.480359 0.831292 0.557824 -0.112712
C59   C     C_R   0.255965 0.574746 0.252111 -0.107172
C60   C     C_R   0.618780 0.500632 0.619584 0.584813
C61   C     C_R   0.185666 0.493763 0.179030 0.018440
C62   C     C_R   0.178364 0.414597 0.173837 -0.044084
C63   C     C_R   0.246771 0.419751 0.238957 -0.161481
C64   C     C_R   0.315394 0.500764 0.313402 -0.006446
C65   C     C_R   0.317223 0.578948 0.322330 -0.043594
C66   C     C_R   0.991601 0.759297 0.094581 0.070470
C67   C     C_R   0.059559 0.268225 0.128174 -0.090583
C68   C     C_R   0.988231 0.183682 0.063844 -0.075235
C69   C     C_R   0.957359 0.155617 0.975256 -0.081930
C70   C     C_R   0.997490 0.212329 0.950982 -0.103759
C71   C     C_R   0.068383 0.297253 0.015215 -0.061442
C72   C     C_R   0.382935 0.380338 0.501014 0.585323
C73   C     C_R   0.100404 0.326073 0.104478 0.040120
C74   C     C_R   0.189871 0.495025 0.535372 0.327275
C75   C     C_R   0.217937 0.438711 0.549595 -0.103166
C76   C     C_R   0.225816 0.382755 0.485897 0.000700
C77   C     C_R   0.261366 0.561621 0.928647 -0.085249
C78   C     C_R   0.206444 0.383808 0.408021 -0.107439
C79   C     C_R   0.177775 0.439009 0.393115 -0.159463
C80   C     C_R   0.168432 0.494271 0.455926 0.096285
C81   C     C_R   0.179379 0.249925 0.493870 -0.150056
C82   C     C_R   0.188072 0.181477 0.498771 -0.021525
C83   C     C_R   0.262321 0.176270 0.505610 -0.041206
C84   C     C_R   0.727199 0.849519 0.773726 -0.105792
C85   C     C_R   0.326797 0.239960 0.503938 0.211842
C86   C     C_R   0.317169 0.310828 0.500341 -0.007100
C87   C     C_R   0.243280 0.315155 0.495891 -0.061623
C88   C     C_R   0.185402 0.480192 0.864885 -0.051225
C89   C     C_R   0.316468 0.117489 0.599033 -0.011388
C90   C     C_R   0.322414 0.048909 0.608429 -0.085704
C91   C     C_R   0.283527 0.967092 0.534277 -0.107149
C92   C     C_R   0.238822 0.953776 0.450621 -0.078687
C93   C     C_R   0.233184 0.022327 0.440871 0.002305
C94   C     C_R   0.271708 0.104507 0.515021 0.107380
C95   C     C_R   0.536187 0.581359 0.812752 -0.015392
C96   C     C_R   0.713588 0.818767 0.689141 -0.128868
C97   C     C_R   0.608435 0.582648 0.808455 -0.005804
C98   C     C_R   0.608355 0.504102 0.773872 0.049217
C99   C     C_R   0.164212 0.410324 0.880698 0.041687
C100  C     C_R   0.537245 0.425105 0.747854 -0.049087
C101  C     C_R   0.465015 0.423994 0.752013 -0.092249
C102  C     C_R   0.464172 0.501970 0.783762 -0.046685
C103  C     C_R   0.745119 0.501399 0.823654 -0.148150
C104  C     C_R   0.813448 0.498171 0.813193 0.024121
C105  C     C_R   0.816248 0.493828 0.738539 -0.002150
C106  C     C_R   0.753409 0.497882 0.677771 -0.091089
C107  C     C_R   0.685637 0.502164 0.688385 0.014377
C108  C     C_R   0.767069 0.790780 0.668288 0.026900
C109  C     C_R   0.681099 0.503912 0.762042 -0.042268
C110  C     C_R   0.222680 0.421255 0.958689 -0.096274
C111  C     C_R   0.954184 0.541313 0.737152 -0.079719
C112  C     C_R   0.011183 0.522946 0.714935 -0.052270
C113  C     C_R   0.990471 0.436173 0.670802 -0.115693
C114  C     C_R   0.913305 0.367516 0.649751 -0.095471
C115  C     C_R   0.855258 0.384802 0.671610 0.284274
C116  C     C_R   0.876377 0.472860 0.716172 0.027567
C117  C     C_R   0.000436 0.881883 0.380628 0.569887
C118  C     C_R   0.880885 0.879810 0.498317 0.533919
C119  C     C_R   0.999529 0.117845 0.619047 0.541306
C120  C     C_R   0.836138 0.796830 0.734066 -0.146465
Cu1   Cu    Cu3+1 0.499980 0.561800 0.561790 0.951351
Cu2   Cu    Cu3+1 0.500020 0.438200 0.438210 1.093541
Cu3   Cu    Cu3+1 0.061810 0.999960 0.561770 0.923525
Cu4   Cu    Cu3+1 0.938190 0.999990 0.438190 1.052381
Cu5   Cu    Cu3+1 0.061800 0.561770 0.999960 1.016444
Cu6   Cu    Cu3+1 0.938200 0.438190 0.000000 1.076068
H1    H     H_    0.823388 0.702963 0.210302 0.145554
H2    H     H_    0.684872 0.870090 0.788308 0.158732
H3    H     H_    0.082795 0.288562 0.196495 0.107197
H4    H     H_    0.957131 0.139836 0.082751 0.170105
H5    H     H_    0.902473 0.089945 0.925480 0.147731
H6    H     H_    0.973760 0.190255 0.882350 0.116235
H7    H     H_    0.098372 0.340371 0.995501 0.089061
H8    H     H_    0.231922 0.436710 0.609245 0.139863
H9    H     H_    0.210656 0.339711 0.357651 0.116807
H10   H     H_    0.160824 0.437411 0.331647 0.130116
H11   H     H_    0.661683 0.817320 0.640044 0.124264
H12   H     H_    0.854185 0.752216 0.360502 0.116413
H13   H     H_    0.122056 0.252908 0.488924 0.141512
H14   H     H_    0.346179 0.180457 0.656872 0.096333
H15   H     H_    0.356840 0.059076 0.673190 0.109408
H16   H     H_    0.287841 0.913943 0.541637 0.110329
H17   H     H_    0.208203 0.890173 0.393468 0.162489
H18   H     H_    0.198984 0.011529 0.375942 0.201083
H19   H     H_    0.408105 0.501001 0.786674 0.127844
H20   H     H_    0.535853 0.641831 0.838137 0.142546
H21   H     H_    0.663309 0.644236 0.829736 0.147857
H22   H     H_    0.879868 0.778357 0.720098 0.181779
H23   H     H_    0.520511 0.895472 0.616756 0.124736
H24   H     H_    0.537162 0.364312 0.723110 0.160618
H25   H     H_    0.409566 0.362649 0.730257 0.101652
H26   H     H_    0.742459 0.503344 0.880612 0.165330
H27   H     H_    0.755410 0.494050 0.620011 0.178750
H28   H     H_    0.970606 0.608855 0.770749 0.144591
H29   H     H_    0.071335 0.576041 0.731689 0.176153
H30   H     H_    0.034421 0.421999 0.653015 0.162147
H31   H     H_    0.898962 0.300880 0.616116 0.139611
H32   H     H_    0.905439 0.835936 0.869661 0.156288
H33   H     H_    0.092385 0.787651 0.604771 0.131332
H34   H     H_    0.403364 0.773929 0.605817 0.143603
H35   H     H_    0.121979 0.828779 0.503574 0.133722
H36   H     H_    0.868012 0.610951 0.287964 0.136449
H37   H     H_    0.839039 0.569187 0.389250 0.158197
H38   H     H_    0.108275 0.815414 0.999307 0.161271
H39   H     H_    0.960340 0.739999 0.873198 0.118343
H40   H     H_    0.832130 0.684574 0.888863 0.138152
H41   H     H_    0.878235 0.884033 0.637175 0.128910
H42   H     H_    0.850840 0.692659 0.027460 0.194763
H43   H     H_    0.374775 0.637179 0.058043 0.110964
H44   H     H_    0.276454 0.615822 0.916895 0.135727
H45   H     H_    0.310185 0.628332 0.470629 0.157155
H46   H     H_    0.142035 0.472247 0.804331 0.122647
H47   H     H_    0.209568 0.366978 0.970233 0.102418
H48   H     H_    0.341983 0.511876 0.083880 0.109500
H49   H     H_    0.137520 0.270613 0.753312 0.126261
H50   H     H_    0.862689 0.223608 0.748986 0.195841
H51   H     H_    0.824050 0.137495 0.520417 0.134386
H52   H     H_    0.696168 0.997331 0.393030 0.127538
H53   H     H_    0.622502 0.614901 0.362564 0.124523
H54   H     H_    0.698891 0.883905 0.556584 0.101809
H55   H     H_    0.828724 0.023466 0.683939 0.105653
H56   H     H_    0.451336 0.724257 0.355951 0.097787
H57   H     H_    0.587431 0.679453 0.273519 0.114064
H58   H     H_    0.780080 0.974104 0.023857 0.380872
H59   H     H_    0.561110 0.489956 0.986679 0.349099
H60   H     H_    0.073700 0.523356 0.428488 0.295636
H61   H     H_    0.130829 0.544777 0.380452 0.289646
H62   H     H_    0.214808 0.700238 0.673871 0.356820
H63   H     H_    0.479029 0.155396 0.522673 0.388297
H64   H     H_    0.640346 0.300605 0.624410 0.382954
H65   H     H_    0.069677 0.690682 0.677254 0.350834
H66   H     H_    0.184021 0.738141 0.416034 0.336446
H67   H     H_    0.542838 0.871253 0.491567 0.129922
H68   H     H_    0.028463 0.983712 0.163713 0.395335
H69   H     H_    0.301418 0.891962 0.192187 0.378822
H70   H     H_    0.564621 0.852429 0.364872 0.226046
H71   H     H_    0.604925 0.798553 0.404959 0.215763
H72   H     H_    0.492517 0.619221 0.128330 0.200374
H73   H     H_    0.537971 0.669948 0.084477 0.265586
H74   H     H_    0.259299 0.635128 0.257618 0.175599
H75   H     H_    0.244036 0.359745 0.234010 0.133769
N1    N     N_3   0.136772 0.549134 0.438945 -0.493978
N2    N     N_3   0.619875 0.847278 0.388622 -0.638119
N3    N     N_3   0.534743 0.623979 0.104333 -0.570466
O1    O     O_R   0.409800 0.552190 0.462000 -0.514863
O2    O     O_R   0.947810 0.357610 0.909840 -0.510140
O3    O     O_R   0.142370 0.552160 0.090140 -0.504705
O4    O     O_R   0.409840 0.447810 0.357640 -0.522139
O5    O     O_R   0.037990 0.447800 0.090170 -0.469394
O6    O     O_R   0.052190 0.642350 0.090120 -0.478525
O7    O     O_R   0.947800 0.537990 0.090150 -0.467831
O8    O     O_R   0.962010 0.552150 0.909780 -0.537736
O9    O     O_R   0.857630 0.447800 0.909820 -0.483591
O10   O     O_R   0.590160 0.642370 0.552180 -0.519698
O11   O     O_R   0.590190 0.537990 0.447820 -0.508249
O12   O     O_R   0.947810 0.909820 0.357620 -0.429941
O13   O     O_R   0.590160 0.552190 0.642360 -0.531522
O14   O     O_R   0.590200 0.447810 0.538000 -0.444254
O15   O     O_R   0.409810 0.462010 0.552180 -0.516448
O16   O     O_R   0.409840 0.357630 0.447820 -0.435772
O17   O     O_R   0.052200 0.909800 0.461980 -0.537351
O18   O     O_2   0.786311 0.822201 0.962707 -0.236334
O19   O     O_2   0.912400 0.959633 0.010291 -0.295190
O20   O     O_3   0.762057 0.949534 0.961192 -0.544217
O21   O     O_2   0.680693 0.694807 0.026821 -0.217667
O22   O     O_2   0.728650 0.591998 0.038057 -0.349265
O23   O     O_R   0.962020 0.909790 0.552160 -0.516088
O24   O     O_3   0.563841 0.537601 0.974318 -0.496001
O25   O     O_2   0.083842 0.533832 0.579820 -0.286633
O26   O     O_2   0.214902 0.560842 0.698128 -0.341688
O27   O     O_3   0.232946 0.667614 0.638168 -0.496480
O28   O     O_2   0.398701 0.196327 0.410093 -0.219185
O29   O     O_2   0.498934 0.316802 0.562133 -0.315094
O30   O     O_3   0.432617 0.159429 0.533053 -0.534249
O31   O     O_2   0.742031 0.209911 0.581345 -0.293148
O32   O     O_2   0.763203 0.296462 0.724056 -0.317279
O33   O     O_3   0.671536 0.305275 0.592208 -0.471523
O34   O     O_R   0.857630 0.909810 0.447800 -0.496229
O35   O     O_2   0.864725 0.653126 0.575623 -0.291619
O36   O     O_2   0.916512 0.551162 0.544054 -0.244398
O37   O     O_3   0.027479 0.709741 0.678677 -0.542806
O38   O     O_2   0.990991 0.544488 0.272373 -0.263549
O39   O     O_2   0.112658 0.610277 0.252901 -0.308702
O40   O     O_3   0.134626 0.687045 0.405747 -0.523505
O41   O     O_2   0.897784 0.888579 0.191493 -0.206287
O42   O     O_2   0.049670 0.995616 0.309320 -0.314807
O43   O     O_3   0.017009 0.924322 0.151543 -0.470175
O44   O     O_2   0.198591 0.949476 0.228766 -0.245867
O45   O     O_R   0.052190 0.090130 0.642340 -0.512392
O46   O     O_2   0.184010 0.817980 0.235301 -0.308439
O47   O     O_3   0.242240 0.854592 0.139105 -0.540977
O48   O     O_R   0.947800 0.090160 0.537980 -0.527567
O49   O     O_R   0.142370 0.090140 0.552150 -0.530637
O50   O     O_R   0.037980 0.090170 0.447800 -0.462963
O51   O     O_R   0.052200 0.461970 0.909800 -0.515902
S1    S     S_3+6 0.816155 0.896966 0.946722 0.000934
S2    S     S_3+6 0.666917 0.622137 0.046771 0.007259
S3    S     S_3+6 0.178923 0.563966 0.615623 -0.016212
S4    S     S_3+6 0.416287 0.228996 0.502081 0.017053
S5    S     S_3+6 0.757036 0.295898 0.642444 -0.002714
S6    S     S_3+6 0.940660 0.645249 0.575843 0.003395
S7    S     S_3+6 0.064113 0.629487 0.296973 -0.001737
S8    S     S_3+6 0.990475 0.910035 0.223848 0.056386
S9    S     S_3+6 0.174283 0.856043 0.176766 0.026554

loop_
_geom_bond_atom_site_label_1
_geom_bond_atom_site_label_2
_ccdc_geom_bond_type
C52   H34   S    
C84   H2    S    
C93   C94   A    
H66   O40   S    
O18   S1    D    
C97   H21   S    
C41   C42   A    
C108  C120  A    
C105  C116  S    
C117  O17   A    
C35   C36   A    
C36   H54   S    
C24   C27   A    
Cu1   O1    S    
O36   S6    D    
C55   C66   A    
C14   C33   A    
C97   C98   A    
C90   C91   A    
C75   H8    S    
Cu3   Cu4   S    
O29   S4    D    
C54   C65   S    
C85   C86   A    
Cu2   O11   S    
C79   H10   S    
C95   H20   S    
H61   N1    S    
C45   H57   S    
C101  C102  A    
Cu2   O16   S    
C14   H32   S    
C88   H46   S    
C92   C93   A    
C28   C29   A    
C76   C78   A    
C18   C19   A    
C47   S2    S    
Cu6   O7    S    
C119  O45   A    
C102  H19   S    
Cu4   O12   S    
C30   C31   A    
Cu3   O23   S    
C106  C107  A    
C45   C51   A    
C115  C116  A    
C56   C57   A    
H60   N1    S    
Cu5   O51   S    
C34   C35   A    
C84   C96   A    
C32   C39   A    
C89   C94   A    
C92   H17   S    
C1    O4    A    
C22   C66   A    
C113  C114  A    
C103  C104  A    
C68   C69   A    
O19   S1    D    
C80   N1    S    
O26   S3    D    
C77   C88   A    
C22   S9    S    
C77   H44   S    
C112  H29   S    
H69   O47   S    
C62   C73   S    
C111  C116  A    
C67   C73   A    
O39   S7    D    
C31   C99   S    
H62   O27   S    
C1    O1    A    
C9    C10   A    
C61   C62   A    
C58   H23   S    
H58   O20   S    
O47   S9    S    
C91   H16   S    
C16   S7    S    
O25   S3    D    
C118  O34   A    
C46   N3    S    
C96   C108  A    
C48   O11   A    
C98   C109  S    
C74   C80   A    
C95   C97   A    
C107  C109  A    
C67   H3    S    
H64   O33   S    
C55   H42   S    
O33   S5    S    
C72   O16   A    
O22   S2    D    
C22   C23   A    
C104  C105  A    
C111  H28   S    
Cu5   O8    S    
C26   C43   A    
C7    O8    A    
C54   C56   A    
C74   S3    S    
C10   C21   S    
O38   S7    D    
O30   S4    S    
C49   H1    S    
O27   S3    S    
C48   O10   A    
C26   H41   S    
O32   S5    D    
C59   C61   A    
C74   C75   A    
C67   C68   A    
H65   O37   S    
Cu2   O4    S    
C47   C49   A    
C83   C94   S    
C114  C115  A    
C91   C92   A    
C71   C73   A    
C101  H25   S    
C78   C79   A    
C16   C17   A    
C42   C48   S    
C6    O7    A    
C28   C39   S    
C25   H39   S    
C53   C54   A    
H59   O24   S    
C19   S8    S    
O28   S4    D    
C11   H36   S    
C81   C82   A    
C90   H15   S    
C79   C80   A    
Cu3   O49   S    
C57   H67   S    
C32   C34   A    
C117  O12   A    
C9    H35   S    
C75   C76   A    
C3    O49   A    
C114  H31   S    
O43   S8    S    
C62   C63   A    
C15   S6    S    
Cu6   O9    S    
C60   O14   A    
C29   H50   S    
C5    O3    A    
Cu4   O34   S    
C12   C15   A    
C59   H74   S    
C69   H5    S    
C106  H27   S    
C37   H55   S    
C3    C82   S    
C70   H6    S    
C17   C18   A    
C8    C9    A    
C5    C61   S    
C50   C51   A    
C44   H40   S    
C85   S4    S    
H70   N2    S    
C68   H4    S    
H63   O30   S    
C2    C13   A    
C76   C87   S    
O46   S9    D    
Cu1   Cu2   S    
C81   C87   A    
C60   C107  S    
C52   C58   A    
C103  H26   S    
C93   H18   S    
Cu4   O50   S    
C40   C41   A    
C83   C85   A    
Cu1   O15   S    
C120  H22   S    
C8    C15   A    
C98   C100  A    
H68   O43   S    
C13   C77   A    
H72   N3    S    
Cu5   Cu6   S    
C32   H51   S    
C34   H52   S    
O40   S7    S    
C42   C43   A    
C113  H30   S    
O41   S8    D    
C1    C64   S    
C96   H11   S    
C70   C71   A    
C52   C53   A    
O20   S1    S    
C23   H38   S    
C78   H9    S    
C110  H47   S    
C4    O2    A    
C81   H13   S    
C72   O15   A    
C46   C47   A    
C36   C37   A    
Cu2   O14   S    
C111  C112  A    
C86   C87   A    
Cu1   O13   S    
C41   H53   S    
C33   S1    S    
C26   C38   A    
C7    O9    A    
Cu6   O5    S    
C71   H7    S    
C72   C86   S    
Cu5   O6    S    
C95   C102  A    
C16   C21   A    
Cu3   O45   S    
C6    O6    A    
C27   C119  S    
C118  O23   A    
C18   C66   S    
C40   C51   S    
C5    O5    A    
C105  C106  A    
C14   C120  A    
C103  C109  A    
C115  S5    S    
C100  H24   S    
Cu1   O10   S    
Cu3   O17   S    
C19   C20   A    
C24   C31   A    
O21   S2    D    
C6    C17   S    
Cu4   O48   S    
C119  O48   A    
C2    H48   S    
C12   H37   S    
C38   C40   A    
C99   C110  A    
C44   C55   A    
C35   N2    S    
C57   C58   A    
H73   N3    S    
C56   H56   S    
Cu6   O2    S    
C7    C104  S    
C64   C65   A    
C13   H43   S    
C100  C101  A    
Cu5   O3    S    
H71   N2    S    
C112  C113  A    
C43   C108  S    
C23   C25   A    
C25   C44   A    
C69   C70   A    
C33   C84   A    
C4    C30   S    
C3    O50   A    
C88   C99   A    
C10   C11   A    
C53   H45   S    
C29   C30   A    
C63   C64   A    
C38   C118  S    
C45   C46   A    
C20   C21   A    
C37   C39   A    
C49   C50   A    
O31   S5    D    
C27   C28   A    
C63   H75   S    
C50   H12   S    
O35   S6    D    
C89   H14   S    
O37   S6    S    
O24   S2    S    
C4    O51   A    
C82   C83   A    
C89   C90   A    
C60   O13   A    
C24   H49   S    
C20   C117  S    
C59   C65   A    
O42   S8    D    
C11   C12   A    
C8    H33   S    
O44   S9    D    
C2    C110  A    
