data_mof_unit_13680.cif
_audit_creation_date              2012-12-10T17:24:42-0500
_audit_creation_method            fapswitch 2.2
_symmetry_space_group_name_H-M    P1
_symmetry_Int_Tables_number       1
_space_group_crystal_system       triclinic
_cell_length_a                    18.575042
_cell_length_b                    18.874761
_cell_length_c                    18.59496
_cell_angle_alpha                 108.754113
_cell_angle_beta                  109.225189
_cell_angle_gamma                 109.093808
_cell_volume                      5099.89357383

loop_
_atom_site_label
_atom_site_type_symbol
_atom_type_description
_atom_site_fract_x
_atom_site_fract_y
_atom_site_fract_z
_atom_type_partial_charge
C1    C     C_R   0.622672 0.619450 0.500985 0.890590
C2    C     C_3   0.194134 0.415252 0.186343 -0.209111
C3    C     C_3   0.216269 0.455265 0.282557 0.010169
C4    C     C_3   0.313686 0.499704 0.311288 -0.241106
C5    C     C_R   0.736243 0.800423 0.649797 -0.013266
C6    C     C_R   0.751555 0.884613 0.694629 -0.040198
C7    C     C_R   0.774748 0.941995 0.662987 -0.008573
C8    C     C_R   0.792303 0.917980 0.594196 -0.167985
C9    C     C_R   0.779279 0.834453 0.551704 0.053217
C10   C     C_R   0.735226 0.771757 0.568462 0.010424
C11   C     C_R   0.816629 0.813268 0.499564 -0.130269
C12   C     C_R   0.379983 0.500305 0.379385 0.909707
C13   C     C_R   0.797349 0.728562 0.452624 0.074092
C14   C     C_R   0.723903 0.663182 0.440975 0.095423
C15   C     C_R   0.694938 0.684407 0.503696 -0.191412
C16   C     C_R   0.845573 0.707513 0.412405 0.013872
C17   C     C_R   0.811621 0.624511 0.348080 -0.046022
C18   C     C_R   0.729556 0.562420 0.323077 -0.081989
C19   C     C_R   0.685494 0.581120 0.368251 -0.027096
C20   C     C_R   0.801314 0.549652 0.638382 0.264708
C21   C     C_R   0.884876 0.616236 0.669087 0.223934
C22   C     C_R   0.943655 0.662109 0.758806 -0.304144
C23   C     C_R   0.380041 0.381055 0.501209 0.819352
C24   C     C_R   0.922940 0.635995 0.816168 0.417060
C25   C     C_R   0.840568 0.561347 0.780524 -0.032040
C26   C     C_R   0.776081 0.540100 0.700391 -0.168375
C27   C     C_R   0.818691 0.498238 0.809222 -0.081441
C28   C     C_R   0.733070 0.425193 0.758749 0.047740
C29   C     C_R   0.665658 0.430815 0.703222 0.104020
C30   C     C_R   0.689043 0.495919 0.680902 0.046154
C31   C     C_R   0.713283 0.345929 0.758321 -0.284040
C32   C     C_R   0.627615 0.280834 0.718852 0.372484
C33   C     C_R   0.558786 0.290571 0.669874 0.386334
C34   C     C_R   0.623059 0.501451 0.619579 0.834485
C35   C     C_R   0.578560 0.365661 0.662928 -0.272524
C36   C     C_R   0.382815 0.393178 0.663035 -0.201307
C37   C     C_R   0.377484 0.404429 0.738857 0.517221
C38   C     C_R   0.304955 0.346070 0.734240 -0.179317
C39   C     C_R   0.239743 0.275313 0.655019 -0.240319
C40   C     C_R   0.245073 0.261704 0.577751 0.069886
C41   C     C_R   0.313468 0.324850 0.580418 0.047872
C42   C     C_R   0.183411 0.186482 0.498139 -0.104242
C43   C     C_R   0.179413 0.179096 0.418608 0.109978
C44   C     C_R   0.239625 0.248179 0.419658 0.030496
C45   C     C_3   0.309960 0.578854 0.309089 0.404121
C46   C     C_R   0.310266 0.317408 0.500702 -0.077395
C47   C     C_R   0.115721 0.104949 0.337597 -0.129224
C48   C     C_R   0.107421 0.102823 0.259716 -0.211640
C49   C     C_R   0.161731 0.174200 0.260169 0.455499
C50   C     C_R   0.227134 0.246421 0.339363 -0.223707
C51   C     C_R   0.002586 0.618198 0.123933 0.866927
C52   C     C_R   0.124428 0.497471 0.121665 0.888187
C53   C     C_R   0.000877 0.382092 0.880123 0.825483
C54   C     C_R   0.883241 0.500408 0.881765 0.851944
C55   C     C_R   0.000912 0.880310 0.379601 0.914545
C56   C     C_3   0.211970 0.534892 0.281218 -0.284665
C57   C     C_R   0.880804 0.880058 0.499821 0.874204
C58   C     C_R   0.997394 0.118743 0.619956 0.812575
C59   C     C_R   0.119436 0.118155 0.497784 0.887244
C60   C     C_R   0.093649 0.672294 0.308540 -0.219519
C61   C     C_R   0.154766 0.713849 0.397066 -0.028243
C62   C     C_R   0.187576 0.801921 0.446536 -0.141762
C63   C     C_R   0.147607 0.843021 0.410660 0.347455
C64   C     C_R   0.066432 0.792091 0.332349 -0.038656
C65   C     C_R   0.051649 0.713593 0.275152 0.003445
C66   C     C_R   0.998893 0.814087 0.310008 -0.153643
C67   C     C_3   0.192024 0.496030 0.186189 -0.208586
C68   C     C_R   0.928054 0.767980 0.221504 -0.042158
C69   C     C_R   0.930988 0.703415 0.159401 -0.027847
C70   C     C_R   0.994198 0.678470 0.187029 -0.072333
C71   C     C_R   0.858964 0.787334 0.188297 0.348272
C72   C     C_R   0.821607 0.767785 0.101469 -0.313683
C73   C     C_R   0.819821 0.700166 0.041316 0.397764
C74   C     C_R   0.868477 0.663030 0.070728 -0.178099
C75   C     C_R   0.929997 0.354435 0.702104 -0.142888
C76   C     C_R   0.875193 0.322648 0.614293 -0.197259
C77   C     C_R   0.883394 0.265234 0.553043 0.436057
C78   C     C_3   0.289368 0.540504 0.213935 0.359981
C79   C     C_R   0.944256 0.238860 0.582608 -0.099889
C80   C     C_R   0.969489 0.242157 0.665358 -0.035173
C81   C     C_R   0.967374 0.305887 0.728375 0.027212
C82   C     C_R   0.998356 0.186545 0.687409 -0.170151
C83   C     C_R   0.032902 0.200746 0.775504 0.022497
C84   C     C_R   0.047466 0.276453 0.839711 0.070009
C85   C     C_R   0.006008 0.321262 0.814865 -0.106155
C86   C     C_R   0.055522 0.145226 0.804795 -0.028021
C87   C     C_R   0.112772 0.177278 0.893370 -0.020009
C88   C     C_R   0.137606 0.258443 0.954123 -0.139174
C89   C     C_3   0.292537 0.460780 0.215641 -0.161051
C90   C     C_R   0.102121 0.305791 0.928530 -0.139270
H1    H     H_    0.173958 0.561679 0.302600 0.163015
H2    H     H_    0.819666 0.965747 0.576695 0.139387
H3    H     H_    0.907055 0.755740 0.426548 0.126240
H4    H     H_    0.847002 0.609557 0.314773 0.139698
H5    H     H_    0.620931 0.530529 0.341790 0.174792
H6    H     H_    0.764042 0.330913 0.783842 0.215622
H7    H     H_    0.525754 0.370863 0.622129 0.161951
H8    H     H_    0.441825 0.438659 0.670672 0.188200
H9    H     H_    0.298971 0.354532 0.792018 0.193495
H10   H     H_    0.184524 0.232621 0.655295 0.170829
H11   H     H_    0.071054 0.047674 0.332689 0.187991
H12   H     H_    0.057152 0.045877 0.198877 0.196909
H13   H     H_    0.266065 0.301593 0.337028 0.178378
H14   H     H_    0.074174 0.606518 0.267429 0.143371
H15   H     H_    0.777813 0.791486 0.078737 0.224922
H16   H     H_    0.861127 0.606013 0.023272 0.187792
H17   H     H_    0.180700 0.283179 0.022262 0.172775
H18   H     H_    0.840588 0.355042 0.594491 0.244955
H19   H     H_    0.119460 0.366667 0.979021 0.146151
H20   H     H_    0.145027 0.348693 0.134788 0.214785
H21   H     H_    0.700289 0.499169 0.269206 0.154508
O1    O     O_R   0.592010 0.539900 0.448660 -0.613783
O2    O     O_R   0.054870 0.643310 0.094700 -0.539392
O3    O     O_R   0.044440 0.448270 0.096110 -0.621846
O4    O     O_R   0.147870 0.551680 0.096080 -0.556646
O5    O     O_R   0.952810 0.356650 0.912880 -0.600101
O6    O     O_R   0.056240 0.460060 0.912840 -0.608962
O7    O     O_R   0.859800 0.448280 0.911500 -0.624150
O8    O     O_R   0.963240 0.551690 0.911470 -0.568027
O9    O     O_R   0.052860 0.908430 0.461230 -0.604329
O10   O     O_R   0.948620 0.908400 0.356980 -0.578507
O11   O     O_R   0.960510 0.908410 0.552140 -0.613449
O12   O     O_R   0.591210 0.643320 0.551330 -0.601952
O13   O     O_R   0.856270 0.908390 0.447890 -0.543491
O14   O     O_R   0.051380 0.091620 0.643040 -0.633588
O15   O     O_R   0.947140 0.091600 0.538800 -0.609072
O16   O     O_R   0.143730 0.091640 0.552130 -0.578304
O17   O     O_R   0.039490 0.091610 0.447890 -0.632552
O18   O     O_R   0.408080 0.448290 0.356360 -0.627829
O19   O     O_R   0.407280 0.551710 0.459030 -0.563772
O20   O     O_R   0.408790 0.356680 0.448670 -0.596940
O21   O     O_R   0.407990 0.460100 0.551340 -0.630544
O22   O     O_R   0.592720 0.448290 0.540970 -0.565554
O23   O     O_R   0.591920 0.551710 0.643640 -0.585995
O24   O     O_R   0.951440 0.539900 0.094740 -0.641383
Zn1   Zn    Zn3+2 0.500540 0.430950 0.431450 1.081252
Zn2   Zn    Zn3+2 0.499460 0.569050 0.568550 1.116590
Zn3   Zn    Zn3+2 0.934770 0.430930 0.003810 1.063062
Zn4   Zn    Zn3+2 0.072900 0.569020 0.003770 1.186158
Zn5   Zn    Zn3+2 0.069600 0.000030 0.569620 1.076077
Zn6   Zn    Zn3+2 0.930400 0.000000 0.430410 1.155013
C91   C     C_1   0.790801 0.028725 0.706094 0.212833
N1    N     N_1   0.803838 0.098228 0.740559 -0.112888
S1    S     S_3+6 0.448303 0.209421 0.611095 0.118646
O25   O     O_2   0.399313 0.217051 0.534229 -0.314481
O26   O     O_2   0.440396 0.121995 0.578665 -0.128333
O27   O     O_3   0.404583 0.221774 0.677251 -0.507119
H22   H     H_    0.342515 0.177344 0.640438 0.405994
S2    S     S_3+6 0.752968 0.456710 0.536427 0.072973
O28   O     O_2   0.695345 0.464823 0.464526 -0.267770
O29   O     O_2   0.822961 0.446088 0.518315 -0.201605
O30   O     O_3   0.693844 0.368728 0.538291 -0.563427
H23   H     H_    0.653183 0.325201 0.476525 0.404625
S3    S     S_3+6 0.917858 0.645497 0.598346 0.071418
O31   O     O_2   0.994087 0.631458 0.603388 -0.215201
O32   O     O_2   0.846810 0.594913 0.505744 -0.233835
O33   O     O_3   0.949654 0.749889 0.631480 -0.544819
H24   H     H_    0.901130 0.757311 0.637316 0.335357
C92   C     C_1   0.028233 0.733358 0.791437 0.505590
N2    N     N_1   0.095637 0.790113 0.817424 -0.103934
S4    S     S_3+6 0.991062 0.713013 0.928587 0.069787
O34   O     O_2   0.954192 0.690999 0.983096 -0.305580
O35   O     O_2   0.079754 0.719396 0.958956 -0.290694
O36   O     O_3   0.001480 0.808839 0.941235 -0.525366
H25   H     H_    0.041932 0.849073 0.003947 0.392421
S5    S     S_3+6 0.384325 0.687705 0.390514 0.080154
O37   O     O_2   0.387460 0.699904 0.475625 -0.291102
O38   O     O_2   0.473635 0.710404 0.400132 -0.239357
O39   O     O_3   0.350126 0.751016 0.360808 -0.510258
H26   H     H_    0.387262 0.808502 0.412571 0.396766
S6    S     S_3+6 0.611799 0.189720 0.733744 0.099014
O40   O     O_2   0.594077 0.118063 0.653273 -0.239169
O41   O     O_2   0.692155 0.209823 0.809634 -0.291318
O42   O     O_3   0.527366 0.159287 0.752968 -0.458573
H27   H     H_    0.516046 0.102868 0.749374 0.394972
S7    S     S_3+6 0.146677 0.173051 0.161152 0.015326
O43   O     O_2   0.076754 0.196467 0.130611 -0.270748
O44   O     O_2   0.229503 0.236276 0.172473 -0.336715
O45   O     O_3   0.114612 0.074420 0.085998 -0.511691
H28   H     H_    0.162993 0.062734 0.109622 0.362247
S8    S     S_3+6 0.460700 0.493680 0.839100 0.057549
O46   O     O_2   0.486890 0.571374 0.826985 -0.246126
O47   O     O_2   0.429768 0.506908 0.905139 -0.277698
O48   O     O_3   0.546266 0.476918 0.873376 -0.496654
H29   H     H_    0.581762 0.517447 0.936524 0.380261
S9    S     S_3+6 0.340810 0.595079 0.167394 0.098144
O49   O     O_2   0.298230 0.536812 0.071428 -0.292811
O50   O     O_2   0.332151 0.674326 0.182758 -0.196857
O51   O     O_3   0.446894 0.622190 0.214013 -0.512768
H30   H     H_    0.471076 0.650797 0.184736 0.413264
S10   S     S_3+6 0.749744 0.657447 0.929957 0.069902
O52   O     O_2   0.800495 0.695027 0.891217 -0.206468
O53   O     O_2   0.711865 0.562076 0.884651 -0.302093
O54   O     O_3   0.669021 0.682427 0.915838 -0.455425
H31   H     H_    0.646442 0.668018 0.953469 0.377678
C93   C     C_1   0.184044 0.666822 0.436265 0.242305
N3    N     N_1   0.207288 0.629421 0.468297 -0.123242
C94   C     C_1   0.263209 0.850193 0.532256 0.348108
N4    N     N_1   0.323693 0.888759 0.600697 -0.110764
S11   S     S_3+6 0.213458 0.952123 0.444129 0.070530
O55   O     O_2   0.166538 0.982303 0.388872 -0.350748
O56   O     O_2   0.241121 0.006264 0.537591 -0.246001
O57   O     O_3   0.302939 0.962378 0.435008 -0.449616
H32   H     H_    0.280602 0.922419 0.373355 0.362930
S12   S     S_3+6 0.781508 0.785003 0.224825 0.058098
O58   O     O_2   0.797997 0.762902 0.296608 -0.346947
O59   O     O_2   0.784358 0.870412 0.255024 -0.207950
O60   O     O_3   0.680717 0.710970 0.142101 -0.503861
H33   H     H_    0.681674 0.656002 0.125419 0.346650
C95   C     C_1   0.336756 0.420560 0.179036 0.372707
N5    N     N_1   0.371648 0.388969 0.150225 -0.153213
C96   C     C_1   0.973325 0.446241 0.751389 0.220734
N6    N     N_1   0.010009 0.520191 0.787975 -0.137200
S13   S     S_3+6 0.833586 0.244307 0.444275 0.081376
O61   O     O_2   0.890305 0.315613 0.435945 -0.245440
O62   O     O_2   0.822734 0.161072 0.384844 -0.264150
O63   O     O_3   0.735508 0.239057 0.416867 -0.512957
H34   H     H_    0.716479 0.238081 0.359985 0.400065
C97   C     C_1   0.003856 0.245715 0.547841 0.306804
N7    N     N_1   0.051572 0.253638 0.520157 -0.166731
C98   C     C_1   0.009982 0.053230 0.752473 0.190343
N8    N     N_1   0.975617 0.979465 0.714103 -0.167248
C99   C     C_1   0.144894 0.126583 0.923964 0.287132
N9    N     N_1   0.170688 0.086037 0.948264 -0.103472
C100  C     C_1   0.176595 0.410194 0.321984 0.254396
N10   N     N_1   0.145160 0.374900 0.353188 -0.156411
C101  C     C_1   0.743526 0.752730 0.696775 0.190647
N11   N     N_1   0.750505 0.715494 0.735016 -0.098245
C102  C     C_1   0.746653 0.912764 0.774338 0.238853
N12   N     N_1   0.742766 0.935229 0.837984 -0.102927

loop_
_geom_bond_atom_site_label_1
_geom_bond_atom_site_label_2
_ccdc_geom_bond_type
C8    C9    A    
O24   Zn3   S    
C66   C68   A    
O57   H32   S    
C55   O10   A    
O33   H24   S    
C47   H11   S    
C73   C74   A    
O27   H22   S    
S6    O40   D    
S4    O36   S    
O23   Zn2   S    
S10   O53   D    
S4    O34   D    
C27   C54   S    
C7    C8    A    
S12   O58   D    
O48   H29   S    
S6    O41   D    
C28   C29   A    
C16   H3    S    
C51   O2    A    
C12   O19   A    
C83   C84   A    
C21   C22   A    
C36   C37   A    
C37   C38   A    
C78   C89   S    
C35   H7    S    
C10   C15   A    
C58   C82   S    
C1    O1    A    
C5    C6    A    
S13   O62   D    
C52   O4    A    
C22   C92   S    
C34   O23   A    
C59   O16   A    
C31   H6    S    
O18   Zn1   S    
C93   N3    T    
C63   S11   S    
C18   C19   A    
O39   H26   S    
O42   H27   S    
C57   O11   A    
C68   C69   A    
C89   C95   S    
C51   O24   A    
C95   N5    T    
S7    O45   S    
C2    H20   S    
C101  N11   T    
C45   C56   S    
O60   H33   S    
S12   O60   S    
C24   S4    S    
O16   Zn5   S    
S11   O55   D    
O22   Zn1   S    
C41   C46   A    
O2    Zn4   S    
C94   N4    T    
C1    C15   S    
C51   C70   S    
C4    C12   S    
O17   Zn6   S    
C3    C100  S    
S3    O32   D    
C53   O5    A    
C8    H2    S    
C4    C45   S    
S7    O44   D    
O54   H31   S    
C37   S8    S    
C50   H13   S    
C76   H18   S    
C23   C46   S    
C13   C14   A    
C72   C73   A    
S5    O38   D    
C92   N2    T    
O36   H25   S    
C36   C41   A    
O6    Zn4   S    
C67   C78   S    
C84   C90   A    
O1    Zn1   S    
S1    O27   S    
C9    C10   A    
O14   Zn5   S    
S4    O35   D    
C102  N12   T    
C44   C46   A    
C77   S13   S    
C100  N10   T    
C58   O14   A    
O5    Zn3   S    
C55   O9    A    
C56   H1    S    
C33   S1    S    
C38   C39   A    
S6    O42   S    
C54   O8    A    
C75   C96   S    
C28   C31   A    
C12   O18   A    
C30   C34   S    
S10   O52   D    
O10   Zn6   S    
C24   C25   A    
C62   C94   S    
C99   N9    T    
S1    O26   D    
O20   Zn1   S    
S8    O47   D    
C97   N7    T    
C88   H17   S    
S13   O61   D    
C80   C81   A    
C34   O22   A    
O21   Zn2   S    
S8    O46   D    
C82   C83   A    
C79   C80   A    
C60   C61   A    
C87   C99   S    
C65   C70   A    
C2    C89   S    
C75   C76   A    
C1    O12   A    
C29   C30   A    
C74   H16   S    
C98   N8    T    
C3    C56   S    
C79   C97   S    
C47   C48   A    
C14   C15   A    
C21   S3    S    
C48   H12   S    
C59   O17   A    
C62   C63   A    
C7    C91   S    
C17   C18   A    
C77   C79   A    
C23   O20   A    
C69   C74   A    
C73   S10   S    
C84   C85   A    
C9    C11   A    
C61   C93   S    
C64   C66   A    
S3    O31   D    
C45   C78   S    
C52   C67   S    
C11   C57   S    
S3    O33   S    
C78   S9    S    
C80   C82   A    
S7    O43   D    
C86   C98   S    
C32   S6    S    
O4    Zn4   S    
C60   C65   A    
C2    C67   S    
C52   O3    A    
C54   O7    A    
C43   C44   A    
S5    O37   D    
C22   C24   A    
O13   Zn6   S    
S2    O30   S    
C20   S2    S    
S9    O50   D    
C18   H21   S    
C39   C40   A    
C55   C66   S    
C19   H5    S    
C4    C89   S    
C45   S5    S    
S8    O48   S    
C44   C50   A    
O51   H30   S    
O12   Zn2   S    
C40   C41   A    
C86   C87   A    
C14   C19   A    
C31   C32   A    
C75   C81   A    
S5    O39   S    
C88   C90   A    
C38   H9    S    
S13   O63   S    
C42   C59   S    
C36   H8    S    
C13   C16   A    
C58   O15   A    
C6    C7    A    
C17   H4    S    
O9    Zn5   S    
O45   H28   S    
C25   C27   A    
C56   C67   S    
C29   C35   A    
O15   Zn6   S    
S11   O57   S    
S1    O25   D    
O8    Zn4   S    
C64   C65   A    
S9    O51   S    
S2    O29   D    
C2    C3    S    
C25   C26   A    
S10   O54   S    
O11   Zn5   S    
C5    C10   A    
C60   H14   S    
S2    O28   D    
C32   C33   A    
C57   O13   A    
C76   C77   A    
C11   C13   A    
C39   H10   S    
C16   C17   A    
C20   C26   A    
C68   C71   A    
C48   C49   A    
O63   H34   S    
C40   C42   A    
C33   C35   A    
C23   O21   A    
C53   O6    A    
O3    Zn3   S    
C61   C62   A    
C69   C70   A    
O19   Zn2   S    
C63   C64   A    
C5    C101  S    
C72   H15   S    
C71   S12   S    
C83   C86   A    
C71   C72   A    
C20   C21   A    
C87   C88   A    
S11   O56   D    
C49   C50   A    
C42   C43   A    
C6    C102  S    
C27   C28   A    
C91   N1    T    
C53   C85   S    
O30   H23   S    
C90   H19   S    
S9    O49   D    
O7    Zn3   S    
S12   O59   D    
C43   C47   A    
C49   S7    S    
C81   C85   A    
C3    C4    S    
C96   N6    T    
C26   C30   A    
