data_mof_unit_5429.cif
_audit_creation_date              2012-12-10T20:37:34-0500
_audit_creation_method            fapswitch 2.2
_symmetry_space_group_name_H-M    P1
_symmetry_Int_Tables_number       1
_space_group_crystal_system       triclinic
_cell_length_a                    15.699322
_cell_length_b                    10.692724
_cell_length_c                    9.863854
_cell_angle_alpha                 89.822566
_cell_angle_beta                  89.538811
_cell_angle_gamma                 90.210645
_cell_volume                      1655.75762066

loop_
_atom_site_label
_atom_site_type_symbol
_atom_type_description
_atom_site_fract_x
_atom_site_fract_y
_atom_site_fract_z
_atom_type_partial_charge
Br1   Br    Br    0.349364 0.125905 0.724194 -0.538868
Br2   Br    Br    0.073722 0.782828 0.419211 -0.521462
C1    C     C_R   0.501179 0.260035 0.500131 0.893541
C2    C     C_R   0.510947 0.128466 0.499671 -0.075294
C3    C     C_R   0.518411 0.065017 0.375999 -0.185468
C4    C     C_R   0.337952 0.499816 0.500427 0.926112
C5    C     C_R   0.518996 0.936130 0.375682 -0.212977
C6    C     C_R   0.512841 0.871444 0.499173 -0.035344
C7    C     C_R   0.519521 0.935660 0.621243 -0.024112
C8    C     C_3   0.468963 0.923369 0.750014 -0.475824
C9    C     C_3   0.465033 0.065711 0.750688 0.698552
C10   C     C_R   0.439920 0.433678 0.072348 0.068074
C11   C     C_R   0.563326 0.558712 0.071499 0.523974
C12   C     C_3   0.083085 0.503874 0.500982 0.077989
C13   C     C_R   0.563900 0.555410 0.926398 -0.254079
C14   C     C_R   0.439292 0.435031 0.930020 0.228947
C15   C     C_3   0.345038 0.454762 0.926974 0.279247
C16   C     C_R   0.501794 0.739947 0.499777 0.876038
C17   C     C_3   0.346025 0.452020 0.081213 -0.557749
C18   C     C_R   0.662110 0.500651 0.499512 0.886432
C19   C     C_3   0.971750 0.590387 0.590339 -0.260559
C20   C     C_3   0.027104 0.475024 0.625532 -0.174033
C21   C     C_1   0.249123 0.500676 0.501203 -0.164159
C22   C     C_1   0.751063 0.503159 0.498422 -0.159606
C23   C     C_3   0.974245 0.534324 0.377159 0.494935
C24   C     C_3   0.029317 0.618851 0.466181 0.228110
C25   C     C_3   0.591314 0.130296 0.864906 0.082877
C26   C     C_3   0.623209 0.168510 0.003921 -0.812359
C27   C     C_3   0.648151 0.736261 0.098592 0.089233
C28   C     C_3   0.738176 0.741724 0.039952 -0.833380
C29   C     C_3   0.235391 0.584619 0.863298 0.076612
C30   C     C_3   0.213960 0.710854 0.801080 -0.720935
C31   C     C_3   0.002984 0.557919 0.148637 0.114723
C32   C     C_3   0.969981 0.614197 0.017396 -0.812590
C33   C     C_3   0.917307 0.506058 0.499476 0.089106
C34   C     C_3   0.028652 0.418714 0.410259 -0.315682
C35   C     C_3   0.970825 0.390694 0.534971 -0.168977
C36   C     C_1   0.173846 0.502005 0.501425 -0.007108
C37   C     C_1   0.826411 0.505143 0.498334 0.005122
C38   C     C_R   0.517841 0.063334 0.621515 -0.073628
H1    H     H_    0.051214 0.450339 0.727632 0.143916
H2    H     H_    0.517920 0.113867 0.279717 0.179939
H3    H     H_    0.518109 0.888277 0.279144 0.160921
H4    H     H_    0.406472 0.876393 0.734586 0.220822
H5    H     H_    0.610777 0.203778 0.790739 0.168294
H6    H     H_    0.621941 0.039905 0.838019 0.132116
H7    H     H_    0.608442 0.093705 0.078870 0.240236
H8    H     H_    0.693268 0.182909 0.999977 0.213869
H9    H     H_    0.592384 0.256909 0.036441 0.258130
H10   H     H_    0.646358 0.798446 0.188392 0.169806
H11   H     H_    0.601948 0.775993 0.024833 0.103343
H12   H     H_    0.507383 0.882825 0.833381 0.188482
H13   H     H_    0.744171 0.679268 0.950827 0.240062
H14   H     H_    0.753444 0.838966 0.007932 0.212204
H15   H     H_    0.784676 0.711998 0.117916 0.298178
H16   H     H_    0.203989 0.578054 0.964718 0.135269
H17   H     H_    0.209346 0.510383 0.796303 0.141724
H18   H     H_    0.245066 0.720432 0.700029 0.263915
H19   H     H_    0.143929 0.718921 0.788746 0.211932
H20   H     H_    0.236589 0.787361 0.867799 0.261965
H21   H     H_    0.017793 0.457792 0.129802 0.131707
H22   H     H_    0.062489 0.608442 0.176397 0.164672
H23   H     H_    0.614734 0.599622 0.869295 0.167672
H24   H     H_    0.955123 0.714700 0.032219 0.270585
H25   H     H_    0.019118 0.605566 0.936414 0.192782
H26   H     H_    0.911433 0.564259 0.985130 0.258069
H27   H     H_    0.311501 0.374441 0.878970 0.121648
H28   H     H_    0.328572 0.542537 0.129075 0.236215
H29   H     H_    0.312944 0.368867 0.124712 0.188974
H30   H     H_    0.946597 0.659890 0.663723 0.172233
H31   H     H_    0.944495 0.297790 0.563922 0.164301
H32   H     H_    0.054266 0.348541 0.338086 0.159774
N1    N     N_R   0.499430 0.499140 0.142800 -0.143323
N2    N     N_R   0.499430 0.499180 0.857150 -0.111968
O1    O     O_R   0.500010 0.316790 0.614690 -0.607855
O2    O     O_3   0.629325 0.613140 0.143338 -0.573154
O3    O     O_3   0.324668 0.574228 0.874959 -0.564546
O4    O     O_3   0.939846 0.568618 0.250555 -0.594093
O5    O     O_R   0.500000 0.316760 0.385350 -0.625226
O6    O     O_R   0.376780 0.500010 0.614650 -0.568676
O7    O     O_R   0.376770 0.499970 0.385310 -0.621048
O8    O     O_R   0.500000 0.683240 0.614650 -0.606234
O9    O     O_R   0.499990 0.683210 0.385310 -0.616420
O10   O     O_R   0.623230 0.500030 0.614690 -0.641189
O11   O     O_R   0.623220 0.499990 0.385350 -0.550829
O12   O     O_3   0.501443 0.119385 0.869414 -0.595172
Zn1   Zn    Zn3+2 0.500010 0.500020 0.653130 0.993972
Zn2   Zn    Zn3+2 0.499990 0.499980 0.346870 0.996574

loop_
_geom_bond_atom_site_label_1
_geom_bond_atom_site_label_2
_ccdc_geom_bond_type
C19   C24   S    
C26   H7    S    
Br1   C9    S    
O10   Zn1   S    
C30   H18   S    
C3    H2    S    
C1    O5    A    
C32   H26   S    
C5    C6    A    
C27   O2    S    
C28   H14   S    
C14   N2    A    
C34   C35   S    
C33   C35   S    
C31   H22   S    
O6    Zn1   S    
C12   C34   S    
C31   O4    S    
C20   H1    S    
C9    O12   S    
O8    Zn1   S    
C22   C37   T    
C18   C22   S    
C15   C17   S    
C2    C38   A    
C14   C15   S    
C29   O3    S    
C5    H3    S    
N2    Zn1   S    
C1    O1    A    
C7    C8    S    
C25   H5    S    
O9    Zn2   S    
C8    H12   S    
C4    O7    A    
C10   N1    A    
C32   H25   S    
C15   O3    S    
O5    Zn2   S    
C31   C32   S    
C27   H10   S    
C28   H13   S    
C15   H27   S    
C8    H4    S    
C23   O4    S    
C10   C14   A    
C3    C5    A    
C6    C7    A    
C23   C24   S    
C20   C35   S    
C7    C38   A    
C6    C16   S    
C25   O12   S    
C33   C37   S    
N1    Zn2   S    
C27   C28   S    
C12   C36   S    
C26   H9    S    
C4    O6    A    
C29   C30   S    
C11   O2    S    
C18   O11   A    
C32   H24   S    
C16   O9    A    
C17   H28   S    
Br2   C24   S    
C12   C24   S    
C23   C33   S    
C25   H6    S    
O1    Zn1   S    
C11   N1    A    
C18   O10   A    
C11   C13   A    
C29   H16   S    
C17   H29   S    
C30   H20   S    
C1    C2    S    
C27   H11   S    
O11   Zn2   S    
C26   H8    S    
C2    C3    A    
C19   C33   S    
C21   C36   T    
C28   H15   S    
C19   H30   S    
C29   H17   S    
C35   H31   S    
C12   C20   S    
C4    C21   S    
C10   C17   S    
C16   O8    A    
C9    C38   S    
O7    Zn2   S    
C8    C9    S    
C23   C34   S    
C13   N2    A    
C31   H21   S    
C25   C26   S    
C13   H23   S    
C30   H19   S    
C19   C20   S    
C34   H32   S    
