data_mof_unit_39600.cif
_audit_creation_date              2012-12-10T17:33:45-0500
_audit_creation_method            fapswitch 2.2
_symmetry_space_group_name_H-M    P1
_symmetry_Int_Tables_number       1
_space_group_crystal_system       triclinic
_cell_length_a                    11.710409
_cell_length_b                    12.332478
_cell_length_c                    13.337602
_cell_angle_alpha                 116.798625
_cell_angle_beta                  77.432648
_cell_angle_gamma                 101.417676
_cell_volume                      1667.06156738

loop_
_atom_site_label
_atom_site_type_symbol
_atom_type_description
_atom_site_fract_x
_atom_site_fract_y
_atom_site_fract_z
_atom_type_partial_charge
C1    C     C_R   0.506253 0.854211 0.287465 0.774623
C2    C     C_R   0.456024 0.230221 0.834114 -0.050128
C3    C     C_R   0.555863 0.812470 0.084434 -0.188649
C4    C     C_R   0.571866 0.732463 0.970098 -0.145296
C5    C     C_R   0.534516 0.608477 0.935691 -0.185869
C6    C     C_R   0.472281 0.562700 0.014607 0.064726
C7    C     C_R   0.453109 0.644043 0.130967 0.038468
C8    C     C_R   0.438389 0.435733 0.981733 0.007942
C9    C     C_R   0.411657 0.390380 0.065304 0.081223
C10   C     C_R   0.372254 0.469880 0.178231 0.123513
C11   C     C_R   0.387216 0.595979 0.207358 -0.203298
C12   C     C_R   0.715789 0.999888 0.499807 0.823694
C13   C     C_R   0.431865 0.351250 0.868274 0.109351
C14   C     C_R   0.455513 0.190789 0.917704 -0.235449
C15   C     C_R   0.501151 0.769670 0.166585 -0.089133
C16   C     C_R   0.695971 0.350642 0.336789 -0.304801
C17   C     C_R   0.337529 0.752072 0.642740 0.354011
C18   C     C_R   0.299176 0.646956 0.660807 -0.247653
C19   C     C_R   0.359150 0.546408 0.603992 -0.253511
C20   C     C_R   0.459689 0.546231 0.525159 0.004169
C21   C     C_R   0.495299 0.652201 0.502567 0.247468
C22   C     C_R   0.525584 0.443696 0.468322 -0.032553
C23   C     C_R   0.479876 0.145857 0.713068 0.792507
C24   C     C_R   0.627027 0.447919 0.389768 0.164282
C25   C     C_R   0.658449 0.548782 0.364523 -0.282719
C26   C     C_R   0.593543 0.648181 0.418962 -0.164475
C27   C     C_R   0.495465 0.336552 0.487093 -0.001906
C28   C     C_R   0.664849 0.250848 0.363525 0.075918
C29   C     C_R   0.284266 0.999722 0.499649 0.793945
C30   C     C_1   0.837582 0.999890 0.499829 -0.188305
C31   C     C_1   0.940085 0.999864 0.499886 -0.004218
C32   C     C_1   0.059950 0.999818 0.499904 -0.003417
C33   C     C_1   0.162468 0.999750 0.499808 -0.188316
C34   C     C_R   0.424332 0.267096 0.032017 -0.212017
Cu1   Cu    Cu3+1 0.526510 0.098270 0.475420 0.933995
Cu2   Cu    Cu3+1 0.473490 0.901730 0.524580 0.912614
H1    H     H_    0.474812 0.099660 0.894579 0.166132
H2    H     H_    0.734637 0.551336 0.302314 0.153206
H3    H     H_    0.774095 0.352471 0.276355 0.138373
H4    H     H_    0.416201 0.321426 0.539257 0.131133
H5    H     H_    0.323848 0.470524 0.624736 0.147205
H6    H     H_    0.221455 0.642817 0.720948 0.155794
H7    H     H_    0.624233 0.719937 0.392740 0.206426
H8    H     H_    0.416794 0.230792 0.093717 0.142029
H9    H     H_    0.591699 0.907383 0.108904 0.151453
H10   H     H_    0.558311 0.548558 0.847221 0.137924
H11   H     H_    0.618236 0.765951 0.908130 0.141993
H12   H     H_    0.347241 0.655678 0.289753 0.194909
H13   H     H_    0.718766 0.176297 0.324149 0.125560
N1    N     N_R   0.566700 0.246290 0.438210 -0.179534
N2    N     N_R   0.434010 0.754320 0.561170 -0.226849
O1    O     O_R   0.533340 0.972510 0.318140 -0.579459
O2    O     O_R   0.488570 0.806530 0.359650 -0.610170
O3    O     O_R   0.685190 0.083000 0.479260 -0.573627
O4    O     O_R   0.640410 0.917020 0.520770 -0.587395
O5    O     O_R   0.511430 0.193470 0.640350 -0.575394
O6    O     O_R   0.466660 0.027490 0.681860 -0.590195
O7    O     O_R   0.359590 0.082980 0.479230 -0.572469
O8    O     O_R   0.314810 0.917000 0.520740 -0.606970
C35   C     C_3   0.263776 0.856755 0.717620 -0.357982
C36   C     C_3   0.272697 0.901833 0.843385 -0.877451
H14   H     H_    0.220762 0.836275 0.876662 0.244791
H15   H     H_    0.365752 0.912476 0.855389 0.258061
H16   H     H_    0.237203 0.991353 0.893706 0.249123
H17   H     H_    0.283767 0.936210 0.699263 0.255020
H18   H     H_    0.170079 0.824101 0.705278 0.170188
C37   C     C_3   0.313996 0.420244 0.265498 -0.398051
C38   C     C_3   0.220212 0.494904 0.356745 -0.833006
H19   H     H_    0.261025 0.582721 0.417337 0.254687
H20   H     H_    0.155999 0.512563 0.317115 0.250385
H21   H     H_    0.172071 0.443024 0.405988 0.245841
H22   H     H_    0.268234 0.327106 0.222138 0.201946
H23   H     H_    0.383058 0.412699 0.306412 0.214310
C39   C     C_3   0.373950 0.384756 0.795567 -0.415007
C40   C     C_3   0.258633 0.303289 0.763762 -0.814236
H24   H     H_    0.217660 0.332874 0.713938 0.229185
H25   H     H_    0.273257 0.206268 0.711896 0.240536
H26   H     H_    0.196300 0.310936 0.841835 0.249848
H27   H     H_    0.349270 0.479356 0.842510 0.208201
H28   H     H_    0.435787 0.383443 0.719938 0.212802

loop_
_geom_bond_atom_site_label_1
_geom_bond_atom_site_label_2
_ccdc_geom_bond_type
C16   C28   A    
C21   C26   A    
C8    C13   A    
C19   C20   A    
Cu2   O8    S    
C17   N2    A    
C23   O5    A    
C10   C37   S    
C7    C11   A    
Cu1   O7    S    
C37   H22   S    
C18   H6    S    
C5    C6    A    
C29   C33   S    
C18   C19   A    
C36   H15   S    
C2    C13   A    
C1    O2    A    
Cu2   O2    S    
C28   N1    A    
Cu1   Cu2   S    
C38   H19   S    
C37   H23   S    
C9    C10   A    
C27   N1    A    
C7    C15   A    
C35   H18   S    
C16   C24   A    
C39   H28   S    
Cu1   O3    S    
C11   H12   S    
C1    O1    A    
C26   H7    S    
C2    C23   S    
C39   C40   S    
C37   C38   S    
C29   O8    A    
C34   H8    S    
C24   C25   A    
Cu2   O6    S    
C8    C9    A    
C6    C8    A    
C16   H3    S    
C25   C26   A    
C3    H9    S    
C35   C36   S    
C36   H16   S    
C40   H24   S    
C25   H2    S    
C28   H13   S    
C31   C32   S    
C27   H4    S    
C20   C21   A    
Cu1   N1    S    
C17   C18   A    
C29   O7    A    
C40   H25   S    
Cu2   N2    S    
C1    C15   S    
C20   C22   A    
C35   H17   S    
C22   C27   A    
C9    C34   A    
C22   C24   A    
C3    C4    A    
C21   N2    A    
C3    C15   A    
C23   O6    A    
C12   C30   S    
Cu1   O5    S    
C4    C5    A    
C14   C34   A    
C6    C7    A    
C5    H10   S    
C39   H27   S    
C32   C33   T    
Cu2   O4    S    
C14   H1    S    
C30   C31   T    
C38   H21   S    
C36   H14   S    
C2    C14   A    
C40   H26   S    
C12   O4    A    
C10   C11   A    
C17   C35   S    
C13   C39   S    
C38   H20   S    
Cu1   O1    S    
C12   O3    A    
C19   H5    S    
C4    H11   S    
