data_mof_unit_66654.cif
_audit_creation_date              2013-03-05T16:05:13-0500
_audit_creation_method            fapswitch 2.2
_symmetry_space_group_name_H-M    P1
_symmetry_Int_Tables_number       1
_space_group_crystal_system       triclinic
_cell_length_a                    8.501845
_cell_length_b                    15.263259
_cell_length_c                    15.125959
_cell_angle_alpha                 99.238972
_cell_angle_beta                  98.200084
_cell_angle_gamma                 98.255476
_cell_volume                      1889.51204696

loop_
_atom_site_label
_atom_site_type_symbol
_atom_site_description
_atom_site_fract_x
_atom_site_fract_y
_atom_site_fract_z
_atom_type_partial_charge
P1    P     P_3+3 0.996570 0.418570 0.288410 0.501365
O1    O     O_2   0.826460 0.445380 0.275370 -0.328560
O2    O     O_3   0.098920 0.448470 0.388920 -0.401162
O3    O     O_3   0.628660 0.613390 0.338240 -0.391025
O4    O     O_2   0.681878 0.536435 0.177870 -0.386090
O5    O     O_3   0.973248 0.302876 0.250242 -0.587556
O6    O     O_3   0.641383 0.701838 0.184538 -0.549331
C1    C     C_3   0.534905 0.842292 0.170286 0.123652
P2    P     P_3+3 0.693070 0.712070 0.580610 0.541309
P3    P     P_3+3 0.121334 0.776622 0.398848 0.456656
O7    O     O_2   0.863170 0.725020 0.553760 -0.356248
O8    O     O_3   0.060910 0.661460 0.386100 -0.397750
O9    O     O_2   0.020039 0.816888 0.466533 -0.324099
O10   O     O_3   0.716349 0.757695 0.697804 -0.616794
O11   O     O_3   0.045342 0.810422 0.297437 -0.510363
C2    C     C_3   0.045462 0.745098 0.219988 0.320001
H1    H     H_    0.964346 0.681524 0.221997 0.118098
C3    C     C_3   0.981140 0.778784 0.132923 -0.025561
H2    H     H_    0.003458 0.734285 0.071991 0.098574
H3    H     H_    0.850136 0.771834 0.124498 0.152555
C4    C     C_3   0.235394 0.748117 0.684457 0.205030
H4    H     H_    0.118848 0.733988 0.638031 0.143692
C5    C     C_3   0.267399 0.848163 0.730025 0.052327
H5    H     H_    0.152525 0.865454 0.746315 0.100968
Ba1   Ba    Ba6+2 0.844900 0.542440 0.457470 1.604351
C6    C     C_3   0.891613 0.252785 0.303764 0.224411
H6    H     H_    0.773695 0.273860 0.310326 0.145034
H7    H     H_    0.966599 0.259474 0.371762 0.058742
C7    C     C_3   0.866382 0.155606 0.253256 -0.061294
H8    H     H_    0.814468 0.151478 0.180591 0.194208
H9    H     H_    0.984841 0.132760 0.254612 0.114103
C8    C     C_3   0.818866 0.719774 0.755651 0.648456
H10   H     H_    0.929112 0.710181 0.727300 -0.008069
C9    C     C_3   0.866298 0.785320 0.849943 -0.396719
H11   H     H_    0.768254 0.775771 0.890692 0.248357
P4    P     P_3+3 0.193140 0.581510 0.711600 0.472794
O12   O     O_2   0.363260 0.554650 0.724690 -0.305488
O13   O     O_3   0.090800 0.551610 0.611090 -0.401815
O14   O     O_3   0.561050 0.386690 0.661770 -0.281786
O15   O     O_3   0.231095 0.697286 0.753269 -0.613631
P5    P     P_3+3 0.072414 0.220188 0.591102 0.486198
O16   O     O_3   0.598950 0.388690 0.448890 -0.397349
O17   O     O_3   0.128800 0.338610 0.613910 -0.407052
O18   O     O_2   0.199843 0.178315 0.543512 -0.328670
O19   O     O_3   0.092708 0.181143 0.693675 -0.533328
Ba2   Ba    Ba6+2 0.344940 0.457640 0.542540 1.619284
P6    P     P_3+3 0.575278 0.600196 0.219744 0.422431
C10   C     C_3   0.592027 0.776631 0.234469 0.321536
H12   H     H_    0.491812 0.754608 0.269315 0.014980
O20   O     O_3   0.590770 0.611390 0.551120 -0.352737
C11   C     C_3   0.406406 0.316702 0.261905 0.300920
H13   H     H_    0.297205 0.334695 0.287823 0.060218
H14   H     H_    0.503644 0.376830 0.276577 0.114105
C12   C     C_3   0.364929 0.282741 0.160213 -0.028270
H15   H     H_    0.253810 0.230538 0.146351 0.128342
P7    P     P_3+3 0.498213 0.276186 0.416603 0.484955
O21   O     O_2   0.326540 0.275010 0.446300 -0.356347
O22   O     O_3   0.459359 0.246484 0.299403 -0.545658
C13   C     C_3   0.170327 0.251797 0.764031 0.502603
H16   H     H_    0.289484 0.277779 0.748611 0.162569
H17   H     H_    0.101472 0.308607 0.769119 -0.020339
C14   C     C_3   0.189937 0.218517 0.855670 -0.165875
P8    P     P_3+3 0.619995 0.400629 0.779466 0.505063
C15   C     C_3   0.628265 0.223594 0.786731 0.630879
O23   O     O_2   0.506106 0.459685 0.820554 -0.363245
O24   O     O_3   0.563493 0.300909 0.818789 -0.618231
C16   C     C_3   0.636302 0.169747 0.867614 -0.328819
H18   H     H_    0.511116 0.146351 0.876727 0.215058
C17   C     C_R   0.359922 0.550950 0.174140 0.191283
H19   H     H_    0.321781 0.524558 0.305912 0.167583
H20   H     H_    0.507291 0.601619 0.038358 0.205196
C18   C     C_R   0.106358 0.476795 0.207592 0.327168
C19   C     C_R   0.937037 0.472984 0.765888 -0.419675
C20   C     C_R   0.832480 0.452632 0.826231 0.283593
C21   C     C_R   0.887114 0.473488 0.921000 -0.147494
C22   C     C_R   0.054082 0.501965 0.955529 0.042017
C23   C     C_R   0.154004 0.533118 0.893175 -0.108138
C24   C     C_R   0.123445 0.505463 0.050375 0.041083
C25   C     C_R   0.289247 0.543673 0.080988 -0.044031
C26   C     C_R   0.380686 0.574905 0.018514 -0.122849
C27   C     C_R   0.313705 0.573005 0.928526 -0.010008
C28   C     C_R   0.038152 0.467455 0.114821 -0.298333
C29   C     C_R   0.266505 0.519394 0.235833 -0.511348
C30   C     C_R   0.091251 0.522980 0.797235 0.217627
H21   H     H_    0.922328 0.424731 0.094262 0.183772
H22   H     H_    0.892002 0.457133 0.693571 0.185049
H23   H     H_    0.391123 0.602206 0.886664 0.225704
C31   C     C_R   0.340385 0.823891 0.442417 0.227705
H24   H     H_    0.395401 0.691813 0.447730 0.179867
C32   C     C_R   0.595486 0.793348 0.517141 0.202882
C33   C     C_R   0.766137 0.227253 0.503269 -0.518127
C34   C     C_R   0.867120 0.170800 0.531748 0.201175
C35   C     C_R   0.807627 0.078882 0.524294 -0.114340
C36   C     C_R   0.641376 0.042184 0.493516 0.098139
C37   C     C_R   0.542856 0.100067 0.455445 0.109684
C38   C     C_R   0.572697 0.949074 0.493144 -0.099187
C39   C     C_R   0.405926 0.917568 0.454925 0.021661
C40   C     C_R   0.310962 0.980767 0.428577 0.025693
C41   C     C_R   0.382833 0.063538 0.414077 -0.006353
C42   C     C_R   0.658690 0.887793 0.535654 0.272213
C43   C     C_R   0.442994 0.763199 0.463297 -0.577781
C44   C     C_R   0.607762 0.193304 0.462095 0.341215
H25   H     H_    0.813478 0.298320 0.510902 0.162624
H26   H     H_    0.895104 0.037751 0.541762 0.185172
N1    N     N_3   0.725715 0.823897 0.305354 -0.142110
H27   H     H_    0.752883 0.779673 0.349008 0.186304
H28   H     H_    0.686098 0.876205 0.344630 0.094573
N2    N     N_3   0.381583 0.864619 0.815887 -0.166447
H29   H     H_    0.491498 0.846475 0.803449 0.169121
H30   H     H_    0.402643 0.933556 0.843169 0.141755
N3    N     N_R   0.324121 0.905655 0.669004 0.248226
O25   O     O_R   0.477313 0.927702 0.671040 -0.411863
O26   O     O_R   0.225808 0.947024 0.624211 -0.295731
N4    N     N_R   0.758959 0.096450 0.292573 0.213060
O27   O     O_R   0.815021 0.034833 0.331527 -0.477216
O28   O     O_R   0.604212 0.089752 0.268220 -0.415565
N5    N     N_R   0.734788 0.632893 0.766575 0.193324
O29   O     O_R   0.698882 0.566931 0.697706 -0.367303
O30   O     O_R   0.683426 0.622178 0.841736 -0.464582
N6    N     N_3   0.667972 0.913791 0.165748 -0.143184
H31   H     H_    0.743046 0.889085 0.123106 0.187413
H32   H     H_    0.621012 0.962190 0.133149 0.171491
N7    N     N_3   0.889332 0.880893 0.842676 -0.164589
H33   H     H_    0.930820 0.889985 0.782922 0.192746
H34   H     H_    0.777386 0.902210 0.838125 0.165338
N8    N     N_3   0.011577 0.766126 0.902052 -0.130606
H35   H     H_    0.000197 0.696959 0.901777 0.140355
H36   H     H_    0.110569 0.785065 0.871723 0.200698
N9    N     N_3   0.409140 0.885352 0.208259 -0.191001
H37   H     H_    0.374052 0.931897 0.168994 0.218602
H38   H     H_    0.457645 0.922424 0.273030 0.113207
N10   N     N_3   0.334458 0.357595 0.115328 -0.251769
H39   H     H_    0.231868 0.337121 0.065434 0.077016
H40   H     H_    0.432424 0.380804 0.085654 0.147739
N11   N     N_R   0.497744 0.242362 0.128343 0.254764
O31   O     O_R   0.642479 0.289230 0.143786 -0.428805
O32   O     O_R   0.475226 0.156994 0.093244 -0.391249
N12   N     N_R   0.469309 0.791863 0.077408 0.256774
O33   O     O_R   0.566068 0.765399 0.023150 -0.437221
O34   O     O_R   0.316762 0.781679 0.044467 -0.400725
N13   N     N_R   0.049820 0.872584 0.133119 0.267298
O35   O     O_R   0.030918 0.936683 0.196365 -0.417733
O36   O     O_R   0.097742 0.894544 0.060588 -0.359416
N14   N     N_3   0.338417 0.268996 0.912226 -0.194225
H41   H     H_    0.354538 0.244737 0.972560 0.142535
H42   H     H_    0.331013 0.337543 0.926389 0.118738
N15   N     N_3   0.053908 0.234357 0.901581 -0.232690
H43   H     H_    0.065982 0.209432 0.962281 0.129257
H44   H     H_    0.057399 0.303857 0.919019 0.089482
N16   N     N_3   0.199239 0.121797 0.841229 -0.131078
H45   H     H_    0.223011 0.101772 0.904094 0.133671
H46   H     H_    0.087031 0.084403 0.809199 0.196236
N17   N     N_3   0.789641 0.245308 0.763564 -0.245068
H47   H     H_    0.784551 0.278970 0.708630 0.088281
H48   H     H_    0.823215 0.184771 0.736914 0.128272
N18   N     N_R   0.517346 0.171687 0.706210 0.228295
O37   O     O_R   0.502930 0.204459 0.632170 -0.391045
O38   O     O_R   0.410621 0.103955 0.712131 -0.340197
N19   N     N_3   0.708454 0.088477 0.852558 -0.195301
H49   H     H_    0.827322 0.103262 0.842898 0.150140
H50   H     H_    0.641600 0.044575 0.795612 0.229616
N20   N     N_3   0.718507 0.226830 0.953747 -0.150410
H51   H     H_    0.634707 0.261197 0.981487 0.195750
H52   H     H_    0.803859 0.277710 0.942058 0.116825
N21   N     N_3   0.771780 0.477536 0.981476 -0.190373
H53   H     H_    0.694525 0.415859 0.970746 0.133717
H54   H     H_    0.704158 0.527377 0.968713 0.189957
N22   N     N_3   0.140187 0.966586 0.425026 -0.125010
H55   H     H_    0.081956 0.972923 0.361671 0.209019
H56   H     H_    0.112334 0.015367 0.474084 0.182307
N23   N     N_R   0.788125 0.922514 0.611044 0.238899
O39   O     O_R   0.778508 0.990877 0.672233 -0.437656
O40   O     O_R   0.923258 0.892704 0.614542 -0.370339
N24   N     N_3   0.207350 0.727151 0.215264 -0.207442
H57   H     H_    0.206679 0.688518 0.152059 0.112223
H58   H     H_    0.236359 0.686729 0.262275 0.078274
N25   N     N_3   0.292992 0.106153 0.350979 -0.148165
H59   H     H_    0.186057 0.118808 0.372864 0.133065
H60   H     H_    0.265122 0.063271 0.287644 0.180562
N26   N     N_3   0.361085 0.728038 0.633239 -0.188068
H61   H     H_    0.445855 0.705062 0.676246 0.210297
H62   H     H_    0.311883 0.673412 0.580843 0.123958

loop_
_geom_bond_atom_site_label_1
_geom_bond_atom_site_label_2
_geom_bond_distance
_ccdc_geom_bond_type
C7    N4    1.446920 S    
P8    O23   1.542313 D    
C9    N7    1.467639 S    
C19   C20   1.401070 A    
N3    O25   1.292224 A    
C8    N5    1.458974 S    
C21   C22   1.419576 A    
O3    Ba1   2.838689 S    
P2    Ba1   3.454873 S    
N7    H33   1.038154 S    
N3    O26   1.297590 A    
O5    C6    1.388634 S    
N2    H29   1.045517 S    
N1    H28   1.042023 S    
P3    C31   1.880026 S    
C6    H6    1.108652 S    
N21   H53   1.042565 S    
P4    O12   1.553647 D    
N15   H44   1.046231 S    
C22   C24   1.460769 A    
C41   N25   1.432283 S    
P3    O11   1.761723 S    
N5    O30   1.300292 A    
N19   H49   1.039613 S    
C9    H11   1.111973 S    
C37   C41   1.407346 A    
N7    H34   1.045882 S    
O7    Ba1   2.901612 S    
O11   C2    1.411404 S    
C39   C40   1.412967 A    
P7    O21   1.585695 D    
C1    N12   1.477542 S    
P1    O1    1.553219 D    
O16   Ba2   2.970594 S    
N24   H57   1.038362 S    
P6    C17   1.863093 S    
P4    O15   1.744899 S    
O16   P7    1.763457 S    
Ba1   O20   2.971459 S    
N18   O38   1.297541 A    
C4    N26   1.445675 S    
O19   C13   1.399202 S    
N15   H43   1.046308 S    
N6    H32   1.045827 S    
N10   H39   1.042203 S    
N25   H60   1.044840 S    
C5    H5    1.098171 S    
N19   H50   1.039054 S    
P4    Ba2   3.445159 S    
N17   H48   1.042448 S    
C19   C30   1.394741 A    
C31   C39   1.430014 A    
O12   Ba2   2.882564 S    
C37   C44   1.432661 A    
N22   H56   1.041360 S    
P8    O24   1.750271 S    
C13   H16   1.104395 S    
N21   H54   1.042888 S    
C4    H4    1.101343 S    
C42   N23   1.439687 S    
P1    Ba1   3.444540 S    
P5    O17   1.766260 S    
C35   H26   1.071602 S    
C32   C42   1.431854 A    
H20   C26   1.075841 S    
N26   H62   1.044679 S    
C31   C43   1.402259 A    
N20   H52   1.039131 S    
P7    O22   1.728935 S    
C13   H17   1.112503 S    
P1    C18   1.895136 S    
C20   C21   1.411741 A    
C16   H18   1.108054 S    
C15   C16   1.578649 S    
N11   O31   1.300781 A    
C22   C23   1.447033 A    
N14   H42   1.046563 S    
C33   H25   1.083083 S    
C33   C34   1.375224 A    
C24   C25   1.425687 A    
C3    H2    1.110262 S    
C23   C30   1.448400 A    
C8    C9    1.568325 S    
C15   N17   1.469310 S    
C11   H13   1.110646 S    
C11   H14   1.113254 S    
O6    P6    1.762524 S    
Ba1   O16   2.883049 S    
P2    O10   1.769305 S    
C1    C10   1.581294 S    
C32   C43   1.401070 A    
C7    H8    1.112778 S    
C17   C29   1.406928 A    
Ba1   O13   2.866243 S    
N23   O40   1.292382 A    
C24   C28   1.440503 A    
C10   N1    1.459605 S    
C23   C27   1.396790 A    
C9    N8    1.460473 S    
C38   C39   1.434191 A    
P5    C34   1.838053 S    
C21   N21   1.434288 S    
C11   O22   1.390667 S    
C12   N10   1.455099 S    
C36   C38   1.455635 A    
H19   C29   1.082181 S    
P2    O7    1.551333 D    
N23   O39   1.299263 A    
C27   H23   1.076141 S    
P3    O8    1.730424 S    
O14   Ba2   2.838011 S    
N10   H40   1.045754 S    
N22   H55   1.039701 S    
C40   C41   1.386751 A    
C5    N2    1.468945 S    
C14   N15   1.460716 S    
C4    C5    1.539529 S    
Ba2   O21   2.901847 S    
C18   C28   1.416192 A    
P5    O18   1.540750 D    
N16   H46   1.045731 S    
C17   C25   1.431015 A    
C33   C44   1.387876 A    
C5    N3    1.456045 S    
N6    H31   1.036371 S    
C1    N6    1.472129 S    
N20   H51   1.039586 S    
N1    H27   1.043737 S    
C2    N24   1.450698 S    
N11   O32   1.301355 A    
Ba2   O20   2.882436 S    
C12   H15   1.115799 S    
N18   O37   1.295295 A    
C13   C14   1.546492 S    
N8    H36   1.041728 S    
C14   N16   1.472498 S    
H24   C43   1.081763 S    
C3    N13   1.465868 S    
P2    O20   1.613159 S    
C14   N14   1.456020 S    
C26   C27   1.392604 A    
P3    O9    1.539156 D    
P2    C32   1.897310 S    
N4    O28   1.299264 A    
N4    O27   1.298230 A    
N12   O34   1.298984 A    
P8    C20   1.853989 S    
C28   H21   1.074587 S    
O14   P8    1.748997 S    
C35   C36   1.424604 A    
C15   N18   1.465733 S    
O2    Ba2   2.866863 S    
C6    H7    1.111432 S    
O8    Ba1   2.841731 S    
N14   H41   1.037366 S    
C11   C12   1.515196 S    
C8    H10   1.103529 S    
N13   O36   1.299367 A    
N9    H37   1.045109 S    
P7    C44   1.837478 S    
C7    H9    1.110660 S    
N5    O29   1.294709 A    
O6    C10   1.414497 S    
C16   N20   1.464874 S    
C2    H1    1.114156 S    
C4    O15   1.395940 S    
P4    C30   1.922423 S    
N8    H35   1.045491 S    
C10   H12   1.104304 S    
C12   N11   1.465270 S    
C38   C42   1.441594 A    
P4    O13   1.600777 S    
C34   C35   1.402153 A    
O4    P6    1.545565 D    
N2    H30   1.046363 S    
O1    Ba1   2.882020 S    
C3    H3    1.090510 S    
C36   C37   1.432499 A    
O17   Ba2   2.842495 S    
N24   H58   1.040036 S    
C19   H22   1.081958 S    
O13   Ba2   2.975275 S    
C18   C29   1.396323 A    
N12   O33   1.301929 A    
C25   C26   1.404405 A    
O2    Ba1   2.974412 S    
O10   C8    1.396496 S    
C6    C7    1.525704 S    
C2    C3    1.546122 S    
N25   H59   1.043642 S    
C1    N9    1.470002 S    
P5    O19   1.744199 S    
N16   H45   1.046271 S    
C16   N19   1.461000 S    
P1    O2    1.600809 S    
N17   H47   1.043805 S    
N13   O35   1.298714 A    
Ba1   Ba2   4.681195 S    
C40   N22   1.428821 S    
N26   H61   1.038110 S    
P1    O5    1.740781 S    
C15   O24   1.417740 S    
N9    H38   1.043940 S    
O3    P6    1.756384 S    
