data_mof_unit_37436.cif
_audit_creation_date              2012-12-10T16:57:07-0500
_audit_creation_method            fapswitch 2.2
_symmetry_space_group_name_H-M    P1
_symmetry_Int_Tables_number       1
_space_group_crystal_system       triclinic
_cell_length_a                    7.74459
_cell_length_b                    8.637613
_cell_length_c                    16.953308
_cell_angle_alpha                 91.58023
_cell_angle_beta                  82.622814
_cell_angle_gamma                 93.322222
_cell_volume                      1122.57770634

loop_
_atom_site_label
_atom_site_type_symbol
_atom_type_description
_atom_site_fract_x
_atom_site_fract_y
_atom_site_fract_z
_atom_type_partial_charge
C1    C     C_R   0.545198 0.794162 0.497580 0.916483
C2    C     C_R   0.454801 0.205839 0.502410 0.915998
C3    C     C_2   0.564939 0.954399 0.484324 -0.246092
C4    C     C_2   0.435048 0.045602 0.515655 -0.245958
C5    C     C_R   0.481827 0.506047 0.653389 0.874920
C6    C     C_R   0.517968 0.492987 0.346632 0.874739
C7    C     C_R   0.485531 0.526213 0.738173 -0.053712
C8    C     C_R   0.512733 0.466658 0.262257 -0.054339
C9    C     C_R   0.638702 0.496410 0.769843 -0.245565
C10   C     C_R   0.358045 0.491792 0.230758 -0.245615
C11   C     C_R   0.647162 0.517032 0.850410 0.038248
C12   C     C_R   0.346938 0.463052 0.150941 0.038178
C13   C     C_R   0.499941 0.566980 0.899676 0.124012
C14   C     C_R   0.493253 0.410242 0.102055 0.123074
C15   C     C_R   0.351286 0.606189 0.867664 -0.152757
C16   C     C_R   0.643159 0.374930 0.134196 -0.152068
C17   C     C_R   0.343134 0.584464 0.786903 -0.186454
C18   C     C_R   0.653828 0.404432 0.214282 -0.185216
C19   C     C_2   0.487924 0.556465 0.984991 -0.204537
C20   C     C_2   0.504929 0.419209 0.016618 -0.204643
H1    H     H_    0.751231 0.454881 0.732170 0.168785
H2    H     H_    0.246304 0.535985 0.267935 0.168654
H3    H     H_    0.772117 0.379986 0.238352 0.168499
H4    H     H_    0.225793 0.611888 0.762858 0.168013
H5    H     H_    0.541205 0.318206 0.979831 0.162167
H6    H     H_    0.452034 0.657469 0.021870 0.162156
H7    H     H_    0.022942 0.382526 0.440216 0.199031
H8    H     H_    0.977058 0.617478 0.559782 0.199178
N1    N     N_2   0.953500 0.457650 0.478520 -0.171966
N2    N     N_2   0.046500 0.542350 0.521480 -0.171899
O1    O     O_R   0.388470 0.738640 0.505270 -0.607570
O2    O     O_R   0.611530 0.261360 0.494730 -0.607835
O3    O     O_R   0.679650 0.711510 0.491500 -0.620821
O4    O     O_R   0.320350 0.288490 0.508500 -0.621042
O5    O     O_R   0.337210 0.515200 0.623500 -0.618591
O6    O     O_R   0.662790 0.484800 0.376500 -0.618622
O7    O     O_R   0.628380 0.488060 0.609730 -0.632746
O8    O     O_R   0.371620 0.511940 0.390270 -0.632573
Zn1   Zn    Zn3+2 0.305580 0.518120 0.509190 0.964150
Zn2   Zn    Zn3+2 0.694420 0.481880 0.490810 0.963991
H9    H     H_    0.238642 0.645757 0.905838 0.164632
H10   H     H_    0.755132 0.333209 0.096365 0.165116
C21   C     C_1   0.187305 0.494033 0.119864 0.140360
N3    N     N_1   0.060039 0.519581 0.094810 -0.203979
C22   C     C_1   0.805777 0.482745 0.881480 0.140736
N4    N     N_1   0.932330 0.454695 0.906474 -0.202634
C23   C     C_1   0.710067 0.003761 0.425206 0.231030
N5    N     N_1   0.825269 0.042579 0.378240 -0.208207
C24   C     C_1   0.289886 0.996246 0.574755 0.231042
N6    N     N_1   0.174647 0.957440 0.621707 -0.207750

loop_
_geom_bond_atom_site_label_1
_geom_bond_atom_site_label_2
_ccdc_geom_bond_type
C2    C4    S    
C21   N3    T    
C6    O8    A    
C15   C17   A    
N1    N2    D    
C5    O7    A    
O7    Zn2   S    
C11   C13   A    
O5    Zn1   S    
C19   C20   D    
O6    Zn2   S    
C4    C24   S    
C2    O4    A    
H8    N2    S    
C12   C14   A    
C1    O3    A    
C22   N4    T    
C10   H2    S    
C9    C11   A    
C9    H1    S    
C10   C12   A    
C5    O5    A    
N1    Zn2   S    
C16   C18   A    
C6    O6    A    
N2    Zn1   S    
C12   C21   S    
C5    C7    S    
C13   C15   A    
O8    Zn1   S    
C14   C16   A    
C11   C22   S    
O3    Zn2   S    
H7    N1    S    
C20   H5    S    
C13   C19   S    
C18   H3    S    
C17   H4    S    
C23   N5    T    
C14   C20   S    
C1    O1    A    
O2    Zn2   S    
C15   H9    S    
C2    O2    A    
C24   N6    T    
C3    C23   S    
C7    C9    A    
C19   H6    S    
C6    C8    S    
C1    C3    S    
C16   H10   S    
C8    C10   A    
C8    C18   A    
C3    C4    D    
O4    Zn1   S    
O1    Zn1   S    
C7    C17   A    
