data_mof_unit_9822.cif
_audit_creation_date              2012-12-10T17:23:43-0500
_audit_creation_method            fapswitch 2.2
_symmetry_space_group_name_H-M    P1
_symmetry_Int_Tables_number       1
_space_group_crystal_system       triclinic
_cell_length_a                    9.652203
_cell_length_b                    10.808967
_cell_length_c                    17.269906
_cell_angle_alpha                 94.384008
_cell_angle_beta                  85.535657
_cell_angle_gamma                 89.863168
_cell_volume                      1790.98980317

loop_
_atom_site_label
_atom_site_type_symbol
_atom_type_description
_atom_site_fract_x
_atom_site_fract_y
_atom_site_fract_z
_atom_type_partial_charge
C1    C     C_R   0.499063 0.737506 0.504910 0.751266
C2    C     C_R   0.363234 0.587655 0.774765 -0.186920
C3    C     C_R   0.430303 0.516451 0.143531 -0.221570
C4    C     C_R   0.419446 0.498436 0.222390 -0.169082
C5    C     C_R   0.654767 0.570603 0.232507 -0.179764
C6    C     C_R   0.664862 0.591921 0.153772 -0.131465
C7    C     C_R   0.552688 0.565412 0.108262 0.099246
C8    C     C_2   0.456760 0.580254 0.981252 -0.335797
C9    C     C_2   0.569137 0.580587 0.023424 0.450802
C10   C     C_R   0.531706 0.523584 0.267244 -0.051601
C11   C     C_R   0.302058 0.881624 0.615864 -0.183770
C12   C     C_R   0.481194 0.502958 0.649688 0.815507
C13   C     C_R   0.205611 0.949983 0.665803 -0.248449
C14   C     C_R   0.206080 0.078492 0.668579 -0.170826
C15   C     C_R   0.302577 0.140046 0.621323 0.583013
C16   C     C_R   0.397935 0.072667 0.566728 -0.023841
C17   C     C_R   0.397668 0.940837 0.564668 0.047940
C18   C     C_R   0.497985 0.872254 0.514237 -0.047607
C19   C     C_R   0.604102 0.932810 0.473356 -0.191816
C20   C     C_R   0.605919 0.060181 0.476041 -0.216214
C21   C     C_R   0.499156 0.130891 0.517308 -0.104890
C22   C     C_R   0.878536 0.376949 0.369731 0.476861
C23   C     C_R   0.499191 0.263771 0.506675 0.927798
C24   C     C_R   0.965351 0.366140 0.299310 0.300793
C25   C     C_R   0.104055 0.341709 0.306289 -0.440160
C26   C     C_R   0.158966 0.363443 0.377355 0.600051
C27   C     C_R   0.083432 0.434214 0.439751 0.012725
C28   C     C_R   0.934598 0.437673 0.437738 -0.104828
C29   C     C_R   0.917379 0.562990 0.557687 0.592059
C30   C     C_R   0.066333 0.564153 0.556220 -0.125768
C31   C     C_R   0.518953 0.505469 0.350567 0.827797
C32   C     C_R   0.469892 0.515013 0.734332 0.025112
C33   C     C_R   0.570194 0.459838 0.775029 -0.234811
C34   C     C_R   0.565698 0.479061 0.855580 -0.100289
C35   C     C_R   0.463868 0.557831 0.896018 0.191198
C36   C     C_R   0.360589 0.609225 0.855351 -0.183696
Cu1   Cu    Cu3+1 0.359340 0.500010 0.500010 1.032743
Cu2   Cu    Cu3+1 0.640660 0.499990 0.499990 1.029764
H1    H     H_    0.651481 0.401456 0.744498 0.150596
H2    H     H_    0.760996 0.628486 0.128580 0.148884
H3    H     H_    0.684829 0.881085 0.437352 0.155011
H4    H     H_    0.303121 0.782640 0.620355 0.149908
H5    H     H_    0.133049 0.903057 0.704386 0.155642
H6    H     H_    0.134165 0.131196 0.709807 0.161009
H7    H     H_    0.690252 0.103048 0.443503 0.193434
H8    H     H_    0.323556 0.463526 0.247994 0.158087
H9    H     H_    0.167651 0.297474 0.257477 0.199290
H10   H     H_    0.117107 0.618983 0.600481 0.126927
H11   H     H_    0.742633 0.592394 0.266349 0.149054
H12   H     H_    0.279095 0.667364 0.885879 0.129671
H13   H     H_    0.343034 0.488827 0.110829 0.122783
H14   H     H_    0.284844 0.630835 0.743860 0.126504
H15   H     H_    0.353651 0.595337 0.010184 0.111961
H16   H     H_    0.641022 0.431050 0.885812 0.180530
N1    N     N_R   0.852190 0.498790 0.499250 -0.202708
N2    N     N_R   0.148060 0.498710 0.499220 -0.182920
O1    O     O_R   0.381190 0.680360 0.500010 -0.602798
O2    O     O_R   0.618760 0.680340 0.500000 -0.557823
O3    O     O_R   0.367440 0.500030 0.613600 -0.552811
O4    O     O_R   0.605010 0.500010 0.613590 -0.559960
O5    O     O_R   0.381240 0.319660 0.500000 -0.451574
O6    O     O_R   0.618810 0.319640 0.499990 -0.544356
O7    O     O_R   0.394990 0.499990 0.386410 -0.544751
O8    O     O_R   0.632560 0.499970 0.386400 -0.560518
F1    F     F_    0.307551 0.264583 0.634950 -0.685801
O9    O     O_3   0.836027 0.636287 0.613167 -0.551453
C37   C     C_3   0.874759 0.621152 0.689107 -0.340106
H17   H     H_    0.964052 0.681487 0.702609 0.143417
H18   H     H_    0.897973 0.522511 0.698318 0.157195
H19   H     H_    0.786414 0.651518 0.731281 0.201518
O10   O     O_3   0.759310 0.305820 0.380098 -0.554242
C38   C     C_3   0.716897 0.235465 0.313761 -0.226677
H20   H     H_    0.798236 0.167153 0.289475 0.173770
H21   H     H_    0.683029 0.296262 0.269784 0.210874
H22   H     H_    0.623310 0.182066 0.331311 0.152521
O11   O     O_3   0.911151 0.351450 0.227037 -0.578662
C39   C     C_3   0.983178 0.426190 0.173872 -0.312070
H23   H     H_    0.085186 0.383997 0.151990 0.163214
H24   H     H_    0.996909 0.522755 0.199507 0.143853
H25   H     H_    0.921213 0.431642 0.122765 0.204913
F2    F     F_    0.279244 0.303584 0.382734 -0.649026
O12   O     O_3   0.702906 0.583256 0.987687 -0.592441
C40   C     C_3   0.733329 0.705804 0.969439 -0.352636
H26   H     H_    0.843642 0.709198 0.946325 0.185702
H27   H     H_    0.719990 0.772369 0.022034 0.154725
H28   H     H_    0.668635 0.735274 0.923462 0.180831

loop_
_geom_bond_atom_site_label_1
_geom_bond_atom_site_label_2
_ccdc_geom_bond_type
C8    C9    D    
C16   C21   A    
C19   C20   A    
C4    H8    S    
C39   H23   S    
C26   C27   A    
C33   H1    S    
C30   H10   S    
C18   C19   A    
C3    C7    A    
C5    C6    A    
C15   C16   A    
C15   F1    S    
C11   H4    S    
C2    C32   A    
C34   C35   A    
Cu2   O2    S    
Cu1   N2    S    
C10   C31   S    
C23   O6    A    
Cu2   N1    S    
C35   C36   A    
C16   C17   A    
C29   C30   A    
C25   H9    S    
C20   H7    S    
C9    O12   S    
O9    C37   S    
C22   C28   A    
C13   C14   A    
C12   C32   S    
C12   O3    A    
C5    H11   S    
C38   H22   S    
Cu1   O7    S    
C28   N1    A    
C33   C34   A    
Cu2   O8    S    
C39   H24   S    
C37   H17   S    
C31   O7    A    
O11   C39   S    
C38   H21   S    
C3    H13   S    
C27   N2    A    
C24   O11   S    
C29   N1    A    
C25   C26   A    
C30   N2    A    
C37   H18   S    
C8    C35   S    
Cu1   Cu2   S    
C1    O1    A    
C40   H26   S    
C17   C18   A    
C1    C18   S    
C24   C25   A    
Cu1   O3    S    
C2    H14   S    
Cu2   O4    S    
C40   H27   S    
C34   H16   S    
C26   F2    S    
C21   C23   S    
C22   C24   A    
C4    C10   A    
C3    C4    A    
C22   O10   S    
C13   H5    S    
C36   H12   S    
C14   H6    S    
C39   H25   S    
C2    C36   A    
C7    C9    S    
C11   C17   A    
C31   O8    A    
C38   H20   S    
C8    H15   S    
Cu1   O5    S    
C6    C7    A    
C37   H19   S    
C32   C33   A    
C5    C10   A    
C1    O2    A    
C11   C13   A    
C6    H2    S    
C29   O9    S    
C12   O4    A    
C23   O5    A    
C40   H28   S    
O10   C38   S    
C20   C21   A    
O12   C40   S    
C27   C28   A    
C14   C15   A    
Cu1   O1    S    
C19   H3    S    
Cu2   O6    S    
