data_mof_unit_26384.cif
_audit_creation_date              2012-12-10T17:47:13-0500
_audit_creation_method            fapswitch 2.2
_symmetry_space_group_name_H-M    P1
_symmetry_Int_Tables_number       1
_space_group_crystal_system       triclinic
_cell_length_a                    11.673675
_cell_length_b                    15.000054
_cell_length_c                    14.97048
_cell_angle_alpha                 64.314736
_cell_angle_beta                  105.823605
_cell_angle_gamma                 103.741606
_cell_volume                      2251.23071421

loop_
_atom_site_label
_atom_site_type_symbol
_atom_type_description
_atom_site_fract_x
_atom_site_fract_y
_atom_site_fract_z
_atom_type_partial_charge
C1    C     C_R   0.478463 0.119043 0.311913 0.785567
C2    C     C_R   0.522100 0.880913 0.688140 0.788604
C3    C     C_R   0.428950 0.324013 0.999501 0.113975
C4    C     C_R   0.565395 0.675104 0.000304 0.104225
C5    C     C_R   0.506873 0.465594 0.051680 0.068569
C6    C     C_R   0.489258 0.533617 0.947826 0.079698
C7    C     C_R   0.442963 0.493174 0.873279 -0.200640
C8    C     C_R   0.551675 0.505911 0.126389 -0.159315
C9    C     C_R   0.413189 0.390952 0.898943 -0.172457
C10   C     C_R   0.580106 0.608081 0.100917 -0.135396
C11   C     C_R   0.685431 0.274182 0.681410 -0.179028
C12   C     C_R   0.319806 0.727960 0.316483 -0.161989
C13   C     C_R   0.672439 0.207985 0.635535 0.329776
C14   C     C_R   0.327163 0.790145 0.365170 0.343283
C15   C     C_R   0.505766 0.280572 0.513326 0.148642
C16   C     C_R   0.494626 0.719358 0.486526 0.105106
C17   C     C_R   0.532857 0.365819 0.541986 -0.078167
C18   C     C_R   0.470187 0.635352 0.456616 -0.071253
C19   C     C_R   0.622259 0.358255 0.632720 0.039814
C20   C     C_R   0.383626 0.644542 0.366328 0.018295
C21   C     C_R   0.479666 0.459009 0.484911 0.095878
C22   C     C_R   0.526127 0.543937 0.510314 0.087319
C23   C     C_R   0.283938 0.999186 0.499858 0.831079
C24   C     C_R   0.716041 0.000937 0.499968 0.844960
C25   C     C_R   0.623652 0.532725 0.589465 -0.334665
C26   C     C_R   0.385238 0.472684 0.401485 -0.210110
C27   C     C_R   0.653917 0.441901 0.661760 0.003115
C28   C     C_R   0.355343 0.565709 0.332996 -0.008854
C29   C     C_1   0.161493 0.997373 0.498895 -0.127971
C30   C     C_1   0.838498 0.002807 0.500890 -0.083981
C31   C     C_1   0.058926 0.999174 0.499941 0.034091
C32   C     C_1   0.941067 0.001013 0.499844 0.049382
C33   C     C_R   0.461144 0.185257 0.202283 -0.136229
C34   C     C_R   0.538833 0.814370 0.797739 -0.133725
C35   C     C_R   0.397538 0.221609 0.022430 -0.125852
C36   C     C_R   0.596312 0.777511 0.977881 -0.104688
C37   C     C_R   0.412470 0.150853 0.122548 -0.043213
C38   C     C_R   0.584060 0.848654 0.877945 -0.001965
C39   C     C_R   0.496091 0.288266 0.177166 -0.173278
C40   C     C_R   0.505687 0.711115 0.822082 -0.232563
C41   C     C_R   0.477818 0.359762 0.076972 0.083129
C42   C     C_R   0.519251 0.639453 0.922437 0.090954
Cu1   Cu    Cu3+1 0.469550 0.918260 0.475690 1.012336
Cu2   Cu    Cu3+1 0.530450 0.081740 0.524310 0.995802
H1    H     H_    0.377238 0.363903 0.838774 0.151598
H2    H     H_    0.614467 0.634947 0.161336 0.161891
H3    H     H_    0.685969 0.594854 0.595572 0.192255
H4    H     H_    0.322812 0.413081 0.393455 0.128909
H5    H     H_    0.466225 0.688175 0.760490 0.149385
H6    H     H_    0.540283 0.311194 0.237947 0.195985
H7    H     H_    0.359599 0.196979 0.960563 0.183871
H8    H     H_    0.631851 0.801938 0.039999 0.188694
H9    H     H_    0.427928 0.538391 0.793452 0.131948
H10   H     H_    0.565079 0.460637 0.206221 0.175493
N1    N     N_R   0.576230 0.204580 0.560790 -0.225697
N2    N     N_R   0.423770 0.795420 0.439210 -0.224702
O1    O     O_R   0.459870 0.022090 0.338120 -0.598875
O2    O     O_R   0.540130 0.977910 0.661880 -0.591989
O3    O     O_R   0.511290 0.160150 0.379180 -0.543601
O4    O     O_R   0.488710 0.839850 0.620820 -0.598061
O5    O     O_R   0.311490 0.930960 0.479480 -0.519303
O6    O     O_R   0.688510 0.069040 0.520520 -0.537828
O7    O     O_R   0.362910 0.069020 0.520540 -0.606479
O8    O     O_R   0.637090 0.930980 0.479460 -0.529338
C43   C     C_2   0.617994 0.955208 0.864131 0.393756
H11   H     H_    0.640776 0.013438 0.796412 0.125802
O9    O     O_2   0.623923 0.980071 0.933333 -0.518532
C44   C     C_2   0.378789 0.044410 0.136726 0.449523
H12   H     H_    0.354494 0.986540 0.204438 0.141642
O10   O     O_2   0.372213 0.019697 0.067742 -0.471590
C45   C     C_2   0.717907 0.451628 0.760032 0.403114
H13   H     H_    0.727416 0.523283 0.765200 0.078981
O11   O     O_2   0.754445 0.384325 0.837444 -0.527101
C46   C     C_2   0.281268 0.570003 0.235132 0.403997
H14   H     H_    0.187639 0.534406 0.229402 0.048746
O12   O     O_2   0.325142 0.608013 0.159064 -0.474929
C47   C     C_2   0.588381 0.723319 0.573330 0.436184
H15   H     H_    0.567995 0.687768 0.648135 0.024072
O13   O     O_2   0.692134 0.759293 0.562959 -0.546288
C48   C     C_2   0.407322 0.266388 0.431969 0.282681
H16   H     H_    0.325509 0.286982 0.377307 0.237308
O14   O     O_2   0.406277 0.318074 0.341504 -0.656243
Br1   Br    Br    0.195472 0.866242 0.324577 -0.512699
Br2   Br    Br    0.801162 0.128323 0.676788 -0.474680
C49   C     C_2   0.770595 0.252271 0.777669 0.556425
H17   H     H_    0.741126 0.199526 0.846599 0.110663
O15   O     O_2   0.875190 0.290616 0.780398 -0.464568
C50   C     C_2   0.246491 0.755289 0.212809 0.449861
H18   H     H_    0.150431 0.732226 0.201776 0.072554
O16   O     O_2   0.293784 0.803919 0.139171 -0.431099

loop_
_geom_bond_atom_site_label_1
_geom_bond_atom_site_label_2
_ccdc_geom_bond_type
C14   N2    A    
C21   C26   A    
C4    C36   A    
C9    H1    S    
C28   C46   S    
C1    C33   S    
C39   C41   A    
C49   H17   S    
C13   Br2   S    
C11   C19   A    
C33   C39   A    
C46   O12   D    
C34   C40   A    
C23   C29   S    
C35   C37   A    
C1    O3    A    
C5    C6    A    
C2    O4    A    
Cu2   O3    S    
C40   H5    S    
C37   C44   S    
C15   C17   A    
C16   C47   S    
C31   C32   S    
Cu2   O2    S    
C44   H12   S    
C43   O9    D    
C22   C25   A    
C10   H2    S    
C19   C27   A    
C25   H3    S    
C36   H8    S    
C26   H4    S    
C2    C34   S    
C40   C42   A    
C24   O8    A    
C34   C38   A    
C21   C22   A    
C14   Br1   S    
Cu1   O8    S    
C24   C30   S    
C49   O15   D    
Cu2   O7    S    
C46   H14   S    
C12   C50   S    
C48   O14   D    
C8    H10   S    
C45   O11   D    
C20   C28   A    
Cu2   O6    S    
C47   H15   S    
C33   C37   A    
C15   N1    A    
Cu1   Cu2   S    
C16   N2    A    
C3    C9    A    
C1    O1    A    
C15   C48   S    
C38   C43   S    
C3    C35   A    
C12   C20   A    
C47   O13   D    
C16   C18   A    
Cu1   O4    S    
C8    C10   A    
C50   O16   D    
C35   H7    S    
C7    H9    S    
C4    C10   A    
C27   C45   S    
Cu1   O5    S    
C7    C9    A    
C5    C41   A    
C3    C41   A    
C24   O6    A    
C18   C22   A    
C12   C14   A    
C48   H16   S    
C5    C8    A    
C2    O2    A    
C6    C7    A    
C25   C27   A    
C26   C28   A    
C36   C38   A    
C45   H13   S    
C29   C31   T    
C30   C32   T    
C11   C13   A    
Cu2   N1    S    
C4    C42   A    
C11   C49   S    
C23   O7    A    
C17   C19   A    
C18   C20   A    
C17   C21   A    
Cu1   O1    S    
Cu1   N2    S    
C23   O5    A    
C39   H6    S    
C50   H18   S    
C44   O10   D    
C43   H11   S    
C6    C42   A    
C13   N1    A    
