data_mof_unit_24381.cif
_audit_creation_date              2012-12-11T17:01:31-0500
_audit_creation_method            fapswitch 2.2
_symmetry_space_group_name_H-M    P1
_symmetry_Int_Tables_number       1
_space_group_crystal_system       triclinic
_cell_length_a                    14.988576
_cell_length_b                    14.974397
_cell_length_c                    14.815953
_cell_angle_alpha                 109.724883
_cell_angle_beta                  108.856167
_cell_angle_gamma                 109.841499
_cell_volume                      2559.41721129

loop_
_atom_site_label
_atom_site_type_symbol
_atom_type_description
_atom_site_fract_x
_atom_site_fract_y
_atom_site_fract_z
_atom_type_partial_charge
C1    C     C_R   0.927825 0.740691 0.021036 -0.119891
C2    C     C_R   0.210005 0.804924 0.300834 -0.135661
C3    C     C_R   0.976072 0.409671 0.224081 -0.088030
C4    C     C_R   0.780108 0.254260 0.685952 -0.085504
C5    C     C_R   0.314170 0.592604 0.067058 -0.143940
C6    C     C_R   0.053677 0.502460 0.327122 0.081561
C7    C     C_R   0.325336 0.500996 0.051424 0.049552
C8    C     C_R   0.303098 0.866948 0.301295 0.072367
C9    C     C_R   0.931538 0.132355 0.931888 0.063189
C10   C     C_3   0.533761 0.494257 0.962101 0.029017
C11   C     C_3   0.429361 0.491696 0.957280 -0.478176
C12   C     C_R   0.676857 0.223145 0.673218 0.055982
C13   C     C_3   0.531728 0.399838 0.075464 0.056160
C14   C     C_3   0.633394 0.607122 0.172934 -0.386516
C15   C     C_3   0.602865 0.501317 0.071651 0.184908
C16   C     C_R   0.099384 0.590027 0.792972 -0.114773
C17   C     C_3   0.426890 0.501224 0.063908 0.301470
C18   C     C_3   0.430410 0.403436 0.076640 -0.420734
C19   C     C_3   0.529557 0.608921 0.165662 -0.405845
C20   C     C_R   0.577489 0.112149 0.469699 0.050206
C21   C     C_R   0.576938 0.162421 0.568017 0.031285
C22   C     C_R   0.475650 0.136617 0.563588 -0.160541
C23   C     C_R   0.068990 0.499811 0.698202 0.066973
C24   C     C_R   0.380432 0.044811 0.469849 -0.215473
C25   C     C_R   0.386335 0.981681 0.379256 0.052649
C26   C     C_R   0.482890 0.025437 0.375458 0.164820
C27   C     C_3   0.541545 0.970994 0.337362 -0.613152
C28   C     C_R   0.699637 0.408919 0.004211 -0.154329
C29   C     C_3   0.645188 0.064255 0.442427 0.003443
C30   C     C_R   0.166452 0.602881 0.533090 0.123981
C31   C     C_R   0.104536 0.504658 0.431314 0.014105
C32   C     C_R   0.074100 0.405667 0.433535 -0.136291
C33   C     C_R   0.076197 0.404318 0.528245 -0.200454
C34   C     C_R   0.699556 0.500398 0.068267 0.072774
C35   C     C_R   0.109922 0.502138 0.621003 0.049329
C36   C     C_R   0.168228 0.601253 0.626508 0.081961
C37   C     C_3   0.169333 0.707532 0.671607 -0.511017
C38   C     C_3   0.167573 0.710538 0.570213 -0.021556
C39   C     C_R   0.899825 0.915501 0.002411 -0.032916
C40   C     C_R   0.005087 0.408743 0.699118 -0.142798
C41   C     C_R   0.914161 0.845517 0.925638 0.091940
C42   C     C_R   0.906411 0.855192 0.832571 -0.134410
C43   C     C_R   0.905476 0.947152 0.829040 -0.189107
C44   C     C_R   0.911053 0.026815 0.918105 0.091208
C45   C     C_R   0.068308 0.592854 0.314142 -0.137908
C46   C     C_R   0.901305 0.005839 0.000086 0.055461
C47   C     C_3   0.959257 0.076070 0.123594 -0.025560
C48   C     C_3   0.956672 0.974119 0.126502 -0.064406
C49   C     C_R   0.792051 0.591308 0.097914 -0.099764
C50   C     C_R   0.685732 0.248839 0.776163 -0.149064
C51   C     C_R   0.032638 0.758241 0.941938 0.189612
C52   C     C_R   0.949566 0.775088 0.951651 -0.007275
C53   C     C_3   0.703385 0.063037 0.896647 -0.948950
C54   C     C_3   0.564233 0.563514 0.839120 -0.908657
C55   C     C_3   0.758179 0.986173 0.497582 -0.923191
C56   C     C_R   0.222895 0.408547 0.975130 -0.115600
C57   C     C_3   0.367601 0.802417 0.629300 -0.845753
C58   C     C_3   0.113721 0.019974 0.291085 -0.847857
C59   C     C_R   0.298600 0.803044 0.206448 -0.133886
C60   C     C_R   0.898439 0.194468 0.989118 0.180645
C61   C     C_R   0.996870 0.195355 0.904650 -0.139637
H1    H     H_    0.871056 0.746435 0.049376 0.113967
H2    H     H_    0.803760 0.250129 0.624002 0.106005
H3    H     H_    0.357767 0.413313 0.883870 0.153029
H4    H     H_    0.502091 0.323086 0.999824 0.094223
H5    H     H_    0.356975 0.323743 0.008471 0.150923
H6    H     H_    0.679612 0.610908 0.251084 0.200391
H7    H     H_    0.686648 0.682868 0.177324 0.137621
H8    H     H_    0.533594 0.681796 0.159167 0.149967
H9    H     H_    0.527139 0.618929 0.242603 0.176263
H10   H     H_    0.431691 0.412357 0.154715 0.211609
H11   H     H_    0.470848 0.177743 0.636039 0.121788
H12   H     H_    0.201903 0.323633 0.937837 0.101834
H13   H     H_    0.168925 0.669993 0.831153 0.139672
H14   H     H_    0.305974 0.017344 0.474050 0.125336
H15   H     H_    0.516552 0.889634 0.332125 0.200752
H16   H     H_    0.541363 0.971569 0.262470 0.196323
H17   H     H_    0.706991 0.116648 0.429230 0.135284
H18   H     H_    0.034609 0.327646 0.359292 0.144567
H19   H     H_    0.038339 0.325569 0.522660 0.123364
H20   H     H_    0.093011 0.697555 0.673266 0.204774
H21   H     H_    0.246008 0.773108 0.750051 0.223885
H22   H     H_    0.091204 0.705287 0.518150 0.106494
H23   H     H_    0.345353 0.830597 0.169454 0.121227
H24   H     H_    0.643755 0.324084 0.973942 0.107726
H25   H     H_    0.911036 0.797922 0.768612 0.149589
H26   H     H_    0.908196 0.959653 0.761914 0.126738
H27   H     H_    0.905191 0.097500 0.151566 0.107536
H28   H     H_    0.903033 0.938917 0.157137 0.110351
H29   H     H_    0.981934 0.324842 0.647482 0.089276
H30   H     H_    0.823055 0.676136 0.155116 0.076445
H31   H     H_    0.621338 0.235746 0.796697 0.101340
H32   H     H_    0.126069 0.677594 0.374430 0.096831
H33   H     H_    0.788867 0.214292 0.037879 0.174851
H34   H     H_    0.025788 0.167432 0.848777 0.103887
H35   H     H_    0.633368 0.043321 0.912201 0.258107
H36   H     H_    0.709630 0.988081 0.867180 0.258606
H37   H     H_    0.686387 0.085334 0.831260 0.255672
H38   H     H_    0.611225 0.660950 0.003405 0.176317
H39   H     H_    0.621100 0.635706 0.841064 0.249583
H40   H     H_    0.479994 0.548333 0.797322 0.251845
H41   H     H_    0.568824 0.491338 0.791806 0.257738
H42   H     H_    0.632797 0.981164 0.532331 0.193401
H43   H     H_    0.793548 0.969143 0.563811 0.244739
H44   H     H_    0.826315 0.048000 0.498844 0.244763
H45   H     H_    0.179145 0.834696 0.353845 0.083164
H46   H     H_    0.710589 0.908861 0.416731 0.254338
H47   H     H_    0.253109 0.835371 0.544936 0.157580
H48   H     H_    0.435544 0.884720 0.659964 0.239327
H49   H     H_    0.363122 0.741199 0.557325 0.241106
H50   H     H_    0.385552 0.782773 0.696626 0.250827
H51   H     H_    0.114766 0.011585 0.146667 0.244924
H52   H     H_    0.192537 0.021559 0.317637 0.248246
H53   H     H_    0.060855 0.962552 0.307678 0.225465
H54   H     H_    0.128999 0.103828 0.339182 0.270224
H55   H     H_    0.947401 0.325261 0.203317 0.100271
H56   H     H_    0.377147 0.677917 0.115758 0.094644
H57   H     H_    0.509616 0.415081 0.892167 0.113619
H58   H     H_    0.422437 0.559138 0.945361 0.177540
I1    I     I_    0.620211 0.383993 0.211270 -0.450166
I2    I     I_    0.118248 0.217960 0.196327 -0.458921
I3    I     I_    0.149699 0.857969 0.916260 -0.507188
N1    N     N_R   0.995640 0.706130 0.053910 -0.051221
N2    N     N_R   0.054010 0.556790 0.847890 -0.042688
N3    N     N_R   0.789940 0.443190 0.997130 -0.037300
N4    N     N_R   0.997630 0.443170 0.791110 -0.044029
N5    N     N_R   0.846320 0.556810 0.053910 -0.041534
N6    N     N_R   0.791080 0.293860 0.847890 -0.044117
N7    N     N_R   0.052880 0.706130 0.997130 -0.058194
N8    N     N_R   0.002370 0.556830 0.208890 -0.039810
N9    N     N_2   0.802191 0.153402 0.997537 -0.123326
N10   N     N_2   0.595771 0.584915 0.950681 -0.101685
N11   N     N_2   0.688274 0.027862 0.517003 -0.093120
N12   N     N_R   0.153680 0.443190 0.946090 -0.041966
N13   N     N_2   0.266036 0.803779 0.596768 -0.089137
N14   N     N_2   0.062750 0.983062 0.174633 -0.075984
N15   N     N_R   0.208920 0.706140 0.152110 -0.037884
N16   N     N_R   0.947120 0.293870 0.002870 -0.068422
N17   N     N_R   0.004360 0.293870 0.946090 -0.047796
N18   N     N_R   0.151690 0.706140 0.208890 -0.037813
N19   N     N_R   0.945990 0.443210 0.152110 -0.047830
N20   N     N_R   0.210060 0.556810 0.002870 -0.039640
N21   N     N_R   0.848310 0.293860 0.791110 -0.046797
Ni1   Ni    Ni4+2 0.999010 0.630300 0.130220 0.215830
Ni2   Ni    Ni4+2 0.000990 0.369700 0.869780 0.210420
Ni3   Ni    Ni4+2 0.130280 0.630280 0.000000 0.229421
Ni4   Ni    Ni4+2 0.869720 0.369720 0.000000 0.219012

loop_
_geom_bond_atom_site_label_1
_geom_bond_atom_site_label_2
_ccdc_geom_bond_type
C29   N11   S    
C33   H19   S    
C6    C45   A    
C38   H22   S    
C27   C29   S    
C41   C42   A    
N20   Ni3   S    
C54   H40   S    
C35   C36   A    
C3    N19   A    
C3    C6    A    
C11   H58   S    
C1    H1    S    
C4    N21   A    
C51   N7    A    
N16   N17   A    
C39   C41   A    
C13   H4    S    
C4    H2    S    
C26   C27   S    
C13   C18   S    
C55   H44   S    
C9    C61   A    
C58   H53   S    
C36   C37   S    
H51   N14   S    
C3    H55   S    
C8    C59   A    
C30   C31   A    
C47   I2    S    
C59   N15   A    
C23   C40   A    
C30   C38   S    
N8    N19   A    
C33   C35   A    
C57   H48   S    
C29   H17   S    
C57   H49   S    
C7    C17   S    
N1    Ni1   S    
C58   H52   S    
C14   H6    S    
C42   H25   S    
C4    C12   A    
N8    Ni1   S    
C15   C34   S    
C48   N14   S    
C6    C31   S    
C45   H32   S    
C45   N8    A    
C21   C22   A    
N1    N7    A    
C53   H35   S    
C8    C25   S    
C37   H20   S    
C7    C56   A    
C49   H30   S    
C60   N9    S    
C22   H11   S    
C1    C52   A    
N4    Ni2   S    
C44   C46   A    
C20   C29   S    
C49   N5    A    
N15   N18   A    
C51   C52   A    
N15   Ni3   S    
C24   C25   A    
H47   N13   S    
C11   H3    S    
N3    Ni4   S    
C5    C7    A    
C61   N17   A    
C53   H36   S    
C25   C26   A    
C55   N11   S    
N2    Ni3   S    
C55   H43   S    
C2    H45   S    
C55   H46   S    
C43   C44   A    
C1    N1    A    
C37   C38   S    
C10   H57   S    
N12   N20   A    
C12   C50   A    
C47   C48   S    
N16   Ni4   S    
C40   N4    A    
C17   C18   S    
N6    Ni4   S    
C38   N13   S    
C59   H23   S    
N7    Ni3   S    
C39   C46   A    
C53   N9    S    
H38   N10   S    
C50   H31   S    
C16   C23   A    
C23   C35   S    
C48   H28   S    
C13   C15   S    
C58   H54   S    
C16   H13   S    
C37   H21   S    
C19   H8    S    
C50   N6    A    
C42   C43   A    
C17   C19   S    
C27   H15   S    
C13   I1    S    
C28   N3    A    
N2    N4    A    
C18   H10   S    
N21   Ni2   S    
N12   Ni2   S    
C46   C47   S    
N17   Ni2   S    
C9    C44   S    
C56   H12   S    
C41   C52   S    
C14   C19   S    
C54   H41   S    
C31   C32   A    
C2    C8    A    
N18   Ni1   S    
C27   H16   S    
C11   C17   S    
C56   N12   A    
C61   H34   S    
C24   H14   S    
C53   H37   S    
C18   H5    S    
C54   N10   S    
H33   N9    S    
C30   C36   A    
C10   C15   S    
C9    C60   A    
C43   H26   S    
C47   H27   S    
C16   N2    A    
C2    N18   A    
C32   C33   A    
C32   H18   S    
C5    N20   A    
C57   H50   S    
C20   C26   A    
C12   C21   S    
C54   H39   S    
C22   C24   A    
N5    Ni1   S    
H42   N11   S    
N6    N21   A    
C10   N10   S    
C10   C11   S    
N19   Ni4   S    
C28   C34   A    
C20   C21   A    
C34   C49   A    
C5    H56   S    
C28   H24   S    
N3    N5    A    
C51   I3    S    
C14   H7    S    
C14   C15   S    
C57   N13   S    
C19   H9    S    
C40   H29   S    
C60   N16   A    
C39   C48   S    
C58   N14   S    
