data_mof_unit_16923.cif
_audit_creation_date              2013-03-05T15:52:46-0500
_audit_creation_method            fapswitch 2.2
_symmetry_space_group_name_H-M    P1
_symmetry_Int_Tables_number       1
_space_group_crystal_system       triclinic
_cell_length_a                    6.954989
_cell_length_b                    14.780782
_cell_length_c                    21.31374
_cell_angle_alpha                 74.948047
_cell_angle_beta                  89.929107
_cell_angle_gamma                 90.571844
_cell_volume                      2115.76070353

loop_
_atom_site_label
_atom_site_type_symbol
_atom_site_description
_atom_site_fract_x
_atom_site_fract_y
_atom_site_fract_z
_atom_type_partial_charge
O1    O     O_R   0.648150 0.130050 0.214300 -0.581422
O2    O     O_R   0.351850 0.869950 0.785700 -0.597479
O3    O     O_R   0.320490 0.006660 0.340150 -0.559469
O4    O     O_R   0.679510 0.993340 0.659850 -0.560450
O5    O     O_R   0.146100 0.869940 0.285700 -0.599551
O6    O     O_R   0.853900 0.130060 0.714300 -0.599709
C1    C     C_R   0.488650 0.002210 0.366886 0.979952
C2    C     C_R   0.511352 0.997797 0.633113 0.979144
O7    O     O_R   0.318690 0.137980 0.218120 -0.598315
O8    O     O_R   0.681310 0.862020 0.781880 -0.582788
O9    O     O_R   0.144280 0.002190 0.162800 -0.604301
O10   O     O_R   0.855720 0.997810 0.837200 -0.598552
C3    C     C_R   0.488104 0.175508 0.204314 0.955580
C4    C     C_R   0.511999 0.824535 0.795349 0.958442
O11   O     O_R   0.649960 0.997790 0.337200 -0.568418
O12   O     O_R   0.350040 0.002210 0.662800 -0.568205
O13   O     O_3   0.479300 0.955290 0.231990 -0.292748
O14   O     O_3   0.520700 0.044710 0.768010 -0.291641
V1    V     V_3+5 0.206040 0.008290 0.253340 1.227110
V2    V     V_3+5 0.793960 0.991710 0.746660 1.237238
O15   O     O_R   0.814320 0.993320 0.159850 -0.598248
O16   O     O_R   0.185680 0.006680 0.840150 -0.602988
C5    C     C_R   0.983465 0.997667 0.133010 0.945382
C6    C     C_R   0.016969 0.000823 0.867271 0.944519
O17   O     O_R   0.816120 0.862000 0.281880 -0.604392
O18   O     O_R   0.183880 0.138000 0.718120 -0.603455
C7    C     C_R   0.983808 0.824865 0.294594 0.975190
C8    C     C_R   0.016119 0.175169 0.705546 0.977270
V3    V     V_3+5 0.705540 0.991700 0.246660 1.212672
V4    V     V_3+5 0.294460 0.008300 0.753340 1.207983
O19   O     O_3   0.982150 0.044700 0.268010 -0.233473
O20   O     O_3   0.017850 0.955300 0.731990 -0.234288
C9    C     C_R   0.988900 0.724247 0.324196 -0.131129
C10   C     C_R   0.010634 0.275842 0.676133 -0.132661
C11   C     C_R   0.011939 0.567959 0.310317 -0.169776
C12   C     C_R   0.984467 0.431968 0.690162 -0.168668
C13   C     C_R   0.022564 0.664323 0.284468 -0.227257
C14   C     C_R   0.974806 0.335531 0.715884 -0.226433
C15   C     C_R   0.951421 0.687869 0.391238 0.173918
C16   C     C_R   0.048420 0.312492 0.609153 0.173982
C17   C     C_R   0.982546 0.590659 0.419730 0.070045
C18   C     C_R   0.016205 0.409615 0.580762 0.070923
C19   C     C_R   0.989911 0.530718 0.377389 0.134419
C20   C     C_R   0.007653 0.469418 0.623151 0.134552
C21   C     C_R   0.003594 0.549827 0.487918 0.061553
C22   C     C_R   0.995045 0.450465 0.512611 0.060954
C23   C     C_R   0.954852 0.395871 0.468831 -0.198379
C24   C     C_R   0.043532 0.604347 0.531789 -0.197549
C25   C     C_R   0.967508 0.434293 0.402293 -0.206209
C26   C     C_R   0.030099 0.565871 0.598332 -0.210268
H1    H     H_    0.954363 0.388594 0.370100 0.152314
H2    H     H_    0.043064 0.611504 0.630598 0.154787
H3    H     H_    0.950659 0.307344 0.767558 0.130132
H4    H     H_    0.045722 0.692313 0.232725 0.127132
H5    H     H_    0.023607 0.522425 0.278009 0.132040
H6    H     H_    0.971108 0.477373 0.722499 0.132928
H7    H     H_    0.916396 0.322617 0.485204 0.183619
H8    H     H_    0.082363 0.677553 0.515508 0.183730
C27   C     C_3   0.833140 0.966785 0.982930 -0.042795
C28   C     C_3   0.169380 0.029784 0.017774 -0.081300
C29   C     C_3   0.968539 0.910326 0.036272 -0.055972
C30   C     C_3   0.033862 0.086329 0.964510 -0.075690
H9    H     H_    0.943500 0.837902 0.066640 0.161319
H10   H     H_    0.060262 0.158955 0.934618 0.145659
H11   H     H_    0.693903 0.941831 0.967857 0.161146
H12   H     H_    0.308355 0.055634 0.032443 0.146690
C31   C     C_3   0.994147 0.997234 0.062566 -0.184327
C32   C     C_3   0.008071 0.999490 0.938076 -0.158339
C33   C     C_3   0.858887 0.053545 0.010119 -0.088961
C34   C     C_3   0.143631 0.942833 0.990591 -0.114707
H13   H     H_    0.739235 0.096322 0.020393 0.200220
H14   H     H_    0.261361 0.897165 0.982090 0.151045
C35   C     C_3   0.668701 0.026003 0.473741 0.525971
C36   C     C_3   0.331306 0.974013 0.526257 0.525689
C37   C     C_3   0.544122 0.086521 0.506348 -0.300077
C38   C     C_3   0.455881 0.913489 0.493653 -0.300258
H15   H     H_    0.583209 0.157139 0.511726 0.167023
H16   H     H_    0.416788 0.842872 0.488274 0.166954
C39   C     C_3   0.505090 0.998242 0.562764 -0.291046
C40   C     C_3   0.494918 0.001769 0.437235 -0.291659
C41   C     C_3   0.634274 0.938306 0.530334 -0.199303
C42   C     C_3   0.365740 0.061704 0.469665 -0.199647
H17   H     H_    0.741801 0.886869 0.555379 0.217470
H18   H     H_    0.258188 0.113130 0.444630 0.217101
C43   C     C_R   0.502434 0.277837 0.178151 -0.153983
C44   C     C_R   0.503541 0.722250 0.821278 -0.154029
C45   C     C_R   0.571365 0.432945 0.190580 -0.192131
C46   C     C_R   0.529111 0.565450 0.807828 -0.191385
C47   C     C_R   0.542700 0.337197 0.218719 0.272417
C48   C     C_R   0.516506 0.661848 0.780094 0.276547
C49   C     C_R   0.491934 0.315460 0.110567 -0.196736
C50   C     C_R   0.502327 0.685098 0.888965 -0.192911
C51   C     C_R   0.540264 0.410522 0.081071 0.150102
C52   C     C_R   0.536142 0.588784 0.917589 0.148163
C53   C     C_R   0.569833 0.469656 0.122816 0.078845
C54   C     C_R   0.539150 0.528937 0.875498 0.076397
C55   C     C_R   0.554902 0.449378 0.011897 -0.123569
C56   C     C_R   0.562247 0.549521 0.986266 -0.123405
C57   C     C_R   0.603825 0.605360 0.030234 0.387077
C58   C     C_R   0.571160 0.392661 0.967229 0.390089
C59   C     C_R   0.603704 0.564956 0.097072 -0.313487
C60   C     C_R   0.558985 0.432946 0.900580 -0.310395
H19   H     H_    0.636704 0.608711 0.129472 0.169676
H20   H     H_    0.572632 0.388487 0.867563 0.172820
H21   H     H_    0.473600 0.733210 0.918051 0.153394
H22   H     H_    0.444076 0.268915 0.082163 0.152268
H23   H     H_    0.598593 0.478942 0.221922 0.135942
H24   H     H_    0.535585 0.518707 0.776153 0.136427
N1    N     N_R   0.853491 0.056439 0.443203 0.238344
O21   O     O_R   0.902795 0.144500 0.429863 -0.462234
O22   O     O_R   0.959296 0.997928 0.422666 -0.403357
N2    N     N_R   0.146493 0.943622 0.556790 0.238143
O23   O     O_R   0.097228 0.855553 0.570216 -0.461664
O24   O     O_R   0.040689 0.002185 0.577276 -0.403396
C61   C     C_3   0.516004 0.696584 0.706949 -0.957198
H25   H     H_    0.499779 0.773585 0.689434 0.230283
H26   H     H_    0.652965 0.677265 0.687181 0.250234
H27   H     H_    0.394695 0.663345 0.687066 0.252171
C62   C     C_3   0.554635 0.302090 0.291706 -0.949134
H28   H     H_    0.524302 0.225951 0.309766 0.229556
H29   H     H_    0.701082 0.316015 0.307889 0.257097
H30   H     H_    0.448619 0.339537 0.314514 0.245388
N3    N     N_R   0.673986 0.699931 0.008876 0.210279
O25   O     O_R   0.609664 0.763171 0.035901 -0.480814
O26   O     O_R   0.822177 0.719541 0.970176 -0.432425
N4    N     N_R   0.630029 0.296860 0.986916 0.209826
O27   O     O_R   0.553150 0.235867 0.959815 -0.475686
O28   O     O_R   0.782741 0.274412 0.022598 -0.442199
C63   C     C_3   0.151945 0.250809 0.573193 -0.972188
H31   H     H_    0.051354 0.197588 0.563033 0.276833
H32   H     H_    0.221989 0.291643 0.527790 0.251970
H33   H     H_    0.272813 0.214156 0.602730 0.256510
C64   C     C_3   0.849016 0.749982 0.427127 -0.971361
H34   H     H_    0.778149 0.709413 0.472452 0.251910
H35   H     H_    0.950557 0.802772 0.437374 0.277014
H36   H     H_    0.728806 0.787180 0.397527 0.256465

loop_
_geom_bond_atom_site_label_1
_geom_bond_atom_site_label_2
_geom_bond_distance
_ccdc_geom_bond_type
C29   C34   1.550541 S    
C16   C63   1.520447 S    
C46   C54   1.404671 A    
N4    O27   1.301499 A    
C54   C60   1.388530 A    
O13   V3    1.713183 S    
O4    C2    1.296376 A    
V1    O19   1.707346 S    
N2    O24   1.299867 A    
C55   C56   1.438905 A    
C43   C49   1.405180 A    
N3    O25   1.301158 A    
C23   C25   1.386315 A    
C21   C22   1.426236 A    
C7    C9    1.457695 S    
O9    V1    2.002049 S    
C9    C15   1.412823 A    
C36   C38   1.539726 S    
C58   N4    1.432556 S    
C11   C13   1.388504 A    
C38   H16   1.110456 S    
C63   H31   1.110415 S    
O3    C1    1.296387 A    
N1    O22   1.299837 A    
C36   N2    1.453284 S    
C46   H24   1.085335 S    
N3    O26   1.301686 A    
C23   H7    1.078621 S    
C52   C56   1.440118 A    
O12   V4    1.992616 S    
C61   H25   1.108803 S    
C28   C30   1.549601 S    
C18   C22   1.429306 A    
C5    C31   1.504858 S    
C33   H13   1.105534 S    
O7    C3    1.297659 A    
C30   H10   1.110181 S    
O13   V1    2.155333 S    
O5    C7    1.293344 A    
O7    V1    2.018194 S    
O6    C8    1.293110 A    
C47   C62   1.509315 S    
C28   C31   1.541129 S    
O8    V2    2.018193 S    
C61   H26   1.110568 S    
C45   C53   1.404875 A    
C2    C39   1.498381 S    
C26   H2    1.084376 S    
O3    V1    2.009595 S    
O14   V4    1.713182 S    
C11   C19   1.399697 A    
C63   H33   1.108936 S    
C2    O12   1.297878 A    
C24   C26   1.386863 A    
C28   H12   1.110588 S    
C59   H19   1.085019 S    
C17   C19   1.420581 A    
C49   H22   1.078357 S    
C18   C20   1.420152 A    
C36   C42   1.540561 S    
C35   C41   1.540627 S    
N2    O23   1.300452 A    
C41   H17   1.106253 S    
O11   V3    1.992616 S    
C62   H29   1.110103 S    
O15   C5    1.301166 A    
O17   V3    2.028190 S    
C27   C29   1.549624 S    
C11   H5    1.084165 S    
C4    C44   1.469267 S    
C40   C42   1.549892 S    
C44   C48   1.408596 A    
C39   C41   1.549918 S    
C43   C47   1.409110 A    
C19   C25   1.392750 A    
C1    O11   1.297868 A    
C25   H1    1.084011 S    
O15   V3    1.992372 S    
C9    C13   1.396245 A    
C30   C33   1.549638 S    
C31   C33   1.536974 S    
C52   C54   1.414303 A    
C12   H6    1.084167 S    
C27   C32   1.540523 S    
C49   C51   1.419059 A    
C29   C31   1.538028 S    
C28   C34   1.549799 S    
C61   H27   1.110661 S    
O10   V2    2.002049 S    
O1    V3    2.025127 S    
C48   C61   1.509442 S    
C60   H20   1.085038 S    
C37   H15   1.110445 S    
C27   C33   1.547271 S    
C64   H36   1.108885 S    
C13   H4    1.083781 S    
C57   C59   1.394323 A    
C46   C48   1.397285 A    
O18   V4    2.028190 S    
C42   H18   1.106213 S    
C36   C39   1.527410 S    
C45   C47   1.398395 A    
O8    C4    1.295979 A    
C64   H34   1.108054 S    
O16   C6    1.299525 A    
C12   C20   1.399766 A    
O1    C3    1.294998 A    
C35   C37   1.539713 S    
C51   C55   1.439660 A    
C55   C58   1.427615 A    
O6    V2    2.020128 S    
C57   N3    1.433397 S    
C58   C60   1.393434 A    
V2    O20   1.707348 S    
C21   C24   1.410107 A    
C20   C26   1.392956 A    
C22   C23   1.409700 A    
N4    O28   1.301730 A    
O16   V4    1.992367 S    
C10   C14   1.396553 A    
C29   H9    1.109639 S    
C38   C40   1.549011 S    
C16   C18   1.425747 A    
C38   C41   1.558026 S    
C62   H28   1.108714 S    
C37   C42   1.557982 S    
C24   H8    1.078464 S    
O5    V1    2.020128 S    
O17   C7    1.292749 A    
C15   C64   1.520434 S    
O10   C6    1.298500 A    
O18   C8    1.293103 A    
C30   C32   1.538953 S    
O2    V4    2.025129 S    
C12   C14   1.388875 A    
V3    O19   2.163116 S    
C44   C50   1.404040 A    
N1    O21   1.300477 A    
C27   H11   1.110051 S    
V4    O20   2.163115 S    
C50   C52   1.417772 A    
C51   C53   1.413746 A    
C14   H3    1.083791 S    
O9    C5    1.296486 A    
C62   H30   1.110559 S    
C35   C40   1.527419 S    
O14   V2    2.155332 S    
C35   N1    1.453303 S    
O2    C4    1.295113 A    
C6    C32   1.505306 S    
C8    C10   1.457860 S    
O4    V2    2.009598 S    
C50   H21   1.077704 S    
C45   H23   1.085340 S    
C15   C17   1.426018 A    
C32   C34   1.540959 S    
C56   C57   1.428498 A    
C3    C43   1.472197 S    
C64   H35   1.110485 S    
C17   C21   1.429892 A    
C10   C16   1.412489 A    
C34   H14   1.110456 S    
C37   C39   1.548985 S    
C53   C59   1.390091 A    
C1    C40   1.498404 S    
C63   H32   1.108009 S    
