data_mof_unit_10945.cif
_audit_creation_date              2012-12-10T17:07:01-0500
_audit_creation_method            fapswitch 2.2
_symmetry_space_group_name_H-M    P1
_symmetry_Int_Tables_number       1
_space_group_crystal_system       triclinic
_cell_length_a                    18.364873
_cell_length_b                    18.343688
_cell_length_c                    18.24013
_cell_angle_alpha                 120.162783
_cell_angle_beta                  120.109707
_cell_angle_gamma                 59.665396
_cell_volume                      4324.98026806

loop_
_atom_site_label
_atom_site_type_symbol
_atom_type_description
_atom_site_fract_x
_atom_site_fract_y
_atom_site_fract_z
_atom_type_partial_charge
C1    C     C_R   0.139903 0.862007 0.641856 0.981540
C2    C     C_R   0.524400 0.259135 0.577740 0.490092
C3    C     C_R   0.577841 0.204871 0.524009 0.472423
C4    C     C_R   0.856742 0.139471 0.359438 0.876735
C5    C     C_R   0.670182 0.183504 0.562403 0.427120
C6    C     C_R   0.658268 0.181900 0.281745 -0.050729
C7    C     C_R   0.565905 0.222717 0.265862 -0.125192
C8    C     C_R   0.516133 0.290415 0.228405 -0.047090
C9    C     C_R   0.557441 0.316704 0.204106 -0.135334
C10   C     C_R   0.651036 0.280095 0.223190 0.058791
C11   C     C_R   0.703985 0.216589 0.268749 0.046378
C12   C     C_R   0.838771 0.305757 0.945609 -0.160266
C13   C     C_R   0.799252 0.192846 0.300332 -0.073463
C14   C     C_R   0.839633 0.222728 0.276418 -0.041075
C15   C     C_R   0.785148 0.276838 0.222910 -0.277607
C16   C     C_R   0.140294 0.140470 0.637513 0.966989
C17   C     C_R   0.692669 0.305381 0.196958 -0.043015
C18   C     C_R   0.726196 0.865303 0.414811 0.639917
C19   C     C_R   0.693078 0.846215 0.454726 -0.161909
C20   C     C_R   0.690139 0.760368 0.423876 -0.164940
C21   C     C_R   0.713728 0.695584 0.346241 -0.101698
C22   C     C_R   0.725967 0.723540 0.294082 0.031006
C23   C     C_R   0.793995 0.280409 0.849239 -0.058173
C24   C     C_R   0.750358 0.800444 0.337879 -0.073388
C25   C     C_R   0.797976 0.808832 0.302763 -0.073476
C26   C     C_R   0.802279 0.752977 0.216411 -0.163184
C27   C     C_R   0.758855 0.689844 0.163428 -0.046615
C28   C     C_R   0.856274 0.863336 0.359573 0.873476
C29   C     C_R   0.714378 0.679119 0.200388 -0.096697
C30   C     C_R   0.139032 0.934123 0.826811 0.470150
C31   C     C_R   0.137706 0.966394 0.913348 0.575798
C32   C     C_R   0.196455 0.916105 0.969959 0.449160
C33   C     C_R   0.258100 0.831836 0.940940 -0.230748
C34   C     C_R   0.846658 0.231997 0.792406 -0.172709
C35   C     C_R   0.254109 0.792329 0.848509 -0.045377
C36   C     C_R   0.195332 0.846046 0.791916 -0.229083
C37   C     C_R   0.196154 0.810772 0.702860 -0.165259
C38   C     C_R   0.251521 0.724440 0.669213 0.627583
C39   C     C_R   0.305023 0.668389 0.720932 -0.213055
C40   C     C_R   0.139864 0.859025 0.359724 0.892246
C41   C     C_R   0.305378 0.701837 0.809905 -0.114548
C42   C     C_R   0.130554 0.680970 0.238678 -0.194135
C43   C     C_R   0.127125 0.594697 0.183503 -0.104184
C44   C     C_R   0.185509 0.536307 0.132440 -0.126189
C45   C     C_R   0.698923 0.302396 0.807397 0.006553
C46   C     C_R   0.246509 0.566141 0.138860 0.581367
C47   C     C_R   0.247217 0.655023 0.192003 -0.033647
C48   C     C_R   0.189878 0.712162 0.244124 -0.037701
C49   C     C_R   0.195625 0.798357 0.303148 -0.196252
C50   C     C_R   0.257251 0.826938 0.310498 0.705804
C51   C     C_R   0.311014 0.772582 0.257324 -0.294973
C52   C     C_R   0.861092 0.140142 0.640897 1.059479
C53   C     C_R   0.305214 0.688427 0.197087 -0.154391
C54   C     C_R   0.332370 0.080617 0.653789 0.739217
C55   C     C_R   0.425503 0.036490 0.684103 -0.197715
C56   C     C_R   0.657555 0.270928 0.712586 -0.203440
C57   C     C_R   0.475435 0.071705 0.775225 -0.208824
C58   C     C_R   0.433728 0.157062 0.829878 0.000597
C59   C     C_R   0.343979 0.207511 0.790490 0.012494
C60   C     C_R   0.290240 0.161068 0.711700 -0.172760
C61   C     C_R   0.196573 0.197683 0.694246 -0.233161
C62   C     C_R   0.158440 0.287262 0.743579 0.670018
C63   C     C_R   0.211371 0.341183 0.806381 -0.162864
C64   C     C_R   0.939748 0.218939 0.831668 0.522832
C65   C     C_R   0.305211 0.302354 0.825195 -0.168844
C66   C     C_R   0.646397 0.634024 0.140902 0.901309
C67   C     C_R   0.711855 0.216259 0.657420 -0.221221
C68   C     C_R   0.360229 0.359779 0.867331 0.907650
C69   C     C_R   0.640660 0.360362 0.140181 0.817078
C70   C     C_R   0.360154 0.640679 0.860823 0.823452
C71   C     C_R   0.360225 0.638489 0.140228 0.931105
C72   C     C_R   0.641267 0.359933 0.861660 0.938336
C73   C     C_R   0.980314 0.249801 0.923925 0.716283
C74   C     C_R   0.931959 0.291131 0.982220 -0.266579
C75   C     C_2   0.698025 0.095041 0.295253 0.393279
C76   C     C_2   0.661007 0.740587 0.472640 0.485166
C77   C     C_2   0.744766 0.598192 0.331805 0.512804
C78   C     C_R   0.805592 0.197317 0.697878 -0.009299
C79   C     C_2   0.768511 0.630439 0.073468 0.481533
C80   C     C_2   0.329301 0.794118 0.012978 0.557201
C81   C     C_2   0.358559 0.573666 0.680639 0.559973
C82   C     C_2   0.063787 0.568560 0.185618 0.452488
C83   C     C_2   0.181153 0.445629 0.069410 0.562513
C84   C     C_2   0.468826 0.950500 0.622532 0.529805
C85   C     C_2   0.570717 0.019575 0.812216 0.382594
C86   C     C_2   0.479636 0.188294 0.929072 0.564484
C87   C     C_2   0.168303 0.435382 0.857132 0.548483
C88   C     C_2   0.980185 0.315764 0.081534 0.628449
C89   C     C_R   0.562615 0.292280 0.670638 0.399659
C90   C     C_2   0.792385 0.340286 0.009579 0.320703
C91   C     C_2   0.938161 0.199014 0.303792 0.462361
F1    F     F_    0.539852 0.173019 0.433472 -0.565600
F2    F     F_    0.306249 0.506985 0.094396 -0.676926
F3    F     F_    0.069666 0.322189 0.732231 -0.580665
F4    F     F_    0.283955 0.049320 0.565998 -0.566684
F5    F     F_    0.504756 0.345244 0.717669 -0.641987
F6    F     F_    0.434290 0.280146 0.539510 -0.530186
F7    F     F_    0.717327 0.131251 0.504834 -0.654137
F8    F     F_    0.726414 0.949882 0.446821 -0.610933
F9    F     F_    0.994093 0.177138 0.781958 -0.605614
F10   F     F_    0.249106 0.693706 0.583065 -0.620573
F11   F     F_    0.085373 0.991200 0.779077 -0.602105
F12   F     F_    0.081491 0.049627 0.944250 -0.570199
F13   F     F_    0.197203 0.952593 0.056107 -0.584041
F14   F     F_    0.263136 0.909251 0.367323 -0.557150
F15   F     F_    0.069431 0.235287 0.956113 -0.528947
H1    H     H_    0.531116 0.198215 0.277434 0.208159
H2    H     H_    0.639800 0.683193 0.441365 0.055754
H3    H     H_    0.729295 0.575121 0.364789 0.034833
H4    H     H_    0.759256 0.566070 0.041378 0.123467
H5    H     H_    0.311624 0.787692 0.057509 0.065965
H6    H     H_    0.388171 0.524569 0.713090 0.077985
H7    H     H_    0.006209 0.620157 0.205838 0.060324
H8    H     H_    0.119090 0.432374 0.038731 0.128581
H9    H     H_    0.538111 0.910751 0.647353 0.077318
H10   H     H_    0.617076 0.994430 0.777915 0.086763
H11   H     H_    0.551982 0.167114 0.957409 0.096131
H12   H     H_    0.444444 0.319770 0.214232 0.203986
H13   H     H_    0.205331 0.467637 0.925106 0.117125
H14   H     H_    0.946692 0.339788 0.128234 0.080029
H15   H     H_    0.767526 0.297450 0.009055 0.094032
H16   H     H_    0.963033 0.228303 0.285834 0.095103
H17   H     H_    0.515503 0.366879 0.171352 0.170251
H18   H     H_    0.814911 0.298288 0.201911 0.148704
H19   H     H_    0.841417 0.757356 0.190761 0.201160
H20   H     H_    0.672612 0.898071 0.512079 0.209619
H21   H     H_    0.087514 0.722772 0.279454 0.136421
H22   H     H_    0.356476 0.797018 0.261865 0.191998
H23   H     H_    0.690054 0.089904 0.347137 0.170750
O1    O     O_3   0.000000 0.000000 0.500000 -0.552742
O2    O     O_R   0.323460 0.615830 0.884170 -0.653201
O3    O     O_R   0.444880 0.615840 0.176480 -0.650107
O4    O     O_R   0.055060 0.884200 0.615800 -0.613472
O5    O     O_R   0.615800 0.444940 0.884180 -0.613127
O6    O     O_R   0.323440 0.615840 0.055040 -0.620533
O7    O     O_R   0.615780 0.323500 0.884180 -0.641962
O8    O     O_R   0.615760 0.323500 0.055050 -0.660765
O9    O     O_R   0.444910 0.615830 0.884180 -0.599398
O10   O     O_R   0.615780 0.615830 0.176490 -0.641080
O11   O     O_R   0.323430 0.444950 0.884170 -0.647484
O12   O     O_R   0.055100 0.176520 0.615800 -0.559813
O13   O     O_R   0.884210 0.176520 0.444920 -0.629771
O14   O     O_R   0.176540 0.055080 0.615800 -0.603387
O15   O     O_R   0.884190 0.884200 0.323480 -0.641113
O16   O     O_R   0.176540 0.884190 0.444930 -0.574326
O17   O     O_R   0.884180 0.055090 0.615790 -0.569824
O18   O     O_R   0.055100 0.884190 0.323490 -0.648587
O19   O     O_R   0.884190 0.176530 0.615790 -0.602848
O20   O     O_2   0.731309 0.026784 0.241837 -0.497273
O21   O     O_2   0.658779 0.789518 0.548440 -0.556915
O22   O     O_2   0.791422 0.542060 0.284644 -0.547349
O23   O     O_R   0.884180 0.884200 0.444920 -0.605172
O24   O     O_2   0.789027 0.651922 0.034767 -0.535888
O25   O     O_2   0.407896 0.776420 0.027334 -0.564297
O26   O     O_2   0.370709 0.548852 0.610529 -0.438670
O27   O     O_2   0.076857 0.490673 0.169592 -0.516350
O28   O     O_2   0.246686 0.384544 0.050321 -0.481560
O29   O     O_2   0.427808 0.922342 0.542714 -0.423347
O30   O     O_2   0.597423 0.001857 0.879553 -0.513963
O31   O     O_2   0.436502 0.238073 0.980395 -0.543930
O32   O     O_2   0.090792 0.477970 0.823870 -0.486806
O33   O     O_2   0.058834 0.309143 0.113190 -0.412794
O34   O     O_R   0.176510 0.884190 0.615800 -0.618787
O35   O     O_2   0.781355 0.416770 0.062605 -0.604886
O36   O     O_2   0.992734 0.146881 0.345265 -0.541837
O37   O     O_R   0.884210 0.055080 0.323480 -0.572245
O38   O     O_3   0.499970 0.500030 0.999970 -0.502606
O39   O     O_R   0.615800 0.615830 0.055050 -0.629104
O40   O     O_R   0.444880 0.323510 0.884180 -0.643079
O41   O     O_R   0.615760 0.444950 0.176490 -0.634995
Zn1   Zn    Zn3+2 0.956630 0.130130 0.543370 1.145735
Zn2   Zn    Zn3+2 0.130140 0.956620 0.543380 1.126592
Zn3   Zn    Zn3+2 0.956630 0.956620 0.369870 1.065059
Zn4   Zn    Zn3+2 0.956610 0.956630 0.543370 1.110793
Zn5   Zn    Zn3+2 0.543340 0.369890 0.956600 1.035344
Zn6   Zn    Zn3+2 0.543340 0.543410 0.130100 1.028926
Zn7   Zn    Zn3+2 0.369830 0.543410 0.956590 1.047998
Zn8   Zn    Zn3+2 0.543370 0.543400 0.956600 1.092570

loop_
_geom_bond_atom_site_label_1
_geom_bond_atom_site_label_2
_ccdc_geom_bond_type
C63   C65   A    
C17   C69   S    
C42   C43   A    
C23   C45   A    
C22   C29   A    
C12   C74   A    
C27   C29   A    
C73   C74   A    
C35   C36   A    
C5    C67   A    
C44   C83   S    
C77   O22   D    
O2    Zn7   S    
C8    H12   S    
C7    C8    A    
C39   C41   A    
C54   C60   A    
O1    Zn4   S    
C25   C28   S    
C12   C23   A    
C26   C27   A    
C62   C63   A    
C40   O16   A    
C18   C24   A    
C51   H22   S    
C12   C90   S    
C36   C37   A    
O14   Zn2   S    
O8    Zn5   S    
C38   F10   S    
C27   C79   S    
C80   O25   D    
C71   O6    A    
C30   C31   A    
C1    O4    A    
C5    F7    S    
C72   O7    A    
C10   C17   A    
C40   C49   S    
O12   Zn1   S    
O19   Zn1   S    
C20   C76   S    
C18   C19   A    
O3    Zn6   S    
C4    C13   S    
C9    H17   S    
C71   O3    A    
C46   C47   A    
C66   O10   A    
C19   C20   A    
C2    F6    S    
O1    Zn2   S    
C8    C9    A    
C91   H16   S    
O15   Zn3   S    
C50   F14   S    
C64   C73   A    
C32   F13   S    
C28   O15   A    
C88   H14   S    
C9    C10   A    
C45   C56   A    
C1    C37   S    
C47   C53   A    
C82   O27   D    
C23   C34   A    
O16   Zn2   S    
C59   C60   A    
C76   H2    S    
C13   C14   A    
C45   C72   S    
C83   H8    S    
O10   Zn6   S    
C67   C78   A    
C52   C78   S    
C58   C86   S    
C44   C46   A    
C50   C51   A    
C85   H10   S    
O1    Zn3   S    
C69   O8    A    
C14   C91   S    
C15   H18   S    
C57   C85   S    
C6    C75   S    
C16   O14   A    
C24   C25   A    
C39   C81   S    
C6    C11   A    
C84   O29   D    
O41   Zn6   S    
C25   C26   A    
C90   O35   D    
C60   C61   A    
C51   C53   A    
C26   H19   S    
C31   F12   S    
C2    C89   A    
C43   C44   A    
C87   H13   S    
C37   C38   A    
C79   O24   D    
C68   O40   A    
C72   O5    A    
C47   C48   A    
C83   O28   D    
C81   H6    S    
C76   O21   D    
O1    Zn1   S    
C65   C68   S    
C30   F11   S    
C34   C64   A    
O11   Zn7   S    
O40   Zn5   S    
C42   C48   A    
O5    Zn8   S    
C77   H3    S    
O34   Zn2   S    
O6    Zn7   S    
C54   F4    S    
C42   H21   S    
C48   C49   A    
O38   Zn7   S    
C28   O23   A    
C84   H9    S    
C62   F3    S    
C90   H15   S    
C7    H1    S    
C68   O11   A    
C16   C61   S    
C53   C71   S    
O38   Zn5   S    
O4    Zn4   S    
C15   C17   A    
C54   C55   A    
C56   C89   A    
O37   Zn3   S    
C52   O17   A    
O13   Zn1   S    
C40   O18   A    
C63   C87   S    
C91   O36   D    
C31   C32   A    
C82   H7    S    
C73   F15   S    
C3    C5    A    
O18   Zn3   S    
C33   C80   S    
C70   O9    A    
C6    C7    A    
C30   C36   A    
C56   C67   A    
C19   H20   S    
C81   O26   D    
C66   O39   A    
C32   C33   A    
C89   F5    S    
C55   C57   A    
C2    C3    A    
C58   C59   A    
O23   Zn4   S    
C87   O32   D    
C34   C78   A    
C4    O13   A    
C11   C13   A    
C57   C58   A    
C38   C39   A    
C46   F2    S    
C75   O20   D    
C88   O33   D    
O17   Zn4   S    
C80   H5    S    
C70   O2    A    
C33   C35   A    
C4    O37   A    
C16   O12   A    
C86   H11   S    
C22   C24   A    
C69   O41   A    
C61   C62   A    
C35   C41   A    
C79   H4    S    
O7    Zn5   S    
C10   C11   A    
C29   C66   S    
C64   F9    S    
O38   Zn8   S    
C20   C21   A    
C1    O34   A    
C52   O19   A    
C49   C50   A    
C18   F8    S    
C21   C77   S    
C43   C82   S    
C14   C15   A    
O38   Zn6   S    
C85   O30   D    
C74   C88   S    
C55   C84   S    
C21   C22   A    
C3    F1    S    
C86   O31   D    
O39   Zn8   S    
C59   C65   A    
C75   H23   S    
C41   C70   S    
O9    Zn8   S    
