data_mof_unit_9375.cif
_audit_creation_date              2012-12-10T21:20:05-0500
_audit_creation_method            fapswitch 2.2
_symmetry_space_group_name_H-M    P1
_symmetry_Int_Tables_number       1
_space_group_crystal_system       triclinic
_cell_length_a                    16.686088
_cell_length_b                    15.923576
_cell_length_c                    17.503266
_cell_angle_alpha                 90.208562
_cell_angle_beta                  90.07803
_cell_angle_gamma                 88.413581
_cell_volume                      4648.83904474

loop_
_atom_site_label
_atom_site_type_symbol
_atom_type_description
_atom_site_fract_x
_atom_site_fract_y
_atom_site_fract_z
_atom_type_partial_charge
C1    C     C_R   0.500093 0.501107 0.352927 0.876326
C2    C     C_R   0.499897 0.501198 0.647073 0.868384
C3    C     C_R   0.566978 0.547029 0.846320 -0.187490
C4    C     C_R   0.429370 0.520829 0.151040 -0.178097
C5    C     C_R   0.569392 0.531090 0.768508 -0.214359
C6    C     C_R   0.428910 0.507642 0.229170 -0.214874
C7    C     C_R   0.498875 0.511776 0.729520 -0.052339
C8    C     C_R   0.500683 0.510301 0.270407 -0.050664
C9    C     C_R   0.425926 0.508437 0.768925 -0.259850
C10   C     C_R   0.573013 0.526149 0.232928 -0.255787
C11   C     C_R   0.422803 0.524455 0.847139 0.031017
C12   C     C_R   0.574251 0.538978 0.154242 0.030423
C13   C     C_R   0.494292 0.543805 0.885375 0.108144
C14   C     C_R   0.501263 0.536673 0.113871 0.108416
C15   C     C_1   0.496511 0.548416 0.965946 -0.061357
C16   C     C_1   0.498692 0.546151 0.033697 -0.058310
C17   C     C_R   0.831646 0.474997 0.431346 -0.137896
C18   C     C_R   0.168230 0.484872 0.568560 -0.137285
C19   C     C_R   0.747007 0.479866 0.434231 -0.031089
C20   C     C_R   0.252779 0.485014 0.566172 -0.018637
C21   C     C_R   0.748956 0.513265 0.565807 -0.089113
C22   C     C_R   0.251324 0.517042 0.434537 -0.104396
C23   C     C_R   0.508652 0.343256 0.499018 0.878637
C24   C     C_R   0.491159 0.656637 0.497182 0.881443
C25   C     C_R   0.833675 0.510535 0.566574 0.401471
C26   C     C_R   0.166504 0.515266 0.432546 0.400942
C27   C     C_R   0.875780 0.492855 0.498454 -0.020765
C28   C     C_R   0.124326 0.499457 0.500360 -0.016829
C29   C     C_1   0.963543 0.495801 0.498324 0.006157
C30   C     C_1   0.036476 0.498287 0.498942 0.017578
C31   C     C_R   0.509672 0.251945 0.479798 -0.222496
C32   C     C_R   0.488987 0.746668 0.473451 -0.216990
C33   C     C_R   0.439538 0.215737 0.449277 -0.002278
C34   C     C_R   0.556724 0.780481 0.436560 -0.021774
C35   C     C_R   0.446749 0.144776 0.402936 -0.370133
C36   C     C_R   0.547854 0.852321 0.391995 -0.348938
C37   C     C_R   0.520129 0.102390 0.392223 -0.085207
C38   C     C_R   0.475367 0.897692 0.387884 -0.051217
C39   C     C_R   0.587165 0.128243 0.435100 0.480654
C40   C     C_R   0.410159 0.871434 0.432682 0.494923
C41   C     C_R   0.583293 0.204880 0.476171 -0.133487
C42   C     C_R   0.415400 0.794310 0.472551 -0.143703
C43   C     C_2   0.526441 0.029881 0.337582 0.310737
C44   C     C_2   0.468060 0.972196 0.336633 0.396635
H1    H     H_    0.712713 0.464662 0.383909 0.140251
H2    H     H_    0.286602 0.472518 0.617755 0.136267
H3    H     H_    0.716711 0.523993 0.618564 0.129980
H4    H     H_    0.284097 0.532910 0.383739 0.135490
H5    H     H_    0.599055 0.871870 0.359684 0.218653
H6    H     H_    0.393453 0.122775 0.375491 0.209490
H7    H     H_    0.622108 0.560178 0.876408 0.146863
H8    H     H_    0.373720 0.518231 0.119271 0.157313
H9    H     H_    0.626174 0.534458 0.738935 0.147125
H10   H     H_    0.372604 0.495661 0.257260 0.154538
H11   H     H_    0.371092 0.494231 0.738826 0.149393
H12   H     H_    0.628698 0.528545 0.264763 0.149122
N1    N     N_R   0.707230 0.500020 0.500030 -0.093712
N2    N     N_R   0.292770 0.499980 0.499970 -0.094446
O1    O     O_R   0.566570 0.500000 0.389130 -0.627798
O2    O     O_R   0.433430 0.500000 0.610870 -0.625853
O3    O     O_R   0.433480 0.499990 0.389100 -0.625870
O4    O     O_R   0.566520 0.500010 0.610900 -0.622729
O5    O     O_R   0.574410 0.384200 0.500000 -0.582861
O6    O     O_R   0.425590 0.615800 0.500000 -0.583597
O7    O     O_R   0.441320 0.384200 0.499980 -0.591206
O8    O     O_R   0.558680 0.615800 0.500020 -0.592691
Zn1   Zn    Zn3+2 0.588860 0.500000 0.500020 0.951183
Zn2   Zn    Zn3+2 0.411140 0.500000 0.499980 0.950670
C45   C     C_R   0.356821 0.248474 0.464248 0.187420
C46   C     C_R   0.304146 0.266504 0.403273 -0.162710
C47   C     C_R   0.223684 0.287546 0.417476 -0.157235
C48   C     C_R   0.195242 0.291138 0.492403 -0.102980
C49   C     C_R   0.247448 0.275043 0.553449 -0.160655
C50   C     C_R   0.327973 0.253653 0.539547 -0.129987
H13   H     H_    0.325084 0.262682 0.344780 0.118362
H14   H     H_    0.183059 0.299928 0.370362 0.115127
H15   H     H_    0.132727 0.306568 0.503019 0.116628
H16   H     H_    0.225303 0.278294 0.611507 0.131440
H17   H     H_    0.367382 0.239227 0.587218 0.110722
C51   C     C_R   0.638840 0.743321 0.440837 0.194383
C52   C     C_R   0.677541 0.713812 0.374328 -0.154766
C53   C     C_R   0.758723 0.689950 0.376417 -0.151807
C54   C     C_R   0.801655 0.695212 0.444761 -0.092951
C55   C     C_R   0.763253 0.723858 0.511193 -0.179598
C56   C     C_R   0.682003 0.747389 0.509491 -0.137407
H18   H     H_    0.645253 0.711432 0.320699 0.118919
H19   H     H_    0.788744 0.669163 0.324732 0.124668
H20   H     H_    0.864751 0.677635 0.446076 0.129696
H21   H     H_    0.796718 0.729595 0.563669 0.131755
H22   H     H_    0.653296 0.771098 0.560957 0.117874
C57   C     C_R   0.871186 0.446903 0.359015 0.149405
C58   C     C_R   0.931711 0.383449 0.359548 -0.120664
C59   C     C_R   0.966009 0.354548 0.291222 -0.166762
C60   C     C_R   0.940458 0.388486 0.221610 -0.131394
C61   C     C_R   0.879979 0.450817 0.220173 -0.124691
C62   C     C_R   0.845147 0.479639 0.288315 -0.161818
H23   H     H_    0.951708 0.355118 0.412577 0.110056
H24   H     H_    0.012549 0.305839 0.292290 0.122846
H25   H     H_    0.967269 0.366212 0.168767 0.121635
H26   H     H_    0.859722 0.476423 0.166158 0.151282
H27   H     H_    0.797680 0.527177 0.285665 0.114982
C63   C     C_R   0.127808 0.472748 0.643121 0.113373
C64   C     C_R   0.069155 0.411752 0.652033 -0.115259
C65   C     C_R   0.028910 0.404022 0.721552 -0.082782
C66   C     C_R   0.046943 0.456766 0.782788 -0.130856
C67   C     C_R   0.105911 0.516657 0.774854 -0.128966
C68   C     C_R   0.146959 0.523931 0.705797 -0.190780
H28   H     H_    0.054193 0.370401 0.605279 0.109033
H29   H     H_    0.983360 0.357450 0.727767 0.121506
H30   H     H_    0.015334 0.451168 0.836402 0.114244
H31   H     H_    0.119615 0.557834 0.822090 0.147797
H32   H     H_    0.192460 0.570689 0.700833 0.127649
O9    O     O_3   0.875183 0.511725 0.635203 -0.654484
C69   C     C_3   0.872113 0.592921 0.668132 0.078282
H33   H     H_    0.879013 0.585117 0.730869 0.169263
H34   H     H_    0.813641 0.626975 0.659391 0.101800
C70   C     C_3   0.941744 0.644743 0.638892 -0.341028
H35   H     H_    0.999030 0.608689 0.646967 0.248752
H36   H     H_    0.933908 0.657143 0.576918 0.204260
C71   C     C_3   0.946629 0.728332 0.681210 -0.982511
H37   H     H_    0.890136 0.765963 0.673777 0.262566
H38   H     H_    0.997046 0.764441 0.657973 0.267026
H39   H     H_    0.957425 0.717429 0.743068 0.265257
O10   O     O_3   0.123365 0.537718 0.367526 -0.645994
C72   C     C_3   0.148708 0.490806 0.302627 0.072406
H40   H     H_    0.095585 0.459203 0.279239 0.183069
H41   H     H_    0.194525 0.440138 0.314423 0.106471
C73   C     C_3   0.179826 0.550271 0.241856 -0.340229
H42   H     H_    0.133090 0.599361 0.229123 0.235770
H43   H     H_    0.233908 0.581859 0.263480 0.208588
C74   C     C_3   0.200979 0.503006 0.168410 -0.992078
H44   H     H_    0.246769 0.452611 0.179695 0.263244
H45   H     H_    0.225618 0.547539 0.126601 0.270637
H46   H     H_    0.146663 0.474711 0.143537 0.263298
C75   C     C_R   0.342406 0.764332 0.511575 0.179419
C76   C     C_R   0.271808 0.751461 0.469663 -0.068660
C77   C     C_R   0.203050 0.723683 0.506228 -0.157286
C78   C     C_R   0.204191 0.708292 0.584717 -0.131150
C79   C     C_R   0.274347 0.719924 0.626741 -0.136672
C80   C     C_R   0.343283 0.747790 0.590440 -0.158824
H47   H     H_    0.270203 0.762564 0.408664 0.141967
H48   H     H_    0.148893 0.713873 0.473666 0.151274
H49   H     H_    0.150701 0.687144 0.612823 0.134831
H50   H     H_    0.275285 0.707553 0.687500 0.125730
H51   H     H_    0.397175 0.756914 0.623660 0.107308
C81   C     C_R   0.656556 0.234310 0.515510 0.176602
C82   C     C_R   0.728184 0.244183 0.474708 -0.074467
C83   C     C_R   0.796596 0.272387 0.511943 -0.169511
C84   C     C_R   0.793970 0.291972 0.589765 -0.113036
C85   C     C_R   0.722950 0.282875 0.630708 -0.128042
C86   C     C_R   0.654561 0.253836 0.593956 -0.163862
H52   H     H_    0.730892 0.230608 0.414072 0.140404
H53   H     H_    0.851606 0.279337 0.480393 0.129250
H54   H     H_    0.846916 0.314409 0.618263 0.142688
H55   H     H_    0.720899 0.298247 0.690966 0.128033
H56   H     H_    0.599977 0.246751 0.626440 0.105403
O11   O     O_3   0.392143 0.994017 0.309320 -0.641806
C87   C     C_3   0.394452 0.007988 0.229420 0.086958
H57   H     H_    0.342067 0.976691 0.203844 0.173632
H58   H     H_    0.448630 0.979773 0.200652 0.118748
C88   C     C_3   0.387012 0.102167 0.212260 -0.386786
H59   H     H_    0.331582 0.128817 0.239192 0.229728
H60   H     H_    0.439218 0.134897 0.236434 0.210709
C89   C     C_3   0.383739 0.118419 0.126467 -0.963535
H61   H     H_    0.439395 0.093731 0.098617 0.260398
H62   H     H_    0.378284 0.187085 0.116022 0.267697
H63   H     H_    0.331086 0.087813 0.100697 0.264363
O12   O     O_3   0.600884 0.006762 0.308242 -0.660229
C90   C     C_3   0.622967 0.066543 0.253341 0.122185
H64   H     H_    0.623967 0.131017 0.278245 0.150464
H65   H     H_    0.580353 0.066170 0.204266 0.120626
C91   C     C_3   0.706971 0.043612 0.224149 -0.305444
H66   H     H_    0.749693 0.042301 0.272965 0.241937
H67   H     H_    0.706948 0.980009 0.197745 0.215629
C92   C     C_3   0.734827 0.106833 0.165198 -0.990140
H68   H     H_    0.693481 0.108467 0.115394 0.264128
H69   H     H_    0.795832 0.088234 0.144968 0.267338
H70   H     H_    0.737014 0.170589 0.190990 0.268748
O13   O     O_3   0.658553 0.081612 0.433642 -0.640244
C93   C     C_3   0.653323 0.010880 0.482119 0.130654
H71   H     H_    0.689934 0.959025 0.455959 0.187319
H72   H     H_    0.591323 0.987248 0.488172 0.113436
C94   C     C_3   0.687398 0.030435 0.561255 -0.371075
H73   H     H_    0.746868 0.059484 0.555221 0.245348
H74   H     H_    0.646219 0.075435 0.591239 0.213034
C95   C     C_3   0.696648 0.951232 0.609564 -0.980990
H75   H     H_    0.637892 0.920875 0.615935 0.259820
H76   H     H_    0.719238 0.967945 0.667185 0.269094
H77   H     H_    0.740263 0.906323 0.582609 0.269119
O14   O     O_3   0.338835 0.918174 0.434432 -0.620776
C96   C     C_3   0.345543 0.987197 0.485185 0.121502
H78   H     H_    0.309084 0.040198 0.461062 0.190765
H79   H     H_    0.407942 0.009652 0.491624 0.109301
C97   C     C_3   0.312317 0.965939 0.564015 -0.374392
H80   H     H_    0.253164 0.936193 0.557732 0.248413
H81   H     H_    0.354375 0.921188 0.592956 0.210940
C98   C     C_3   0.302603 0.044348 0.613839 -0.968936
H82   H     H_    0.360966 0.075578 0.620241 0.260362
H83   H     H_    0.280967 0.026499 0.671335 0.266109
H84   H     H_    0.258096 0.088983 0.588020 0.274100
C99   C     C_R   0.344944 0.519017 0.887410 0.110333
C100  C     C_R   0.300103 0.445801 0.881709 -0.154268
C101  C     C_R   0.226615 0.440693 0.919430 -0.120372
C102  C     C_R   0.196865 0.508888 0.962216 -0.137065
C103  C     C_R   0.240585 0.582298 0.967394 -0.166351
C104  C     C_R   0.314462 0.587393 0.930390 -0.149199
H85   H     H_    0.322360 0.392513 0.848610 0.123223
H86   H     H_    0.192447 0.384081 0.915050 0.127166
H87   H     H_    0.139672 0.505065 0.990900 0.124445
H88   H     H_    0.217222 0.635285 0.000143 0.130922
H89   H     H_    0.347525 0.644804 0.934638 0.127609
C105  C     C_R   0.651910 0.554900 0.116303 0.118124
C106  C     C_R   0.699898 0.620406 0.142192 -0.173540
C107  C     C_R   0.773109 0.635632 0.106796 -0.142341
C108  C     C_R   0.799174 0.585480 0.045529 -0.130745
C109  C     C_R   0.752416 0.519502 0.020044 -0.162635
C110  C     C_R   0.679280 0.503885 0.055445 -0.143949
H90   H     H_    0.680291 0.660128 0.189272 0.119792
H91   H     H_    0.809616 0.686354 0.126862 0.129162
H92   H     H_    0.855863 0.597345 0.018181 0.120881
H93   H     H_    0.772973 0.480246 0.973005 0.126061
H94   H     H_    0.644287 0.451804 0.035671 0.129904

loop_
_geom_bond_atom_site_label_1
_geom_bond_atom_site_label_2
_ccdc_geom_bond_type
C97   H81   S    
C77   H48   S    
O14   C96   S    
C27   C29   S    
C1    C8    S    
C49   C50   A    
C22   H4    S    
C61   C62   A    
C17   C57   S    
C85   H55   S    
C101  C102  A    
C74   H46   S    
C73   H42   S    
C24   C32   S    
C69   H33   S    
C75   C76   A    
C39   C41   A    
C106  C107  A    
C19   N1    A    
C38   C44   S    
C97   H80   S    
C89   H62   S    
C76   H47   S    
O4    Zn1   S    
C4    H8    S    
O6    Zn2   S    
C5    H9    S    
C89   H61   S    
C35   C37   A    
C66   H30   S    
C6    H10   S    
C81   C82   A    
C107  H91   S    
C70   H36   S    
C18   C63   S    
C65   H29   S    
C2    O2    A    
C97   C98   S    
C67   C68   A    
C98   H82   S    
C73   H43   S    
C53   H19   S    
C105  C106  A    
C11   C99   S    
C98   H83   S    
C109  H93   S    
C21   C25   A    
C82   C83   A    
C34   C51   S    
C57   C62   A    
C104  H89   S    
O11   C87   S    
C41   C81   S    
C2    C7    S    
C91   H67   S    
C28   C30   S    
C102  H87   S    
C72   C73   S    
C99   C104  A    
C31   C33   A    
C64   H28   S    
C9    H11   S    
C29   C30   T    
C10   H12   S    
C18   C20   A    
C52   H18   S    
C87   C88   S    
C93   C94   S    
C24   O8    A    
O1    Zn1   S    
C23   O5    A    
C54   H20   S    
C24   O6    A    
C62   H27   S    
C87   H58   S    
C44   O11   S    
C90   H65   S    
C68   H32   S    
C45   C46   A    
C26   O10   S    
N1    Zn1   S    
C50   H17   S    
C65   C66   A    
C88   H60   S    
C71   H38   S    
C58   H23   S    
C52   C53   A    
C92   H70   S    
C67   H31   S    
C75   C80   A    
C56   H22   S    
O5    Zn1   S    
C100  C101  A    
C70   H35   S    
C96   H78   S    
C17   C27   A    
C90   H64   S    
C45   C50   A    
C18   C28   A    
C55   C56   A    
C12   C105  S    
C92   H69   S    
C94   C95   S    
C57   C58   A    
C5    C7    A    
C3    H7    S    
C61   H26   S    
C51   C52   A    
C6    C8    A    
C3    C5    A    
C43   O12   S    
C81   C86   A    
C1    O3    A    
C42   C75   S    
C23   C31   S    
C37   C43   S    
C98   H84   S    
C84   H54   S    
C96   H79   S    
C94   H73   S    
C21   N1    A    
C51   C56   A    
C25   O9    S    
C94   H74   S    
C79   H50   S    
C105  C110  A    
C39   O13   S    
C54   C55   A    
C49   H16   S    
O7    Zn2   S    
C35   H6    S    
C19   H1    S    
C63   C68   A    
C59   C60   A    
C31   C41   A    
C86   H56   S    
C109  C110  A    
C9    C11   A    
C46   C47   A    
C10   C12   A    
C4    C6    A    
O12   C90   S    
C12   C14   A    
C60   C61   A    
C100  H85   S    
C13   C15   S    
C43   C44   D    
C87   H57   S    
C90   C91   S    
C14   C16   S    
C70   C71   S    
C55   H21   S    
C20   N2    A    
C74   H44   S    
C73   C74   S    
C47   H14   S    
C46   H13   S    
C88   C89   S    
C91   H66   S    
C91   C92   S    
O9    C69   S    
C66   C67   A    
N2    Zn2   S    
C110  H94   S    
C7    C9    A    
C103  C104  A    
C93   H72   S    
C107  C108  A    
C89   H63   S    
C48   C49   A    
C74   H45   S    
C3    C13   A    
C80   H51   S    
C22   N2    A    
C48   H15   S    
C69   H34   S    
C79   C80   A    
C71   H39   S    
C33   C45   S    
C25   C27   A    
C77   C78   A    
C26   C28   A    
C85   C86   A    
C99   C100  A    
C78   H49   S    
C106  H90   S    
C23   O7    A    
C95   H77   S    
C1    O1    A    
C82   H52   S    
C95   H75   S    
C96   C97   S    
C47   C48   A    
C37   C39   A    
C92   H68   S    
C88   H59   S    
C108  H92   S    
C36   H5    S    
C36   C38   A    
C38   C40   A    
C11   C13   A    
O3    Zn2   S    
C72   H40   S    
C60   H25   S    
C15   C16   T    
C40   C42   A    
C58   C59   A    
C33   C35   A    
O8    Zn1   S    
C101  H86   S    
C34   C36   A    
C83   C84   A    
C108  C109  A    
C4    C14   A    
C63   C64   A    
C69   C70   S    
C78   C79   A    
C103  H88   S    
O13   C93   S    
C17   C19   A    
C40   O14   S    
C102  C103  A    
O2    Zn2   S    
C8    C10   A    
C53   C54   A    
C22   C26   A    
C64   C65   A    
C72   H41   S    
C32   C42   A    
C71   H37   S    
C76   C77   A    
C83   H53   S    
C84   C85   A    
C95   H76   S    
C59   H24   S    
C20   H2    S    
C93   H71   S    
C2    O4    A    
C32   C34   A    
O10   C72   S    
C21   H3    S    
