data_mof_unit_12845.cif
_audit_creation_date              2012-12-10T18:05:40-0500
_audit_creation_method            fapswitch 2.2
_symmetry_space_group_name_H-M    P1
_symmetry_Int_Tables_number       1
_space_group_crystal_system       triclinic
_cell_length_a                    10.888553
_cell_length_b                    10.82315
_cell_length_c                    9.547085
_cell_angle_alpha                 90.024636
_cell_angle_beta                  91.1203
_cell_angle_gamma                 90.281597
_cell_volume                      1124.8802878

loop_
_atom_site_label
_atom_site_type_symbol
_atom_type_description
_atom_site_fract_x
_atom_site_fract_y
_atom_site_fract_z
_atom_type_partial_charge
C1    C     C_R   0.500280 0.262176 0.499951 0.804546
C2    C     C_R   0.500229 0.737821 0.500064 0.823181
C3    C     C_R   0.871718 0.500625 0.504772 -0.059525
C4    C     C_R   0.128183 0.498965 0.495420 -0.050073
C5    C     C_R   0.941797 0.477717 0.628045 0.071201
C6    C     C_R   0.058019 0.521312 0.372114 0.068829
C7    C     C_R   0.494745 0.063763 0.372751 -0.153756
C8    C     C_R   0.507396 0.936210 0.627268 -0.152512
C9    C     C_R   0.494503 0.935995 0.372802 -0.160652
C10   C     C_R   0.507444 0.063996 0.627224 -0.170716
C11   C     C_R   0.500700 0.871711 0.500063 -0.021583
C12   C     C_R   0.500834 0.128278 0.499967 -0.011701
C13   C     C_R   0.467846 0.396464 0.073303 -0.020887
C14   C     C_R   0.532299 0.603529 0.926639 -0.013420
C15   C     C_R   0.467849 0.396491 0.925038 -0.029660
C16   C     C_R   0.531998 0.603575 0.074936 -0.035041
C17   C     C_R   0.262181 0.499930 0.498320 0.831130
C18   C     C_R   0.737786 0.499868 0.501716 0.841987
C19   C     C_R   0.187667 0.687044 0.061074 -0.045303
C20   C     C_R   0.811780 0.305334 0.934349 -0.050342
C21   C     C_R   0.139731 0.663537 0.192901 -0.176241
C22   C     C_R   0.861132 0.331641 0.803881 -0.188993
C23   C     C_R   0.111705 0.542137 0.233348 -0.007103
C24   C     C_R   0.887819 0.454075 0.766203 -0.017607
C25   C     C_R   0.131175 0.443248 0.139592 0.435763
C26   C     C_R   0.865769 0.551105 0.861704 0.492564
C27   C     C_R   0.178815 0.468645 0.007317 -0.253809
C28   C     C_R   0.817098 0.522805 0.992695 -0.247986
C29   C     C_R   0.207035 0.589785 0.968432 -0.136879
C30   C     C_R   0.789850 0.400797 0.028574 -0.135154
C31   C     C_R   0.931168 0.523702 0.379094 -0.157375
C32   C     C_R   0.068713 0.475569 0.621069 -0.148758
Cu1   Cu    Cu3+1 0.500000 0.500020 0.640660 0.972492
Cu2   Cu    Cu3+1 0.500000 0.499980 0.359340 0.954209
H1    H     H_    0.244584 0.608369 0.866486 0.183924
H2    H     H_    0.751133 0.380246 0.129489 0.186190
H3    H     H_    0.440406 0.313509 0.869667 0.129353
H4    H     H_    0.559497 0.686537 0.130307 0.131631
H5    H     H_    0.209582 0.780764 0.030557 0.164690
H6    H     H_    0.790704 0.210849 0.962556 0.165102
H7    H     H_    0.124426 0.739891 0.263755 0.166120
H8    H     H_    0.878243 0.256663 0.731743 0.166264
H9    H     H_    0.196076 0.394278 0.934807 0.168731
H10   H     H_    0.797705 0.595710 0.066296 0.168360
H11   H     H_    0.878732 0.543038 0.284513 0.152695
H12   H     H_    0.121170 0.455470 0.715376 0.149625
H13   H     H_    0.489807 0.111665 0.273244 0.135766
H14   H     H_    0.512714 0.888264 0.726738 0.153126
H15   H     H_    0.489150 0.887888 0.273341 0.143789
H16   H     H_    0.512812 0.112120 0.726675 0.143922
H17   H     H_    0.440833 0.313361 0.127203 0.116637
H18   H     H_    0.560095 0.686405 0.872615 0.156051
N1    N     N_R   0.500030 0.500030 0.852070 -0.167423
N2    N     N_R   0.499970 0.499970 0.147930 -0.164149
O1    O     O_R   0.499990 0.319660 0.618740 -0.597988
O2    O     O_R   0.500010 0.680340 0.381260 -0.602358
O3    O     O_R   0.499990 0.319630 0.381170 -0.605806
O4    O     O_R   0.500010 0.680370 0.618830 -0.580820
O5    O     O_R   0.319650 0.500020 0.618780 -0.600759
O6    O     O_R   0.680350 0.499980 0.381220 -0.600222
O7    O     O_R   0.319640 0.500000 0.381210 -0.568727
O8    O     O_R   0.680360 0.500000 0.618790 -0.549449
S1    S     S_3+6 0.100884 0.287782 0.186698 -0.007225
O9    O     O_2   0.971304 0.275025 0.235951 -0.276782
O10   O     O_2   0.118034 0.202893 0.063966 -0.306350
O11   O     O_3   0.196476 0.245755 0.318368 -0.520508
H19   H     H_    0.276172 0.230767 0.273525 0.339637
S2    S     S_3+6 0.891531 0.708005 0.817743 -0.025190
O12   O     O_2   0.880890 0.788566 0.945246 -0.304726
O13   O     O_2   0.017200 0.723980 0.757820 -0.308945
O14   O     O_3   0.785585 0.751072 0.697177 -0.559895
H20   H     H_    0.803307 0.839320 0.678501 0.374879

loop_
_geom_bond_atom_site_label_1
_geom_bond_atom_site_label_2
_ccdc_geom_bond_type
Cu1   O1    S    
Cu2   O3    S    
C3    C31   A    
C16   H4    S    
C8    H14   S    
C28   C30   A    
Cu2   O2    S    
Cu1   O4    S    
C1    O3    A    
C27   C29   A    
C7    H13   S    
C29   H1    S    
C26   C28   A    
C13   C15   A    
C30   H2    S    
C5    C32   A    
C26   S2    S    
S1    O10   D    
Cu1   Cu2   S    
C1    O1    A    
S1    O11   S    
O14   H20   S    
Cu1   O5    S    
C19   C29   A    
C20   C30   A    
C23   C25   A    
Cu2   O6    S    
C9    C11   A    
Cu2   N2    S    
C22   H8    S    
C1    C12   S    
C19   H5    S    
C17   O5    A    
C8    C11   A    
C21   H7    S    
C2    C11   S    
C15   N1    A    
C22   C24   A    
C18   O6    A    
C19   C21   A    
C20   C22   A    
O11   H19   S    
C16   N2    A    
C21   C23   A    
Cu1   N1    S    
C2    O4    A    
C10   C12   A    
S2    O14   S    
C14   C16   A    
C7    C12   A    
C4    C6    A    
C25   C27   A    
C32   H12   S    
C6    C23   S    
S1    O9    D    
C10   H16   S    
C27   H9    S    
C5    C24   S    
C14   N1    A    
C9    H15   S    
C18   O8    A    
C3    C18   S    
C8    C10   A    
C13   N2    A    
C31   H11   S    
C15   H3    S    
C4    C32   A    
C7    C9    A    
S2    O13   D    
Cu1   O8    S    
C6    C31   A    
C25   S1    S    
C17   O7    A    
C13   H17   S    
C20   H6    S    
C28   H10   S    
C2    O2    A    
C14   H18   S    
C24   C26   A    
S2    O12   D    
C3    C5    A    
Cu2   O7    S    
C4    C17   S    
