data_mof_unit_49078.cif
_audit_creation_date              2012-12-11T17:00:16-0500
_audit_creation_method            fapswitch 2.2
_symmetry_space_group_name_H-M    P1
_symmetry_Int_Tables_number       1
_space_group_crystal_system       triclinic
_cell_length_a                    6.969299
_cell_length_b                    13.540185
_cell_length_c                    20.28152
_cell_angle_alpha                 103.05483
_cell_angle_beta                  90.276641
_cell_angle_gamma                 90.225748
_cell_volume                      1864.36574856

loop_
_atom_site_label
_atom_site_type_symbol
_atom_type_description
_atom_site_fract_x
_atom_site_fract_y
_atom_site_fract_z
_atom_type_partial_charge
O1    O     O_R   0.506770 0.599700 0.449550 -0.543550
O2    O     O_R   0.179980 0.595740 0.587960 -0.549989
O3    O     O_R   0.004580 0.400300 0.550450 -0.537629
C1    C     C_R   0.348549 0.618107 0.614956 0.681169
O4    O     O_R   0.177380 0.611700 0.452380 -0.543468
O5    O     O_R   0.001970 0.416370 0.413900 -0.539224
C2    C     C_R   0.345599 0.638410 0.435706 0.685592
O6    O     O_R   0.509390 0.583630 0.586100 -0.541972
O7    O     O_3   0.337530 0.435890 0.487530 -0.343205
V1    V     V_3+5 0.064660 0.511890 0.502310 1.439106
O8    O     O_R   0.671950 0.404260 0.412040 -0.521613
C3    C     C_R   0.840343 0.381854 0.385123 0.710853
O9    O     O_R   0.674540 0.388300 0.547620 -0.532933
C4    C     C_R   0.843434 0.361705 0.564278 0.702006
V2    V     V_3+5 0.564030 0.488110 0.497690 1.484748
O10   O     O_3   0.841030 0.564110 0.512470 -0.381574
C5    C     C_R   0.882410 0.109452 0.610505 -0.160598
H1    H     H_    0.902429 0.983945 0.693392 0.122546
H2    H     H_    0.896631 0.030504 0.584694 0.113414
C6    C     C_R   0.852705 0.284517 0.604116 -0.031181
C7    C     C_R   0.841543 0.317096 0.930574 -0.169023
C8    C     C_R   0.828992 0.393433 0.895123 -0.118859
C9    C     C_R   0.834093 0.370131 0.824630 -0.161332
C10   C     C_R   0.852244 0.268539 0.787427 0.077232
C11   C     C_R   0.865216 0.190581 0.824219 0.068107
C12   C     C_R   0.857700 0.241684 0.715110 0.074292
C13   C     C_R   0.876115 0.137904 0.681474 0.140704
C14   C     C_R   0.888391 0.063143 0.718724 -0.202369
C15   C     C_R   0.882920 0.088853 0.788890 -0.194864
C16   C     C_R   0.845930 0.314096 0.674728 -0.221564
C17   C     C_R   0.871009 0.182433 0.572074 -0.153696
C18   C     C_R   0.859689 0.216026 0.895899 -0.074348
H3    H     H_    0.832269 0.394105 0.696249 0.091733
H4    H     H_    0.836644 0.336846 0.985387 0.101245
H5    H     H_    0.823263 0.433589 0.801034 0.112537
H6    H     H_    0.814793 0.471540 0.922509 0.118427
H7    H     H_    0.892764 0.027900 0.815277 0.114619
C19   C     C_R   0.703760 0.245640 0.205310 0.086900
C20   C     C_R   0.866167 0.187085 0.183001 -0.091741
C21   C     C_R   0.021835 0.194681 0.228323 -0.191120
C22   C     C_R   0.013543 0.258299 0.293605 -0.197324
H8    H     H_    0.129598 0.258632 0.328465 0.181899
C23   C     C_R   0.849457 0.315055 0.316211 -0.115196
C24   C     C_R   0.694060 0.305037 0.271421 0.047089
C25   C     C_3   0.497708 0.267358 0.281483 -0.162367
C26   C     C_3   0.503384 0.208424 0.208206 -0.489875
H9    H     H_    0.392918 0.330499 0.291717 0.141141
H10   H     H_    0.406842 0.240046 0.174412 0.177364
H11   H     H_    0.494761 0.124576 0.200867 0.162306
C27   C     C_R   0.524130 0.708960 0.720142 0.115293
C28   C     C_R   0.355476 0.691490 0.681489 -0.106966
C29   C     C_R   0.191780 0.748107 0.707984 -0.189842
H12   H     H_    0.059943 0.741603 0.678835 0.132145
C30   C     C_R   0.193819 0.811188 0.773687 -0.186587
H13   H     H_    0.064403 0.851421 0.792753 0.127160
C31   C     C_R   0.359591 0.819418 0.814710 -0.108132
C32   C     C_R   0.526069 0.771213 0.784890 0.118781
C33   C     C_3   0.661343 0.703037 0.810585 -0.417622
C34   C     C_3   0.658920 0.635018 0.739806 -0.432380
H14   H     H_    0.595197 0.667183 0.849258 0.165063
H15   H     H_    0.802912 0.739738 0.825117 0.175774
H16   H     H_    0.591107 0.559778 0.737404 0.167166
H17   H     H_    0.799052 0.632501 0.713606 0.171865
C35   C     C_R   0.297506 0.889273 0.388429 -0.155898
H18   H     H_    0.294641 0.839531 0.481577 0.105560
H19   H     H_    0.263825 0.012677 0.304706 0.134825
H20   H     H_    0.269198 0.967298 0.413646 0.129635
C36   C     C_R   0.350170 0.716080 0.396072 -0.031432
C37   C     C_R   0.394216 0.683187 0.069970 -0.167669
C38   C     C_R   0.406839 0.607198 0.105689 -0.119914
C39   C     C_R   0.391647 0.630346 0.175970 -0.160088
C40   C     C_R   0.361407 0.731278 0.212606 0.077557
C41   C     C_R   0.342957 0.808455 0.175354 0.075112
C42   C     C_R   0.349514 0.758267 0.284818 0.072505
C43   C     C_R   0.314009 0.860950 0.317723 0.144242
C44   C     C_R   0.293021 0.934587 0.279958 -0.216246
C45   C     C_R   0.308621 0.909089 0.210026 -0.210932
C46   C     C_R   0.369828 0.686932 0.325748 -0.216609
C47   C     C_R   0.313300 0.817012 0.427246 -0.176985
C48   C     C_R   0.361909 0.783499 0.103976 -0.076644
H21   H     H_    0.395775 0.607708 0.304727 0.093615
H22   H     H_    0.404300 0.567307 0.199883 0.106601
H23   H     H_    0.431085 0.529661 0.078743 0.118469
H24   H     H_    0.291907 0.969143 0.183238 0.113329
O11   O     O_R   0.203450 0.916320 0.913910 -0.542017
O12   O     O_R   0.535520 0.888300 0.047620 -0.539434
O13   O     O_R   0.710860 0.083650 0.086100 -0.536669
C49   C     C_R   0.367278 0.861812 0.064489 0.686926
O14   O     O_R   0.532860 0.904250 0.912040 -0.541972
O15   O     O_R   0.708190 0.099710 0.949550 -0.536902
C50   C     C_R   0.364437 0.883068 0.884648 0.696242
O16   O     O_R   0.206120 0.900260 0.050460 -0.539040
O17   O     O_3   0.375280 0.064080 0.012470 -0.369774
V3    V     V_3+5 0.648180 0.988110 0.997690 1.417806
O18   O     O_R   0.038220 0.111740 0.952370 -0.539706
C51   C     C_R   0.869289 0.138244 0.935655 0.688456
O19   O     O_R   0.040880 0.095790 0.087940 -0.546854
C52   C     C_R   0.872706 0.116960 0.115274 0.695665
V4    V     V_3+5 0.148800 0.011950 0.002300 1.410359
O20   O     O_3   0.871820 0.935920 0.987530 -0.371438
H25   H     H_    0.876768 0.159403 0.517368 0.115082
C53   C     C_2   0.497951 0.198977 0.331133 0.353663
H26   H     H_    0.571356 0.126578 0.318816 0.065584
O21   O     O_2   0.422223 0.225749 0.386368 -0.535292
H27   H     H_    0.411157 0.663851 0.015474 0.099903
H28   H     H_    0.145002 0.146621 0.214676 0.134248

loop_
_geom_bond_atom_site_label_1
_geom_bond_atom_site_label_2
_ccdc_geom_bond_type
O17   V3    S    
H18   C47   S    
C22   H8    S    
O18   C51   A    
C1    O6    A    
O19   C52   A    
O11   C50   A    
C6    C16   A    
C25   C26   S    
C29   H12   S    
C26   H11   S    
C12   C13   A    
C27   C34   S    
C17   H25   S    
C14   C15   A    
C10   C12   A    
C3    C23   S    
O5    C3    A    
C19   C20   A    
O12   C49   A    
C33   H14   S    
V2    O10   S    
O13   V3    S    
C31   C32   A    
O14   V3    S    
O12   V3    S    
C2    C36   S    
O8    V2    S    
C41   C48   A    
C31   C50   S    
C49   O16   A    
C9    C10   A    
C38   C39   A    
O1    V2    S    
O14   C50   A    
O7    V1    S    
O17   V4    S    
O13   C52   A    
C33   H15   S    
O9    C4    A    
C36   C46   A    
C22   C23   A    
C53   H26   S    
O19   V4    S    
C29   C30   A    
O15   V3    S    
C26   H10   S    
C25   H9    S    
C11   C15   A    
C7    C18   A    
C30   C31   A    
C42   C43   A    
C1    C28   S    
C28   C29   A    
C5    C13   A    
C35   H20   S    
C4    C6    S    
H1    C14   S    
C10   C11   A    
C40   C42   A    
C20   C21   A    
O4    C2    A    
C37   H27   S    
C20   C52   S    
C7    H4    S    
C45   H24   S    
C33   C34   S    
O2    C1    A    
C43   C44   A    
C19   C24   A    
O11   V4    S    
V4    O20   S    
V3    O20   S    
H19   C44   S    
C27   C28   A    
C44   C45   A    
C53   O21   D    
C38   H23   S    
O3    C4    A    
C21   C22   A    
C18   C51   S    
C12   C16   A    
O6    V2    S    
C9    H5    S    
O9    V2    S    
C23   C24   A    
C5    C17   A    
C35   C47   A    
O2    V1    S    
C24   C25   S    
C21   H28   S    
C30   H13   S    
C34   H16   S    
C16   H3    S    
O1    C2    A    
C27   C32   A    
C40   C41   A    
O5    V1    S    
O8    C3    A    
O15   C51   A    
C8    H6    S    
C34   H17   S    
C39   H22   S    
O7    V2    S    
O4    V1    S    
C48   C49   S    
O3    V1    S    
V1    O10   S    
C46   H21   S    
C32   C33   S    
C11   C18   A    
C5    H2    S    
C35   C43   A    
O18   V4    S    
C37   C38   A    
C19   C26   S    
C25   C53   S    
C39   C40   A    
C36   C47   A    
C42   C46   A    
C15   H7    S    
C13   C14   A    
C41   C45   A    
C8    C9    A    
C37   C48   A    
C7    C8    A    
O16   V4    S    
C6    C17   A    
