data_mof_unit_10188.cif
_audit_creation_date              2012-12-10T17:36:47-0500
_audit_creation_method            fapswitch 2.2
_symmetry_space_group_name_H-M    P1
_symmetry_Int_Tables_number       1
_space_group_crystal_system       triclinic
_cell_length_a                    10.613642
_cell_length_b                    12.332886
_cell_length_c                    13.207087
_cell_angle_alpha                 116.733502
_cell_angle_beta                  77.468254
_cell_angle_gamma                 101.408454
_cell_volume                      1497.20537814

loop_
_atom_site_label
_atom_site_type_symbol
_atom_type_description
_atom_site_fract_x
_atom_site_fract_y
_atom_site_fract_z
_atom_type_partial_charge
C1    C     C_R   0.511514 0.854843 0.286636 0.767046
C2    C     C_3   0.013635 0.908281 0.524168 -0.098071
C3    C     C_3   0.955149 0.891849 0.419834 -0.251498
C4    C     C_3   0.877378 0.999615 0.499423 -0.069896
C5    C     C_R   0.323402 0.276130 0.020440 -0.190924
C6    C     C_R   0.453206 0.228047 0.834376 -0.047357
C7    C     C_R   0.598463 0.815132 0.085681 -0.189424
C8    C     C_R   0.624433 0.736214 0.970822 -0.147065
C9    C     C_R   0.577755 0.612999 0.932880 -0.181760
C10   C     C_R   0.499068 0.566572 0.009371 0.078295
C11   C     C_R   0.460141 0.650288 0.123644 0.081177
C12   C     C_R   0.740439 0.999644 0.499594 0.803952
C13   C     C_R   0.456556 0.440042 0.975929 0.072203
C14   C     C_R   0.366237 0.400770 0.052663 0.164460
C15   C     C_R   0.317308 0.486421 0.159591 -0.239117
C16   C     C_R   0.362049 0.609437 0.194056 -0.201011
C17   C     C_R   0.502058 0.350932 0.868627 -0.252845
C18   C     C_R   0.366000 0.190070 0.911318 -0.198776
C19   C     C_R   0.519392 0.773016 0.163663 -0.100355
C20   C     C_R   0.707518 0.347061 0.329002 -0.288560
C21   C     C_R   0.324047 0.759315 0.645172 0.070799
C22   C     C_R   0.285915 0.662806 0.676799 -0.248365
C23   C     C_R   0.480714 0.145120 0.713346 0.791421
C24   C     C_R   0.352110 0.559538 0.622161 -0.174330
C25   C     C_R   0.458079 0.551490 0.534613 -0.006164
C26   C     C_R   0.493818 0.653073 0.505298 0.288484
C27   C     C_R   0.529925 0.447140 0.475311 -0.035924
C28   C     C_R   0.635375 0.447028 0.388508 0.169737
C29   C     C_R   0.668662 0.546690 0.361508 -0.278289
C30   C     C_R   0.599753 0.647243 0.418603 -0.175626
C31   C     C_R   0.502431 0.342062 0.497852 0.027760
C32   C     C_R   0.675541 0.247030 0.355336 0.117460
C33   C     C_R   0.259616 0.000106 0.500061 0.803191
C34   C     C_3   0.987173 0.089398 0.475405 0.690201
C35   C     C_3   0.066765 0.982838 0.395228 -0.235108
C36   C     C_3   0.122734 0.999609 0.499791 -0.057896
C37   C     C_3   0.045373 0.107581 0.579564 -0.236466
C38   C     C_3   0.933871 0.016260 0.603681 -0.240619
Cu1   Cu    Cu3+1 0.529830 0.098270 0.475420 0.958481
Cu2   Cu    Cu3+1 0.470170 0.901730 0.524580 0.919799
H1    H     H_    0.123937 0.970343 0.310452 0.145377
H2    H     H_    0.574923 0.374475 0.808790 0.151913
H3    H     H_    0.643100 0.908939 0.113930 0.151819
H4    H     H_    0.602619 0.557379 0.842642 0.132749
H5    H     H_    0.684607 0.770013 0.911237 0.141954
H6    H     H_    0.315808 0.671938 0.275485 0.176669
H7    H     H_    0.730851 0.169586 0.309709 0.138951
H8    H     H_    0.749420 0.547230 0.295333 0.148648
H9    H     H_    0.788262 0.346374 0.262530 0.138863
H10   H     H_    0.424072 0.334207 0.562244 0.124963
H11   H     H_    0.272117 0.839074 0.688126 0.122842
H12   H     H_    0.318410 0.487678 0.650158 0.138131
H13   H     H_    0.204727 0.668069 0.743949 0.145663
H14   H     H_    0.633618 0.718643 0.391665 0.204351
H15   H     H_    0.085239 0.196106 0.643987 0.142239
H16   H     H_    0.876559 0.029460 0.688569 0.151852
H17   H     H_    0.027218 0.833471 0.544304 0.148547
H18   H     H_    0.915065 0.803686 0.355078 0.145141
H19   H     H_    0.326825 0.094998 0.885641 0.147915
H20   H     H_    0.244095 0.458244 0.217071 0.153819
H21   H     H_    0.254163 0.245690 0.078524 0.141263
N1    N     N_R   0.575030 0.246270 0.438190 -0.186498
N2    N     N_R   0.425760 0.754330 0.561190 -0.206819
O1    O     O_R   0.537510 0.972500 0.318130 -0.585052
O2    O     O_R   0.487140 0.806530 0.359650 -0.605309
O3    O     O_R   0.708330 0.082950 0.479220 -0.539328
O4    O     O_R   0.657960 0.916980 0.520740 -0.601564
O5    O     O_R   0.512860 0.193470 0.640350 -0.586503
O6    O     O_R   0.462490 0.027500 0.681870 -0.588705
O7    O     O_R   0.342040 0.083020 0.479260 -0.581394
O8    O     O_R   0.291670 0.917050 0.520780 -0.598277
F1    F     F_    0.971485 0.182852 0.450185 -0.673235

loop_
_geom_bond_atom_site_label_1
_geom_bond_atom_site_label_2
_ccdc_geom_bond_type
C24   H12   S    
Cu2   O8    S    
C34   C37   S    
Cu1   O5    S    
C23   O6    A    
C35   C36   S    
C2    H17   S    
C7    C8    A    
Cu1   O1    S    
C30   H14   S    
C11   C19   A    
C29   C30   A    
Cu2   N2    S    
C36   C37   S    
C37   C38   S    
C15   C16   A    
C33   C36   S    
C34   C35   S    
C15   H20   S    
C6    C17   A    
C8    H5    S    
C17   H2    S    
C8    C9    A    
Cu2   O4    S    
C1    O2    A    
C7    H3    S    
C4    C12   S    
C9    C10   A    
C21   C22   A    
C31   N1    A    
C22   H13   S    
C6    C18   A    
C12   O4    A    
C4    C34   S    
C1    C19   S    
Cu2   O6    S    
C29   H8    S    
C27   C31   A    
C24   C25   A    
C16   H6    S    
Cu1   Cu2   S    
C5    C18   A    
C20   C28   A    
C25   C26   A    
C12   O3    A    
C23   O5    A    
C26   N2    A    
C20   H9    S    
C11   C16   A    
C2    C38   S    
C3    C35   S    
C5    H21   S    
C5    C14   A    
C33   O7    A    
C4    C38   S    
C26   C30   A    
C7    C19   A    
Cu2   O2    S    
Cu1   O3    S    
C22   C24   A    
C31   H10   S    
C3    C4    S    
C1    O1    A    
C34   F1    S    
C21   H11   S    
C20   C32   A    
C2    C36   S    
Cu1   N1    S    
C28   C29   A    
C9    H4    S    
C10   C13   A    
C25   C27   A    
C13   C17   A    
C2    C3    S    
C32   N1    A    
C6    C23   S    
C32   H7    S    
Cu1   O7    S    
C35   H1    S    
C21   N2    A    
C10   C11   A    
C33   O8    A    
C37   H15   S    
C3    H18   S    
C18   H19   S    
C38   H16   S    
C27   C28   A    
C14   C15   A    
C13   C14   A    
