data_mof_unit_40017.cif
_audit_creation_date              2012-12-11T15:16:38-0500
_audit_creation_method            fapswitch 2.2
_symmetry_space_group_name_H-M    P1
_symmetry_Int_Tables_number       1
_space_group_crystal_system       triclinic
_cell_length_a                    25.446827
_cell_length_b                    7.230215
_cell_length_c                    21.716407
_cell_angle_alpha                 89.998359
_cell_angle_beta                  110.325366
_cell_angle_gamma                 89.999446
_cell_volume                      3746.73572787

loop_
_atom_site_label
_atom_site_type_symbol
_atom_type_description
_atom_site_fract_x
_atom_site_fract_y
_atom_site_fract_z
_atom_type_partial_charge
O1    O     O_R   0.554350 0.505270 0.581390 -0.530178
O2    O     O_R   0.445650 0.005270 0.418610 -0.530179
O3    O     O_R   0.553380 0.177580 0.454800 -0.538061
O4    O     O_R   0.446620 0.677580 0.545200 -0.538048
C1    C     C_R   0.566548 0.344508 0.439086 0.679765
C2    C     C_R   0.433453 0.844505 0.560916 0.679740
O5    O     O_R   0.560970 0.175640 0.583140 -0.533442
O6    O     O_R   0.439030 0.675640 0.416860 -0.533431
O7    O     O_R   0.453290 0.004120 0.547860 -0.538703
O8    O     O_R   0.546710 0.504120 0.452140 -0.538708
C3    C     C_R   0.575951 0.343825 0.607912 0.667884
C4    C     C_R   0.424049 0.843831 0.392088 0.667923
O9    O     O_3   0.464660 0.338800 0.488280 -0.370629
O10   O     O_3   0.535340 0.838800 0.511720 -0.370633
V1    V     V_3+5 0.506560 0.064420 0.502170 1.402543
V2    V     V_3+5 0.493440 0.564420 0.497830 1.402546
C5    C     C_R   0.153314 0.000082 0.289957 -0.155475
C6    C     C_R   0.846671 0.500320 0.710053 -0.155486
H1    H     H_    0.069174 0.023223 0.226052 0.112847
H2    H     H_    0.930809 0.523493 0.773958 0.112853
H3    H     H_    0.142314 0.038167 0.332230 0.117686
H4    H     H_    0.857665 0.538518 0.667786 0.117686
C7    C     C_R   0.122811 0.943209 0.172639 -0.036196
C8    C     C_R   0.877187 0.443245 0.827362 -0.036211
C9    C     C_R   0.395203 0.797259 0.272498 -0.157636
C10   C     C_R   0.604806 0.297101 0.727496 -0.157620
C11   C     C_R   0.355432 0.787425 0.209586 -0.114828
C12   C     C_R   0.644579 0.287213 0.790406 -0.114836
C13   C     C_R   0.299197 0.825744 0.198593 -0.158970
C14   C     C_R   0.700811 0.325590 0.801401 -0.158971
C15   C     C_R   0.281087 0.876655 0.250815 0.076857
C16   C     C_R   0.718914 0.376619 0.749184 0.076864
C17   C     C_R   0.322610 0.890122 0.315442 0.074267
C18   C     C_R   0.677387 0.390153 0.684561 0.074267
C19   C     C_R   0.223227 0.913220 0.241209 0.073614
C20   C     C_R   0.776771 0.413242 0.758792 0.073613
C21   C     C_R   0.209000 0.962929 0.296778 0.140374
C22   C     C_R   0.790990 0.463087 0.703230 0.140391
C23   C     C_R   0.250287 0.976887 0.359053 -0.202328
C24   C     C_R   0.749700 0.477108 0.640958 -0.202357
C25   C     C_R   0.306099 0.941778 0.368275 -0.205743
C26   C     C_R   0.693892 0.441935 0.631734 -0.205764
C27   C     C_R   0.178802 0.903387 0.178857 -0.212313
C28   C     C_R   0.821199 0.403341 0.821141 -0.212323
C29   C     C_R   0.111091 0.991175 0.228840 -0.171569
C30   C     C_R   0.888898 0.491362 0.771167 -0.171557
C31   C     C_R   0.379814 0.848754 0.325945 -0.081148
C32   C     C_R   0.620187 0.348720 0.674055 -0.081159
H5    H     H_    0.186387 0.868888 0.134385 0.093690
H6    H     H_    0.813621 0.368733 0.865608 0.093700
H7    H     H_    0.438423 0.763475 0.279646 0.104737
H8    H     H_    0.561589 0.263263 0.720346 0.104749
H9    H     H_    0.270857 0.813446 0.148669 0.109840
H10   H     H_    0.729154 0.313242 0.851322 0.109838
H11   H     H_    0.368251 0.747739 0.168842 0.124568
H12   H     H_    0.631765 0.247434 0.831146 0.124568
H13   H     H_    0.336329 0.955507 0.417463 0.115353
H14   H     H_    0.663658 0.455712 0.582549 0.115418
C33   C     C_R   0.120149 0.769999 0.874568 0.134743
C34   C     C_R   0.879853 0.270001 0.125437 0.134754
C35   C     C_R   0.155739 0.777521 0.837580 -0.160689
C36   C     C_R   0.844271 0.277531 0.162435 -0.160685
H15   H     H_    0.162477 0.652465 0.813854 0.141761
H16   H     H_    0.837532 0.152475 0.186163 0.141751
C37   C     C_R   0.182874 0.940197 0.830641 -0.007200
C38   C     C_R   0.817139 0.440214 0.169376 -0.007199
C39   C     C_R   0.175225 0.098752 0.863768 -0.144041
C40   C     C_R   0.824783 0.598765 0.136242 -0.144037
H17   H     H_    0.196891 0.225890 0.861309 0.136342
H18   H     H_    0.803119 0.725908 0.138702 0.136329
C41   C     C_R   0.139105 0.094891 0.900308 -0.196543
C42   C     C_R   0.860898 0.594898 0.099696 -0.196537
H19   H     H_    0.135483 0.217467 0.926848 0.127890
H20   H     H_    0.864518 0.717472 0.073153 0.127898
C43   C     C_R   0.108752 0.934682 0.904253 -0.075414
C44   C     C_R   0.891250 0.434683 0.095750 -0.075428
N1    N     N_R   0.251635 0.082477 0.785477 -0.281122
N2    N     N_R   0.748341 0.582440 0.214493 -0.281137
N3    N     N_R   0.284185 0.072240 0.748642 -0.285286
N4    N     N_R   0.715789 0.572201 0.251326 -0.285297
C45   C     C_R   0.285477 0.915951 0.714057 0.525327
C46   C     C_R   0.714539 0.415976 0.285964 0.525340
N5    N     N_R   0.252728 0.771613 0.717815 -0.286762
N6    N     N_R   0.747334 0.271708 0.282265 -0.286774
N7    N     N_R   0.220455 0.781744 0.754428 -0.289924
N8    N     N_R   0.779609 0.281839 0.245654 -0.289924
C47   C     C_R   0.219128 0.936491 0.789311 0.525093
C48   C     C_R   0.780891 0.436519 0.210715 0.525104
C49   C     C_R   0.321388 0.735443 0.638113 -0.161300
C50   C     C_R   0.678651 0.235513 0.361943 -0.161310
H21   H     H_    0.293176 0.624868 0.639708 0.141673
H22   H     H_    0.706888 0.124982 0.360382 0.141668
C51   C     C_R   0.355997 0.711209 0.600177 0.129646
C52   C     C_R   0.644040 0.211280 0.399877 0.129624
C53   C     C_R   0.393522 0.856344 0.598043 -0.063488
C54   C     C_R   0.606481 0.356356 0.401964 -0.063442
C55   C     C_R   0.393156 0.020643 0.633207 -0.196629
C56   C     C_R   0.606818 0.520607 0.366760 -0.196654
H23   H     H_    0.420879 0.134199 0.633126 0.127023
H24   H     H_    0.579071 0.634120 0.366809 0.127030
C57   C     C_R   0.358125 0.041658 0.670151 -0.155383
C58   C     C_R   0.641851 0.541624 0.329819 -0.155362
H25   H     H_    0.359719 0.169738 0.696590 0.140776
H26   H     H_    0.640235 0.669665 0.303349 0.140805
C59   C     C_R   0.322102 0.898831 0.673521 -0.005558
C60   C     C_R   0.677908 0.398850 0.326494 -0.005578
O11   O     O_R   0.953220 0.285790 0.047790 -0.532583
O12   O     O_R   0.046780 0.785790 0.952210 -0.532582
O13   O     O_R   0.939020 0.617570 0.916840 -0.532334
O14   O     O_R   0.060980 0.117570 0.083160 -0.532334
C61   C     C_R   0.923196 0.448596 0.892490 0.677698
C62   C     C_R   0.076803 0.948589 0.107510 0.677697
O15   O     O_R   0.946600 0.615450 0.045180 -0.539424
O16   O     O_R   0.053400 0.115450 0.954820 -0.539424
O17   O     O_R   0.054370 0.786770 0.081410 -0.530085
O18   O     O_R   0.945630 0.286770 0.918590 -0.530085
C63   C     C_R   0.933037 0.445754 0.060450 0.676033
C64   C     C_R   0.066963 0.945755 0.939550 0.676031
O19   O     O_3   0.035300 0.454160 0.011680 -0.373115
O20   O     O_3   0.964700 0.954160 0.988320 -0.373115
V3    V     V_3+5 0.993450 0.728620 0.997830 1.397779
V4    V     V_3+5 0.006550 0.228620 0.002170 1.397777
C65   C     C_3   0.350064 0.529809 0.562902 -0.359534
C66   C     C_3   0.320959 0.556260 0.488999 -0.688043
H27   H     H_    0.278963 0.619373 0.478691 0.217159
H28   H     H_    0.315577 0.419826 0.464064 0.212352
H29   H     H_    0.345860 0.645950 0.468198 0.219554
H30   H     H_    0.391064 0.459845 0.574182 0.194107
H31   H     H_    0.324330 0.429807 0.579163 0.170833
C67   C     C_3   0.650011 0.029958 0.437209 -0.359528
C68   C     C_3   0.679088 0.056606 0.511107 -0.688237
H32   H     H_    0.721033 0.120092 0.521406 0.217214
H33   H     H_    0.684575 0.920204 0.536079 0.212362
H34   H     H_    0.654109 0.146045 0.531879 0.219595
H35   H     H_    0.609029 0.959883 0.425936 0.194144
H36   H     H_    0.675783 0.929992 0.420995 0.170862
H37   H     H_    0.239299 0.015721 0.401269 0.129004
H38   H     H_    0.760682 0.516045 0.598747 0.128989
C69   C     C_3   0.097447 0.580833 0.880962 -0.341302
C70   C     C_3   0.038180 0.555839 0.832967 -0.702097
H39   H     H_    0.010535 0.668553 0.838236 0.223045
H40   H     H_    0.038107 0.556919 0.781776 0.212926
H41   H     H_    0.021715 0.420599 0.842405 0.206925
H42   H     H_    0.123291 0.473505 0.868754 0.157943
H43   H     H_    0.101069 0.550109 0.932255 0.195402
C71   C     C_3   0.902542 0.080826 0.119029 -0.341305
C72   C     C_3   0.961807 0.055760 0.167019 -0.702097
H44   H     H_    0.989463 0.168446 0.161755 0.223055
H45   H     H_    0.961883 0.056820 0.218212 0.212924
H46   H     H_    0.978260 0.920508 0.157572 0.206933
H47   H     H_    0.876689 0.973513 0.131229 0.157936
H48   H     H_    0.898915 0.050134 0.067733 0.195392

loop_
_geom_bond_atom_site_label_1
_geom_bond_atom_site_label_2
_ccdc_geom_bond_type
C38   C40   A    
C23   H37   S    
C7    C29   A    
C11   C13   A    
C67   H35   S    
O1    C3    A    
C70   H41   S    
O12   V3    S    
C42   C44   A    
C68   H34   S    
O2    C4    A    
C26   H14   S    
C2    O7    A    
C12   H12   S    
C65   C66   S    
C23   C25   A    
O5    C3    A    
C7    C62   S    
C14   H10   S    
C52   C67   S    
O18   V4    S    
O17   V3    S    
C16   C20   A    
C66   H28   S    
C72   H45   S    
C5    C29   A    
O13   C61   A    
C38   C48   S    
N8    C48   A    
C28   H6    S    
H2    C30   S    
C7    C27   A    
C34   C36   A    
C35   H15   S    
C36   H16   S    
C55   H23   S    
C72   H44   S    
C18   C26   A    
C37   C39   A    
C24   H38   S    
C15   C17   A    
C50   C52   A    
C61   O18   A    
C49   H21   S    
C19   C27   A    
C9    C31   A    
C39   C41   A    
C10   C32   A    
C24   C26   A    
O6    V2    S    
C22   C24   A    
C65   H31   S    
C13   C15   A    
C3    C32   S    
C8    C61   S    
C34   C71   S    
C4    C31   S    
C6    C30   A    
C45   N5    A    
C37   C47   S    
N7    C47   A    
C57   C59   A    
C45   C59   S    
C33   C35   A    
C36   C38   A    
C14   C16   A    
O12   C64   A    
C72   H46   S    
C70   H39   S    
C50   C60   A    
N4    C46   A    
N3    C45   A    
C27   H5    S    
O3    C1    A    
C56   C58   A    
C34   C44   A    
C49   C51   A    
C5    H3    S    
C54   C56   A    
C40   C42   A    
C39   H17   S    
C16   C18   A    
O4    V2    S    
C58   H26   S    
C9    H7    S    
C10   H8    S    
C69   H42   S    
C50   H22   S    
C33   C69   S    
O6    C4    A    
C53   C55   A    
N1    N3    A    
O1    V2    S    
C5    C21   A    
C52   C54   A    
O2    V1    S    
O16   C64   A    
C66   H29   S    
O15   C63   A    
C42   H20   S    
N5    N7    A    
C46   N6    A    
C43   C64   S    
C17   C31   A    
C71   H48   S    
C20   C28   A    
O4    C2    A    
C18   C32   A    
C68   H32   S    
C33   C43   A    
C1    C54   S    
O3    V1    S    
O20   V3    S    
C41   H19   S    
C71   C72   S    
O19   V4    S    
N2    C48   A    
C69   H43   S    
C19   C21   A    
C6    H4    S    
C67   H36   S    
C51   C65   S    
C70   H40   S    
C68   H33   S    
C69   C70   S    
H1    C29   S    
C9    C11   A    
C11   H11   S    
C10   C12   A    
C44   C63   S    
C17   C25   A    
C20   C22   A    
C67   C68   S    
O7    V1    S    
C8    C30   A    
C1    O8    A    
C21   C23   A    
O8    V2    S    
O14   V4    S    
C41   C43   A    
O13   V3    S    
C65   H30   S    
C51   C53   A    
C13   H9    S    
C8    C28   A    
C15   C19   A    
O5    V1    S    
C12   C14   A    
C58   C60   A    
N2    N4    A    
C46   C60   S    
C6    C22   A    
C56   H24   S    
O14   C62   A    
C25   H13   S    
C71   H47   S    
O16   V4    S    
C35   C37   A    
O15   V3    S    
N1    C47   A    
C57   H25   S    
C2    C53   S    
O9    V2    S    
C49   C59   A    
C40   H18   S    
O10   V1    S    
N6    N8    A    
O11   V4    S    
O11   C63   A    
C62   O17   A    
C55   C57   A    
C66   H27   S    
