data_mof_unit_19563.cif
_audit_creation_date              2012-12-10T18:53:03-0500
_audit_creation_method            fapswitch 2.2
_symmetry_space_group_name_H-M    P1
_symmetry_Int_Tables_number       1
_space_group_crystal_system       triclinic
_cell_length_a                    9.782456
_cell_length_b                    10.647103
_cell_length_c                    16.509705
_cell_angle_alpha                 90.256842
_cell_angle_beta                  85.143879
_cell_angle_gamma                 89.967301
_cell_volume                      1713.37478377

loop_
_atom_site_label
_atom_site_type_symbol
_atom_type_description
_atom_site_fract_x
_atom_site_fract_y
_atom_site_fract_z
_atom_type_partial_charge
C1    C     C_R   0.500400 0.739840 0.497450 0.880853
C2    C     C_R   0.065398 0.583902 0.546831 -0.046193
C3    C     C_R   0.078904 0.416274 0.453086 -0.081396
C4    C     C_R   0.921138 0.583983 0.546715 -0.090518
C5    C     C_R   0.480455 0.499205 0.655112 0.861071
C6    C     C_R   0.518809 0.501709 0.344874 0.826743
C7    C     C_R   0.464844 0.519206 0.744757 -0.165057
C8    C     C_R   0.527946 0.536368 0.257301 -0.240818
C9    C     C_R   0.582082 0.527146 0.790100 0.118399
C10   C     C_R   0.405192 0.571466 0.223033 0.164960
C11   C     C_R   0.566908 0.582139 0.867360 -0.133777
C12   C     C_R   0.499633 0.260043 0.502186 0.872202
C13   C     C_R   0.412884 0.661979 0.162642 -0.163154
C14   C     C_R   0.439478 0.623921 0.901888 0.044895
C15   C     C_R   0.535172 0.680092 0.114192 0.017538
C16   C     C_R   0.321179 0.609592 0.859893 -0.054538
C17   C     C_R   0.659228 0.632080 0.139518 -0.003182
C18   C     C_R   0.332464 0.548976 0.783515 -0.040448
C19   C     C_R   0.656690 0.565261 0.214004 -0.071581
C20   C     C_2   0.426115 0.653252 0.988980 -0.202715
C21   C     C_2   0.523691 0.711503 0.027789 -0.207880
C22   C     C_3   0.721443 0.474088 0.757457 -0.375927
C23   C     C_R   0.588882 0.938114 0.439701 0.155263
C24   C     C_3   0.818785 0.437849 0.821529 -0.850400
C25   C     C_3   0.265720 0.511627 0.246671 -0.379627
C26   C     C_3   0.191105 0.470563 0.173014 -0.803652
C27   C     C_2   0.787259 0.522961 0.245034 0.526650
C28   C     C_2   0.204838 0.503810 0.749854 0.446669
C29   C     C_2   0.186139 0.656251 0.897291 0.361905
C30   C     C_2   0.788198 0.646413 0.085582 0.437768
C31   C     C_3   0.678947 0.875546 0.371778 -0.396168
C32   C     C_3   0.828399 0.871186 0.391756 -0.782423
C33   C     C_3   0.318285 0.123518 0.626260 -0.368200
C34   C     C_R   0.410410 0.061428 0.559181 0.131053
C35   C     C_3   0.169595 0.126837 0.604670 -0.751609
C36   C     C_R   0.588201 0.067376 0.444957 -0.244201
C37   C     C_R   0.411628 0.932269 0.554175 -0.240034
C38   C     C_R   0.499669 0.127689 0.503404 -0.087313
C39   C     C_R   0.500229 0.872028 0.495857 -0.088517
C40   C     C_R   0.934628 0.416244 0.453057 -0.040921
H1    H     H_    0.607601 0.757990 0.992719 0.145022
H2    H     H_    0.860746 0.651181 0.583779 0.125226
H3    H     H_    0.862029 0.522891 0.848978 0.274610
H4    H     H_    0.764891 0.378937 0.869555 0.269302
H5    H     H_    0.905992 0.382826 0.792137 0.275026
H6    H     H_    0.704403 0.386349 0.722988 0.224676
H7    H     H_    0.774513 0.543412 0.715768 0.222714
H8    H     H_    0.152378 0.552830 0.140837 0.280871
H9    H     H_    0.260587 0.414320 0.130206 0.247471
H10   H     H_    0.101271 0.411632 0.193658 0.266284
H11   H     H_    0.277542 0.423937 0.281370 0.216696
H12   H     H_    0.345770 0.601272 0.023391 0.149632
H13   H     H_    0.199999 0.578465 0.284385 0.238195
H14   H     H_    0.794942 0.429437 0.270130 0.034818
H15   H     H_    0.119383 0.566526 0.743173 0.107015
H16   H     H_    0.158191 0.646805 0.961885 0.096541
H17   H     H_    0.807541 0.732148 0.051322 0.048941
H18   H     H_    0.868580 0.967786 0.398980 0.235698
H19   H     H_    0.838001 0.818137 0.448738 0.266567
H20   H     H_    0.891510 0.823684 0.341574 0.272157
H21   H     H_    0.643759 0.778931 0.359056 0.215720
H22   H     H_    0.672159 0.928647 0.314414 0.195330
H23   H     H_    0.318814 0.701897 0.143782 0.156696
H24   H     H_    0.104418 0.173209 0.654423 0.273983
H25   H     H_    0.161203 0.180339 0.547740 0.259119
H26   H     H_    0.130710 0.029980 0.596557 0.232760
H27   H     H_    0.323721 0.070460 0.683761 0.204864
H28   H     H_    0.352644 0.220214 0.639309 0.235028
H29   H     H_    0.654085 0.588469 0.903143 0.167198
H30   H     H_    0.654015 0.121541 0.401907 0.145682
H31   H     H_    0.345753 0.878094 0.597208 0.154147
H32   H     H_    0.884963 0.349474 0.415645 0.113221
H33   H     H_    0.115088 0.650770 0.584167 0.117760
H34   H     H_    0.139335 0.349414 0.415767 0.118612
N1    N     N_R   0.142790 0.500030 0.500020 -0.072703
N2    N     N_R   0.857210 0.499970 0.499980 -0.074514
O1    O     O_R   0.385380 0.683250 0.500010 -0.622802
O2    O     O_2   0.193747 0.393707 0.730566 -0.599031
O3    O     O_2   0.106646 0.711190 0.856605 -0.602623
O4    O     O_2   0.871865 0.561234 0.076888 -0.573990
O5    O     O_R   0.614620 0.316750 0.499990 -0.621930
O6    O     O_R   0.614710 0.683220 0.500000 -0.608940
O7    O     O_R   0.385290 0.316780 0.500000 -0.609332
O8    O     O_R   0.371780 0.500040 0.615800 -0.582581
O9    O     O_R   0.628220 0.499960 0.384200 -0.618584
O10   O     O_R   0.601110 0.500010 0.615800 -0.629306
O11   O     O_R   0.398890 0.499990 0.384200 -0.614090
O12   O     O_2   0.885673 0.593464 0.244952 -0.587912
Zn1   Zn    Zn3+2 0.346870 0.500020 0.500000 0.954445
Zn2   Zn    Zn3+2 0.653130 0.499980 0.500000 0.940592

loop_
_geom_bond_atom_site_label_1
_geom_bond_atom_site_label_2
_ccdc_geom_bond_type
C34   C37   A    
C1    O1    A    
C31   H21   S    
C32   H18   S    
C27   H14   S    
C37   H31   S    
O1    Zn1   S    
C6    O9    A    
C24   H5    S    
C25   H13   S    
C26   H10   S    
C11   C14   A    
C9    C22   S    
C35   H25   S    
C30   H17   S    
C7    C9    A    
C3    H34   S    
C17   C19   A    
C13   H23   S    
C35   H24   S    
C3    N1    A    
C26   H8    S    
C30   O4    D    
C22   H7    S    
C17   C30   S    
C31   H22   S    
C19   C27   S    
C28   H15   S    
C36   H30   S    
O7    Zn1   S    
C8    C19   A    
C14   C20   S    
C18   C28   S    
O10   Zn2   S    
C26   H9    S    
C5    C7    S    
C5    O8    A    
N1    Zn1   S    
C6    C8    S    
C35   H26   S    
C1    O6    A    
C6    O11   A    
C40   N2    A    
C12   O7    A    
C23   C31   S    
C2    C4    A    
C25   H11   S    
C31   C32   S    
C29   O3    D    
C7    C18   A    
C33   C34   S    
C16   C18   A    
C9    C11   A    
C2    H33   S    
C21   H1    S    
C5    O10   A    
C10   C25   S    
C8    C10   A    
C22   H6    S    
C3    C40   A    
C13   C15   A    
C24   H4    S    
C14   C16   A    
O8    Zn1   S    
O5    Zn2   S    
C28   O2    D    
C33   H27   S    
C15   C17   A    
C40   H32   S    
C34   C38   A    
C10   C13   A    
O9    Zn2   S    
C11   H29   S    
C29   H16   S    
O6    Zn2   S    
O11   Zn1   S    
C25   C26   S    
C20   H12   S    
C4    H2    S    
C23   C39   A    
C36   C38   A    
C33   C35   S    
C12   O5    A    
C22   C24   S    
C12   C38   S    
C27   O12   D    
C4    N2    A    
C1    C39   S    
C15   C21   S    
C20   C21   D    
C16   C29   S    
C37   C39   A    
C23   C36   A    
C24   H3    S    
C32   H20   S    
C32   H19   S    
C2    N1    A    
C33   H28   S    
N2    Zn2   S    
