data_mof_unit_23083.cif
_audit_creation_date              2012-12-11T14:17:50-0500
_audit_creation_method            fapswitch 2.2
_symmetry_space_group_name_H-M    P1
_symmetry_Int_Tables_number       1
_space_group_crystal_system       triclinic
_cell_length_a                    6.949904
_cell_length_b                    13.624986
_cell_length_c                    20.417943
_cell_angle_alpha                 102.020726
_cell_angle_beta                  90.093207
_cell_angle_gamma                 90.605931
_cell_volume                      1890.90719254

loop_
_atom_site_label
_atom_site_type_symbol
_atom_type_description
_atom_site_fract_x
_atom_site_fract_y
_atom_site_fract_z
_atom_type_partial_charge
O1    O     O_R   0.506860 0.599390 0.449240 -0.538039
O2    O     O_R   0.180220 0.594600 0.586780 -0.542150
O3    O     O_R   0.004500 0.400610 0.550760 -0.539795
C1    C     C_R   0.349154 0.615902 0.613516 0.740645
O4    O     O_R   0.177490 0.611290 0.451970 -0.540844
O5    O     O_R   0.001750 0.417420 0.414990 -0.540300
C2    C     C_R   0.347280 0.637221 0.434638 0.697522
O6    O     O_R   0.509610 0.582580 0.585010 -0.543445
O7    O     O_3   0.337420 0.436370 0.488020 -0.373933
V1    V     V_3+5 0.064680 0.511800 0.502220 1.419940
O8    O     O_R   0.671710 0.405400 0.413220 -0.546412
C3    C     C_R   0.839662 0.384095 0.386537 0.740079
O9    O     O_R   0.674440 0.388710 0.548030 -0.542567
C4    C     C_R   0.843316 0.362652 0.565295 0.722342
V2    V     V_3+5 0.564010 0.488200 0.497780 1.412738
O10   O     O_3   0.841140 0.563630 0.511980 -0.371462
C5    C     C_R   0.946400 0.117558 0.613919 0.425636
H1    H     H_    0.932840 0.169313 0.521516 0.120940
H2    H     H_    0.964255 0.991685 0.699038 0.152453
C6    C     C_R   0.856455 0.285646 0.605317 -0.095573
C7    C     C_R   0.816547 0.314578 0.927927 -0.263607
C8    C     C_R   0.798474 0.390025 0.891464 0.469307
C9    C     C_R   0.827783 0.367876 0.822344 -0.254423
C10   C     C_R   0.857941 0.268392 0.787122 0.043974
C11   C     C_R   0.877531 0.192056 0.824823 0.071712
C12   C     C_R   0.870728 0.242575 0.715776 0.050932
C13   C     C_R   0.917604 0.142575 0.683994 0.028050
C14   C     C_R   0.934866 0.068979 0.722330 -0.202792
C15   C     C_R   0.914063 0.093011 0.791324 -0.186582
C16   C     C_R   0.835987 0.312462 0.674736 -0.231423
C17   C     C_R   0.913532 0.189178 0.575299 -0.259122
C18   C     C_R   0.858498 0.216233 0.895427 -0.138901
H3    H     H_    0.793060 0.388503 0.694935 0.106518
H4    H     H_    0.798334 0.332898 0.981794 0.119650
H5    H     H_    0.825955 0.430645 0.797880 0.125383
H6    H     H_    0.928670 0.032919 0.818257 0.116213
C19   C     C_2   0.004851 0.289110 0.285008 -0.134849
C20   C     C_2   0.841860 0.315814 0.319741 -0.312243
H7    H     H_    0.141917 0.317839 0.306990 0.134711
H8    H     H_    0.703281 0.287679 0.299379 0.127213
C21   C     C_2   0.013416 0.221211 0.217375 -0.131392
C22   C     C_2   0.858616 0.183098 0.180377 -0.310776
H9    H     H_    0.156240 0.202749 0.197339 0.133759
H10   H     H_    0.714528 0.200767 0.198883 0.126855
C23   C     C_2   0.204798 0.790473 0.782292 -0.142310
C24   C     C_2   0.363392 0.815022 0.820225 -0.300918
H11   H     H_    0.067325 0.821149 0.801268 0.133348
H12   H     H_    0.501528 0.784419 0.802577 0.131366
C25   C     C_2   0.203291 0.721894 0.714872 -0.138805
C26   C     C_2   0.361274 0.683879 0.680369 -0.314992
H13   H     H_    0.062159 0.703062 0.692601 0.137920
H14   H     H_    0.504264 0.702350 0.700622 0.127414
C27   C     C_R   0.499459 0.873038 0.381989 -0.166911
H15   H     H_    0.496683 0.821888 0.474406 0.112881
H16   H     H_    0.567629 0.991521 0.296992 0.124285
H17   H     H_    0.570145 0.943235 0.404309 0.125829
C28   C     C_R   0.364771 0.714025 0.394584 -0.036692
C29   C     C_R   0.270444 0.691217 0.073497 -0.171238
C30   C     C_R   0.232332 0.618236 0.110196 -0.115097
C31   C     C_R   0.265897 0.637899 0.178961 -0.158582
C32   C     C_R   0.340735 0.731965 0.212856 0.078141
C33   C     C_R   0.387352 0.805017 0.174244 0.070202
C34   C     C_R   0.371029 0.755947 0.283647 0.073134
C35   C     C_R   0.457229 0.849833 0.313356 0.141010
C36   C     C_R   0.503260 0.919561 0.274414 -0.204766
C37   C     C_R   0.466794 0.898193 0.206132 -0.199963
C38   C     C_R   0.321076 0.689775 0.326161 -0.216947
C39   C     C_R   0.456214 0.804869 0.422043 -0.161803
C40   C     C_R   0.349482 0.784039 0.104515 -0.079147
H18   H     H_    0.254404 0.617558 0.307582 0.098027
H19   H     H_    0.232071 0.577689 0.203942 0.107906
H20   H     H_    0.173052 0.546267 0.085313 0.125665
H21   H     H_    0.503582 0.955368 0.178460 0.126790
O11   O     O_R   0.203230 0.917310 0.915020 -0.539929
O12   O     O_R   0.535500 0.888690 0.048040 -0.541952
O13   O     O_R   0.711080 0.082610 0.085000 -0.546697
C41   C     C_R   0.365697 0.861932 0.064796 0.687593
O14   O     O_R   0.532630 0.905370 0.913230 -0.545766
O15   O     O_R   0.708190 0.099410 0.949230 -0.538633
C42   C     C_R   0.364226 0.883983 0.886616 0.741074
O16   O     O_R   0.206120 0.900510 0.050790 -0.535561
O17   O     O_3   0.375360 0.063570 0.011990 -0.373974
V3    V     V_3+5 0.648170 0.988200 0.997780 1.418579
O18   O     O_R   0.038240 0.111390 0.951940 -0.542560
C43   C     C_R   0.869328 0.138725 0.935678 0.711491
O19   O     O_R   0.041120 0.094710 0.086750 -0.541537
C44   C     C_R   0.872605 0.115680 0.113523 0.740027
V4    V     V_3+5 0.148810 0.011930 0.002180 1.421643
O20   O     O_3   0.871750 0.936430 0.988010 -0.370103
H22   H     H_    0.235775 0.675693 0.020681 0.112565
O21   O     O_3   0.996877 0.021594 0.581690 -0.576229
C45   C     C_3   0.197452 0.009533 0.588436 0.072066
H23   H     H_    0.225286 0.928101 0.583152 0.136737
H24   H     H_    0.253777 0.046596 0.638877 0.116841
C46   C     C_3   0.307808 0.046936 0.533354 -0.352469
H25   H     H_    0.273284 0.998150 0.483993 0.206564
H26   H     H_    0.266208 0.124764 0.531811 0.199482
C47   C     C_3   0.523119 0.047558 0.546449 -0.780398
H27   H     H_    0.555585 0.100457 0.594408 0.238992
H28   H     H_    0.600790 0.072932 0.505421 0.227151
H29   H     H_    0.573444 0.971770 0.549788 0.238841
O22   O     O_3   0.765637 0.487999 0.923972 -0.576585
C48   C     C_3   0.564965 0.505484 0.928602 0.077981
H30   H     H_    0.543041 0.572213 0.969482 0.154576
H31   H     H_    0.483473 0.442363 0.943184 0.106789
C49   C     C_3   0.483467 0.528033 0.863230 -0.353112
H32   H     H_    0.578495 0.583112 0.845394 0.204670
H33   H     H_    0.477641 0.457879 0.824163 0.189110
C50   C     C_3   0.280482 0.570147 0.872499 -0.785111
H34   H     H_    0.185601 0.520385 0.895291 0.248738
H35   H     H_    0.219699 0.575582 0.823060 0.239142
H36   H     H_    0.284238 0.646511 0.904746 0.218275

loop_
_geom_bond_atom_site_label_1
_geom_bond_atom_site_label_2
_ccdc_geom_bond_type
C20   H8    S    
C21   C22   D    
C40   C41   S    
C46   H25   S    
C5    O21   S    
C1    O6    A    
C46   C47   S    
C6    C16   A    
C23   C24   D    
C15   H6    S    
C12   C13   A    
C14   C15   A    
C10   C12   A    
C50   H35   S    
O5    C3    A    
C27   C35   A    
O14   C42   A    
H15   C39   S    
C49   H32   S    
V2    O10   S    
C47   H27   S    
C32   C34   A    
C27   C39   A    
O8    V2    S    
O14   V3    S    
C25   H13   S    
C26   H14   S    
C9    C10   A    
O1    V2    S    
C41   O16   A    
O7    V1    S    
C30   H20   S    
C11   C18   A    
C30   C31   A    
O11   C42   A    
O9    C4    A    
C3    C20   S    
C21   H9    S    
O22   C48   S    
C22   H10   S    
C28   C38   A    
O13   V3    S    
H16   C36   S    
C24   H12   S    
C23   H11   S    
C11   C15   A    
V3    O20   S    
C7    C18   A    
C34   C38   A    
C33   C37   A    
C5    C13   A    
C6    C17   A    
C4    C6    S    
C10   C11   A    
C50   H36   S    
O21   C45   S    
O4    C2    A    
O19   C44   A    
C7    H4    S    
C31   H19   S    
C29   C30   A    
C37   H21   S    
O17   V3    S    
C45   C46   S    
C33   C40   A    
C1    C26   S    
C31   C32   A    
O2    C1    A    
C19   C20   D    
O12   C41   A    
C23   C25   S    
C45   H24   S    
C48   H31   S    
O18   C43   A    
H2    C14   S    
C29   H22   S    
O13   C44   A    
O3    C4    A    
C12   C16   A    
O6    V2    S    
C9    H5    S    
O9    V2    S    
C5    C17   A    
C28   C39   A    
O2    V1    S    
O15   C43   A    
C27   H17   S    
C16   H3    S    
O1    C2    A    
O18   V4    S    
O5    V1    S    
O8    C3    A    
C46   H26   S    
C29   C40   A    
H1    C17   S    
C47   H29   S    
C47   H28   S    
C8    O22   S    
C38   H18   S    
C35   C36   A    
O7    V2    S    
O4    V1    S    
C19   H7    S    
O3    V1    S    
V1    O10   S    
C50   H34   S    
C24   C42   S    
O12   V3    S    
C49   H33   S    
O17   V4    S    
C18   C43   S    
C45   H23   S    
C48   C49   S    
O19   V4    S    
C36   C37   A    
C19   C21   S    
C32   C33   A    
O16   V4    S    
C34   C35   A    
O15   V3    S    
V4    O20   S    
C25   C26   D    
C48   H30   S    
C8    C9    A    
C22   C44   S    
O11   V4    S    
C7    C8    A    
C2    C28   S    
C13   C14   A    
C49   C50   S    
