data_mof_unit_58638.cif
_audit_creation_date              2012-12-11T15:31:33-0500
_audit_creation_method            fapswitch 2.2
_symmetry_space_group_name_H-M    P1
_symmetry_Int_Tables_number       1
_space_group_crystal_system       triclinic
_cell_length_a                    6.942153
_cell_length_b                    14.766162
_cell_length_c                    21.316751
_cell_angle_alpha                 74.815123
_cell_angle_beta                  90.203268
_cell_angle_gamma                 90.725089
_cell_volume                      2108.69562088

loop_
_atom_site_label
_atom_site_type_symbol
_atom_type_description
_atom_site_fract_x
_atom_site_fract_y
_atom_site_fract_z
_atom_type_partial_charge
O1    O     O_R   0.648150 0.130050 0.214300 -0.524021
O2    O     O_R   0.351850 0.869950 0.785700 -0.524021
O3    O     O_R   0.320490 0.006660 0.340150 -0.548493
O4    O     O_R   0.679510 0.993340 0.659850 -0.548494
O5    O     O_R   0.146100 0.869940 0.285700 -0.542722
O6    O     O_R   0.853900 0.130060 0.714300 -0.542722
C1    C     C_R   0.489153 0.001599 0.367152 0.707734
C2    C     C_R   0.510847 0.998401 0.632848 0.707734
O7    O     O_R   0.318690 0.137980 0.218120 -0.541027
O8    O     O_R   0.681310 0.862020 0.781880 -0.541027
O9    O     O_R   0.144280 0.002190 0.162800 -0.545074
O10   O     O_R   0.855720 0.997810 0.837200 -0.545075
C3    C     C_R   0.488531 0.175632 0.206029 0.801408
C4    C     C_R   0.511468 0.824368 0.793971 0.801408
O11   O     O_R   0.649960 0.997790 0.337200 -0.541762
O12   O     O_R   0.350040 0.002210 0.662800 -0.541762
O13   O     O_3   0.479300 0.955290 0.231990 -0.370932
O14   O     O_3   0.520700 0.044710 0.768010 -0.370932
V1    V     V_3+5 0.206040 0.008290 0.253340 1.492705
V2    V     V_3+5 0.793960 0.991710 0.746660 1.492705
O15   O     O_R   0.814320 0.993320 0.159850 -0.529873
O16   O     O_R   0.185680 0.006680 0.840150 -0.529873
C5    C     C_R   0.982960 0.998411 0.132910 0.768843
C6    C     C_R   0.017040 0.001589 0.867090 0.768842
O17   O     O_R   0.816120 0.862000 0.281880 -0.541917
O18   O     O_R   0.183880 0.138000 0.718120 -0.541917
C7    C     C_R   0.983919 0.824373 0.293957 0.690215
C8    C     C_R   0.016081 0.175627 0.706043 0.690215
V3    V     V_3+5 0.705540 0.991700 0.246660 1.528455
V4    V     V_3+5 0.294460 0.008300 0.753340 1.528455
O19   O     O_3   0.982150 0.044700 0.268010 -0.370787
O20   O     O_3   0.017850 0.955300 0.731990 -0.370786
C9    C     C_R   0.988320 0.722958 0.321648 -0.051443
C10   C     C_R   0.011680 0.277042 0.678352 -0.051443
C11   C     C_R   0.952237 0.566011 0.309150 -0.107993
C12   C     C_R   0.047763 0.433988 0.690849 -0.107993
C13   C     C_R   0.961108 0.662483 0.281860 -0.108941
C14   C     C_R   0.038892 0.337516 0.718140 -0.108941
C15   C     C_R   0.006975 0.687186 0.388880 -0.209628
C16   C     C_R   0.993025 0.312814 0.611120 -0.209628
C17   C     C_R   0.995534 0.589415 0.418206 0.088191
C18   C     C_R   0.004466 0.410585 0.581794 0.088191
C19   C     C_R   0.967789 0.529127 0.376724 0.108681
C20   C     C_R   0.032210 0.470873 0.623276 0.108681
C21   C     C_R   0.007972 0.549784 0.487001 0.056272
C22   C     C_R   0.992028 0.450216 0.512999 0.056272
C23   C     C_R   0.964790 0.393657 0.469352 -0.174218
C24   C     C_R   0.035210 0.606343 0.530648 -0.174218
C25   C     C_R   0.953538 0.432511 0.402790 -0.144309
C26   C     C_R   0.046462 0.567489 0.597210 -0.144309
H1    H     H_    0.932160 0.386203 0.371331 0.172842
H2    H     H_    0.067839 0.613797 0.628669 0.172842
H3    H     H_    0.974353 0.261937 0.583415 0.090141
H4    H     H_    0.025647 0.738063 0.416585 0.090141
H5    H     H_    0.054367 0.309879 0.770216 0.167811
H6    H     H_    0.945633 0.690121 0.229784 0.167811
H7    H     H_    0.930633 0.520122 0.277436 0.148705
H8    H     H_    0.069367 0.479878 0.722563 0.148705
H9    H     H_    0.950812 0.318450 0.484798 0.124949
H10   H     H_    0.049188 0.681550 0.515202 0.124949
C27   C     C_3   0.819810 0.994515 0.977415 -0.191276
C28   C     C_3   0.180190 0.005485 0.022585 -0.191276
C29   C     C_3   0.914177 0.919751 0.033982 -0.207687
C30   C     C_3   0.085823 0.080249 0.966018 -0.207688
H11   H     H_    0.844991 0.853371 0.062075 0.194136
H12   H     H_    0.155009 0.146629 0.937924 0.194136
H13   H     H_    0.671045 0.990840 0.958837 0.174985
H14   H     H_    0.328955 0.009160 0.041163 0.174985
C31   C     C_3   0.992503 0.998867 0.062452 -0.150456
C32   C     C_3   0.007496 0.001133 0.937548 -0.150456
C33   C     C_3   0.899519 0.072710 0.006595 0.446202
C34   C     C_3   0.100480 0.927290 0.993405 0.446202
C35   C     C_3   0.681112 0.995335 0.479137 -0.133991
C36   C     C_3   0.318888 0.004665 0.520862 -0.133991
C37   C     C_3   0.602723 0.073942 0.507655 -0.131147
C38   C     C_3   0.397277 0.926058 0.492345 -0.131147
H15   H     H_    0.687409 0.134993 0.514411 0.111781
H16   H     H_    0.312591 0.865007 0.485589 0.111781
H17   H     H_    0.830602 0.991567 0.461717 0.115973
H18   H     H_    0.169398 0.008433 0.538283 0.115973
C39   C     C_3   0.502809 0.998990 0.562246 -0.015657
C40   C     C_3   0.497191 0.001010 0.437754 -0.015657
C41   C     C_3   0.581236 0.920399 0.534538 -0.108157
C42   C     C_3   0.418764 0.079601 0.465462 -0.108157
H19   H     H_    0.647946 0.854679 0.563480 0.152411
H20   H     H_    0.352054 0.145321 0.436520 0.152411
C43   C     C_R   0.501663 0.277404 0.179048 -0.119627
C44   C     C_R   0.498337 0.722596 0.820952 -0.119627
C45   C     C_R   0.562888 0.433166 0.191024 -0.136840
C46   C     C_R   0.437111 0.566834 0.808976 -0.136840
C47   C     C_R   0.543452 0.337002 0.218690 0.344502
C48   C     C_R   0.456548 0.662998 0.781310 0.344502
C49   C     C_R   0.480176 0.314142 0.112055 -0.200144
C50   C     C_R   0.519823 0.685858 0.887945 -0.200144
C51   C     C_R   0.502807 0.411475 0.082337 0.064215
C52   C     C_R   0.497193 0.588525 0.917663 0.064215
C53   C     C_R   0.544075 0.471398 0.123367 -0.017674
C54   C     C_R   0.455925 0.528602 0.876633 -0.017674
C55   C     C_R   0.487208 0.450672 0.013442 -0.001497
C56   C     C_R   0.512792 0.549328 0.986558 -0.001497
C57   C     C_R   0.552203 0.605788 0.029429 -0.136425
C58   C     C_R   0.447797 0.394211 0.970571 -0.136425
C59   C     C_R   0.567019 0.568292 0.096166 0.390705
C60   C     C_R   0.432981 0.431708 0.903834 0.390705
H21   H     H_    0.551648 0.736170 0.915134 0.148685
H22   H     H_    0.448352 0.263830 0.084865 0.148685
H23   H     H_    0.594666 0.477279 0.223130 0.198160
H24   H     H_    0.405334 0.522721 0.776869 0.198160
H25   H     H_    0.572969 0.680496 0.012980 0.187070
H26   H     H_    0.427031 0.319504 0.987020 0.187070
Cl1   Cl    Cl    0.615328 0.647457 0.143855 -0.680812
Cl2   Cl    Cl    0.384671 0.352543 0.856145 -0.680812
Cl3   Cl    Cl    0.427618 0.706921 0.696643 -0.716038
Cl4   Cl    Cl    0.572382 0.293079 0.303356 -0.716038
Cl5   Cl    Cl    0.764213 0.170380 0.015207 -0.675209
Cl6   Cl    Cl    0.235787 0.829620 0.984793 -0.675209

loop_
_geom_bond_atom_site_label_1
_geom_bond_atom_site_label_2
_ccdc_geom_bond_type
C27   C32   S    
C29   H11   S    
C50   H21   S    
C43   C47   A    
O13   V3    S    
C5    C31   S    
O4    C2    A    
V1    O19   S    
C6    C32   S    
C23   C25   A    
C21   C22   A    
C7    C9    S    
O9    V1    S    
C9    C15   A    
C36   C38   S    
C10   C16   A    
C11   C13   A    
C42   H20   S    
C12   H8    S    
C36   C42   S    
C51   C55   A    
C37   C42   S    
C15   H4    S    
C57   H25   S    
C52   C56   A    
C59   Cl1   S    
C18   C22   A    
C30   C33   S    
C31   C33   S    
O7    C3    A    
C28   C30   S    
O5    C7    A    
C13   H6    S    
O7    V1    S    
O6    C8    A    
C14   H5    S    
C29   C31   S    
O8    V2    S    
C25   H1    S    
C52   C54   A    
C26   H2    S    
O3    V1    S    
O14   V4    S    
C30   C32   S    
C45   C47   A    
C11   C19   A    
C48   Cl3   S    
C17   C19   A    
C24   H10   S    
C27   C33   S    
C2    O12   A    
C24   C26   A    
C8    C10   S    
C49   C51   A    
C36   H18   S    
C35   C37   S    
C3    C43   S    
C18   C20   A    
C38   C41   S    
O1    V3    S    
C39   C41   S    
O11   V3    S    
O17   V3    S    
C44   C50   A    
C33   Cl5   S    
C2    C39   S    
C44   C48   A    
C15   C17   A    
O8    C4    A    
C38   C40   S    
C60   Cl2   S    
C37   C39   S    
C1    O11   A    
C1    C40   S    
O15   V3    S    
C9    C13   A    
C28   C31   S    
C45   C53   A    
C30   H12   S    
C58   C60   A    
C49   H22   S    
C27   H13   S    
C46   C48   A    
C55   C56   A    
O10   V2    S    
C27   C29   S    
C35   H17   S    
C28   C34   S    
C50   C52   A    
C37   H15   S    
C53   C59   A    
C41   H19   S    
O18   V4    S    
C40   C42   S    
O15   C5    A    
O16   C6    A    
C12   C20   A    
C46   H24   S    
O1    C3    A    
O2    V4    S    
C36   C39   S    
C35   C40   S    
V2    O20   S    
C21   C24   A    
C20   C26   A    
O10   C6    A    
C22   C23   A    
O16   V4    S    
C10   C14   A    
O18   C8    A    
C19   C25   A    
C38   H16   S    
C16   C18   A    
C51   C53   A    
O5    V1    S    
O17   C7    A    
O6    V2    S    
C34   Cl6   S    
O3    C1    A    
C47   Cl4   S    
C28   H14   S    
C11   H7    S    
C12   C14   A    
C4    C44   S    
V3    O19   S    
V4    O20   S    
C54   C60   A    
C43   C49   A    
O9    C5    A    
C56   C57   A    
O13   V1    S    
C46   C54   A    
O14   V2    S    
O2    C4    A    
C58   H26   S    
C23   H9    S    
C45   H23   S    
O4    V2    S    
C55   C58   A    
C29   C34   S    
C57   C59   A    
C16   H3    S    
C17   C21   A    
C32   C34   S    
O12   V4    S    
C35   C41   S    
