data_mof_unit_60191.cif
_audit_creation_date              2012-10-26T19:33:06-0400
_audit_creation_method            fapswitch 2.2
_symmetry_space_group_name_H-M    P1
_symmetry_Int_Tables_number       1
_space_group_crystal_system       triclinic
_cell_length_a                    15.872348
_cell_length_b                    15.09194
_cell_length_c                    13.875475
_cell_angle_alpha                 89.696331
_cell_angle_beta                  89.070963
_cell_angle_gamma                 89.918908
_cell_volume                      3323.30750182

loop_
_atom_site_label
_atom_site_type_symbol
_atom_type_description
_atom_site_fract_x
_atom_site_fract_y
_atom_site_fract_z
_atom_type_partial_charge
Br1   Br    Br    0.361733 0.363324 0.055155 -0.302629
Br2   Br    Br    0.366957 0.630507 0.734262 -0.315892
Br3   Br    Br    0.639444 0.364052 0.946276 -0.321955
Br4   Br    Br    0.924986 0.402792 0.694539 -0.293375
Br5   Br    Br    0.075086 0.598318 0.306045 -0.259129
Br6   Br    Br    0.351530 0.033601 0.637323 -0.257897
Br7   Br    Br    0.348787 0.966391 0.371930 -0.260597
Br8   Br    Br    0.350322 0.254110 0.627886 -0.309693
Br9   Br    Br    0.348149 0.745800 0.381484 -0.277031
Br10  Br    Br    0.632173 0.631048 0.264529 -0.312171
C1    C     C_R   0.499436 0.329968 0.500309 0.587910
C2    C     C_R   0.553148 0.907555 0.551334 -0.123612
C3    C     C_R   0.490695 0.048310 0.500250 -0.008439
C4    C     C_R   0.490764 0.951554 0.499930 -0.007514
C5    C     C_R   0.562937 0.538886 0.102475 -0.052426
C6    C     C_R   0.436953 0.538581 0.897162 -0.052927
C7    C     C_R   0.558416 0.547032 0.204566 0.295359
C8    C     C_R   0.441327 0.546747 0.794981 0.296262
C9    C     C_R   0.444055 0.446623 0.213199 0.082224
C10   C     C_R   0.556320 0.446820 0.787353 0.085153
C11   C     C_R   0.442931 0.440297 0.111889 0.166248
C12   C     C_R   0.499477 0.669998 0.499701 0.609538
C13   C     C_R   0.557620 0.440564 0.888744 0.168659
C14   C     C_R   0.502171 0.487397 0.054563 -0.028501
C15   C     C_R   0.498118 0.487405 0.945596 -0.026391
C16   C     C_R   0.339822 0.500073 0.500657 0.579138
C17   C     C_R   0.660180 0.499826 0.499353 0.616221
C18   C     C_3   0.969706 0.460215 0.579442 0.151084
C19   C     C_3   0.030295 0.540750 0.421025 0.151776
C20   C     C_3   0.027148 0.416915 0.502503 0.037807
C21   C     C_3   0.972842 0.584037 0.497975 0.039414
C22   C     C_1   0.250278 0.500255 0.502085 0.107466
C23   C     C_R   0.435471 0.188738 0.556717 0.153253
C24   C     C_1   0.749731 0.500061 0.498001 0.119310
C25   C     C_3   0.026597 0.543705 0.579349 -0.127572
C26   C     C_3   0.973419 0.457246 0.421115 -0.135325
C27   C     C_3   0.083256 0.499754 0.501659 -0.021347
C28   C     C_3   0.916746 0.501189 0.498801 -0.023132
C29   C     C_1   0.174830 0.500206 0.502413 0.090191
C30   C     C_1   0.825176 0.500475 0.497854 0.084354
C31   C     C_R   0.432838 0.095898 0.557396 0.225412
C32   C     C_R   0.431759 0.904031 0.446632 0.228000
C33   C     C_2   0.055993 0.322327 0.505012 0.647417
C34   C     C_R   0.434469 0.811199 0.447256 0.162571
C35   C     C_2   0.943883 0.678588 0.495692 0.642821
C36   C     C_2   0.628045 0.226308 0.390122 0.611182
C37   C     C_2   0.630735 0.773305 0.600829 0.609417
C38   C     C_2   0.634742 0.579781 0.047676 0.647547
C39   C     C_2   0.364913 0.579130 0.951580 0.651674
C40   C     C_R   0.498132 0.233194 0.501310 -0.029559
C41   C     C_R   0.498232 0.766704 0.498670 -0.017202
C42   C     C_R   0.557478 0.184399 0.445530 0.013118
C43   C     C_R   0.558840 0.815372 0.550319 0.017301
C44   C     C_R   0.551813 0.092237 0.444758 -0.124130
Cu1   Cu    Cu3+1 0.500000 0.499990 0.596430 1.116856
Cu2   Cu    Cu3+1 0.500000 0.500010 0.403570 1.115474
H1    H     H_    0.399540 0.408252 0.255906 0.168310
H2    H     H_    0.714481 0.780695 0.708392 0.375494
H3    H     H_    0.562054 0.655289 0.960959 0.292953
H4    H     H_    0.437159 0.655077 0.037248 0.294031
H5    H     H_    0.601024 0.408613 0.745034 0.170154
H6    H     H_    0.951141 0.421980 0.356316 0.184162
H7    H     H_    0.048890 0.578966 0.644144 0.191580
H8    H     H_    0.596792 0.053669 0.402782 0.188672
H9    H     H_    0.599020 0.946093 0.590204 0.187676
H10   H     H_    0.153260 0.236423 0.509735 0.385481
H11   H     H_    0.846444 0.764352 0.492058 0.370733
H12   H     H_    0.707947 0.219568 0.275740 0.373702
N1    N     N_R   0.500000 0.500020 0.258690 -0.254153
N2    N     N_R   0.500000 0.499980 0.741310 -0.254702
O1    O     O_R   0.500010 0.371450 0.581430 -0.484917
O2    O     O_R   0.141910 0.302535 0.508182 -0.649674
O3    O     O_2   0.995921 0.738167 0.496267 -0.413242
O4    O     O_R   0.857916 0.698257 0.493135 -0.644929
O5    O     O_2   0.660465 0.294639 0.418422 -0.502497
O6    O     O_R   0.659554 0.185462 0.306748 -0.642630
O7    O     O_2   0.661534 0.704103 0.571290 -0.480502
O8    O     O_R   0.665364 0.814951 0.680793 -0.646243
O9    O     O_2   0.706682 0.560943 0.070032 -0.344748
O10   O     O_R   0.622863 0.638326 0.970656 -0.613425
O11   O     O_2   0.293083 0.559891 0.929575 -0.334852
O12   O     O_R   0.499990 0.628550 0.418570 -0.450625
O13   O     O_R   0.376460 0.637792 0.027861 -0.594677
O14   O     O_R   0.500010 0.371460 0.418560 -0.496583
O15   O     O_R   0.499990 0.628540 0.581440 -0.459727
O16   O     O_R   0.379080 0.499990 0.581420 -0.456605
O17   O     O_R   0.620920 0.500010 0.418580 -0.452292
O18   O     O_R   0.379080 0.500000 0.418550 -0.504539
O19   O     O_R   0.620920 0.500000 0.581450 -0.500593
O20   O     O_2   0.003888 0.262818 0.504210 -0.422505

loop_
_geom_bond_atom_site_label_1
_geom_bond_atom_site_label_2
_ccdc_geom_bond_type
C8    N2    A    
Cu1   Cu2   S    
Br1   C11   S    
C33   O2    S    
Br2   C8    S    
Br3   C13   S    
C36   O6    S    
C9    H1    S    
C16   C22   S    
C19   C26   S    
C24   C30   T    
C12   O12   A    
C38   O9    D    
C25   C27   S    
H4    O13   S    
C1    O1    A    
Cu2   O18   S    
Br10  C7    S    
C36   C42   S    
C35   O3    D    
Br7   C32   S    
C39   O11   D    
C10   H5    S    
H10   O2    S    
C18   C25   S    
Br6   C31   S    
C40   C42   A    
C2    C43   A    
C12   O15   A    
C4    C32   A    
C3    C4    S    
C19   C21   S    
C10   N2    A    
C32   C34   A    
C5    C38   S    
C26   H6    S    
C3    C31   A    
C36   O5    D    
Br4   C18   S    
C42   C44   A    
Cu2   O14   S    
Br5   C19   S    
C17   C24   S    
C33   O20   D    
C14   C15   S    
Cu2   O17   S    
C23   C40   A    
C20   C27   S    
C35   O4    S    
C41   C43   A    
Cu1   O15   S    
C10   C13   A    
C18   C28   S    
C16   O16   A    
H11   O4    S    
C6    C39   S    
C17   O17   A    
C34   C41   A    
C6    C8    A    
C5    C14   A    
C2    C4    A    
C21   C25   S    
C20   C33   S    
C9    N1    A    
C37   O7    D    
C3    C44   A    
C6    C15   A    
C5    C7    A    
C7    N1    A    
Br9   C34   S    
C9    C11   A    
H3    O10   S    
Cu2   O12   S    
C1    O14   A    
H12   O6    S    
C2    H9    S    
C21   C28   S    
C20   C26   S    
C23   C31   A    
C38   O10   S    
Cu1   O16   S    
C18   C20   S    
C27   C29   S    
C1    C40   S    
C28   C30   S    
C39   O13   S    
C44   H8    S    
C37   C43   S    
C26   C28   S    
C17   O19   A    
Br8   C23   S    
C13   C15   A    
Cu1   O19   S    
Cu1   N2    S    
H2    O8    S    
C16   O18   A    
Cu2   N1    S    
C21   C35   S    
C11   C14   A    
C19   C27   S    
C22   C29   T    
C25   H7    S    
C37   O8    S    
Cu1   O1    S    
C12   C41   S    
