data_mof_unit_23673.cif
_audit_creation_date              2012-10-26T19:27:19-0400
_audit_creation_method            fapswitch 2.2
_symmetry_space_group_name_H-M    P1
_symmetry_Int_Tables_number       1
_space_group_crystal_system       triclinic
_cell_length_a                    13.829465
_cell_length_b                    15.097665
_cell_length_c                    17.342903
_cell_angle_alpha                 87.230591
_cell_angle_beta                  86.701688
_cell_angle_gamma                 90.741156
_cell_volume                      3610.40150488

loop_
_atom_site_label
_atom_site_type_symbol
_atom_type_description
_atom_site_fract_x
_atom_site_fract_y
_atom_site_fract_z
_atom_type_partial_charge
C1    C     C_R   0.500469 0.671421 0.499109 0.564119
C2    C     C_R   0.411273 0.905253 0.511756 -0.010469
C3    C     C_R   0.495709 0.047513 0.485620 0.033868
C4    C     C_R   0.495984 0.954531 0.485539 0.041451
C5    C     C_R   0.409862 0.091600 0.509351 0.014848
C6    C     C_R   0.581539 0.910432 0.460783 -0.024377
C7    C     C_R   0.664409 0.053643 0.432081 0.022614
C8    C     C_R   0.324676 0.949195 0.533685 -0.000576
C9    C     C_R   0.664303 0.960016 0.430560 0.018961
C10   C     C_R   0.323344 0.042789 0.530429 0.026634
C11   C     C_R   0.209726 0.556674 0.450259 0.118618
C12   C     C_R   0.499457 0.328837 0.498855 0.588243
C13   C     C_R   0.790059 0.441458 0.548908 0.119267
C14   C     C_R   0.202812 0.447975 0.554324 0.141269
C15   C     C_R   0.797407 0.564191 0.457600 0.138639
C16   C     C_R   0.488162 0.502904 0.649505 0.601519
C17   C     C_R   0.511717 0.496028 0.350565 0.572814
C18   C     C_R   0.099137 0.453546 0.562562 -0.015710
C19   C     C_R   0.900173 0.572894 0.463935 -0.013868
C20   C     C_R   0.051386 0.510636 0.510627 0.011534
C21   C     C_R   0.947900 0.510551 0.510923 0.011522
C22   C     C_R   0.107043 0.568922 0.458978 -0.028732
C23   C     C_R   0.412949 0.184067 0.513071 -0.069446
C24   C     C_R   0.892000 0.449608 0.559546 -0.065785
C25   C     C_R   0.041523 0.407380 0.622943 0.004286
C26   C     C_R   0.956181 0.645216 0.428819 0.008438
C27   C     C_R   0.939171 0.402440 0.619833 -0.024397
C28   C     C_R   0.058840 0.641113 0.422103 0.010846
C29   C     C_R   0.484664 0.503152 0.733847 0.018997
C30   C     C_R   0.514381 0.492022 0.266365 0.011550
C31   C     C_R   0.558247 0.545622 0.772717 0.012449
C32   C     C_R   0.440151 0.447612 0.229637 0.023933
C33   C     C_R   0.563907 0.527626 0.851707 -0.123636
C34   C     C_R   0.582804 0.817292 0.468390 -0.105360
C35   C     C_R   0.432513 0.462941 0.150510 -0.112248
C36   C     C_R   0.494826 0.473045 0.893247 -0.011860
C37   C     C_R   0.500287 0.516760 0.106832 -0.010928
C38   C     C_R   0.417207 0.435653 0.856011 0.025256
C39   C     C_R   0.579127 0.555206 0.141823 0.022657
C40   C     C_R   0.413441 0.451060 0.776032 -0.082400
C41   C     C_R   0.584932 0.542327 0.221853 -0.103395
C42   C     C_2   0.503911 0.460357 0.976774 -0.069584
C43   C     C_2   0.488359 0.528371 0.023613 -0.067436
C44   C     C_2   0.628728 0.611190 0.734571 0.267327
C45   C     C_R   0.498030 0.232428 0.493858 0.018386
C46   C     C_2   0.370867 0.382786 0.270288 0.292875
C47   C     C_2   0.265037 0.595757 0.381298 0.283002
C48   C     C_2   0.738253 0.360484 0.580523 0.293185
C49   C     C_1   0.252868 0.381127 0.598160 0.305100
C50   C     C_1   0.749599 0.617946 0.400724 0.284817
C51   C     C_2   0.084488 0.376993 0.696167 0.269416
C52   C     C_2   0.910207 0.732552 0.416449 0.261143
C53   C     C_2   0.881595 0.361130 0.687568 0.239615
C54   C     C_2   0.115169 0.719940 0.388575 0.268280
C55   C     C_1   0.455526 0.613902 0.994704 0.219278
C56   C     C_R   0.500331 0.768644 0.495487 0.016240
C57   C     C_1   0.536442 0.374746 0.005698 0.211744
C58   C     C_2   0.340222 0.381129 0.899689 0.279326
C59   C     C_2   0.655195 0.608437 0.095763 0.267580
C60   C     C_2   0.749709 0.106856 0.399199 0.303749
C61   C     C_2   0.234306 0.897087 0.555964 0.243047
C62   C     C_2   0.750106 0.913988 0.396605 0.323023
C63   C     C_2   0.230095 0.088881 0.545490 0.259623
C64   C     C_R   0.580917 0.189379 0.467373 -0.114960
C65   C     C_R   0.415423 0.812429 0.516485 -0.121894
C66   C     C_R   0.581348 0.096895 0.462237 -0.019677
Cu1   Cu    Cu3+1 0.402580 0.500010 0.500000 1.024012
Cu2   Cu    Cu3+1 0.597420 0.499990 0.500000 1.060396
H1    H     H_    0.642894 0.573904 0.249906 0.195146
H2    H     H_    0.301834 0.369338 0.246053 0.132382
H3    H     H_    0.327786 0.637902 0.386581 0.126107
H4    H     H_    0.757364 0.297087 0.557439 0.097127
H5    H     H_    0.072384 0.309669 0.719673 0.186294
H6    H     H_    0.923462 0.771878 0.362875 0.191921
H7    H     H_    0.825522 0.398854 0.716847 0.154828
H8    H     H_    0.175894 0.745182 0.418279 0.071703
H9    H     H_    0.340402 0.371295 0.962032 0.114923
H10   H     H_    0.653408 0.616393 0.033381 0.115811
H11   H     H_    0.783588 0.155443 0.433515 0.101983
H12   H     H_    0.356480 0.420176 0.746077 0.205781
H13   H     H_    0.211933 0.844093 0.520599 0.101990
H14   H     H_    0.740306 0.857015 0.361895 0.121384
H15   H     H_    0.185910 0.073847 0.598239 0.181384
H16   H     H_    0.374427 0.431256 0.121960 0.116232
H17   H     H_    0.621237 0.558162 0.881950 0.110712
H18   H     H_    0.349725 0.219286 0.532753 0.186140
H19   H     H_    0.647892 0.781569 0.453960 0.162936
H20   H     H_    0.644510 0.229397 0.449995 0.110397
H21   H     H_    0.353170 0.772872 0.538357 0.127146
H22   H     H_    0.697129 0.623373 0.760241 0.116723
N1    N     N_R   0.256180 0.500070 0.500030 -0.279463
N2    N     N_R   0.743820 0.499930 0.499970 -0.267367
N3    N     N_1   0.291797 0.327263 0.634089 -0.301351
N4    N     N_1   0.712441 0.661959 0.355004 -0.325854
N5    N     N_1   0.429367 0.682147 0.971628 -0.219614
N6    N     N_1   0.562367 0.306425 0.028790 -0.223229
O1    O     O_R   0.417720 0.629750 0.499980 -0.556996
O2    O     O_2   0.391738 0.340394 0.328560 -0.469172
O3    O     O_2   0.239684 0.581209 0.316748 -0.474551
O4    O     O_2   0.678615 0.362553 0.634977 -0.483638
O5    O     O_2   0.131798 0.428457 0.731733 -0.457584
O6    O     O_2   0.858183 0.761869 0.468178 -0.475261
O7    O     O_2   0.894688 0.284415 0.709566 -0.474592
O8    O     O_2   0.096463 0.755038 0.326418 -0.448197
O9    O     O_2   0.275026 0.346617 0.866523 -0.437458
O10   O     O_2   0.721461 0.643931 0.126975 -0.458585
O11   O     O_2   0.781206 0.097903 0.332848 -0.422168
O12   O     O_R   0.582280 0.370250 0.500020 -0.507470
O13   O     O_2   0.186007 0.911045 0.615135 -0.469225
O14   O     O_2   0.832404 0.938452 0.407939 -0.409667
O15   O     O_2   0.200997 0.142761 0.497738 -0.472975
O16   O     O_R   0.582260 0.629730 0.499990 -0.471528
O17   O     O_R   0.417740 0.370270 0.500010 -0.478391
O18   O     O_R   0.408190 0.500030 0.613590 -0.515510
O19   O     O_R   0.591810 0.499970 0.386410 -0.519227
O20   O     O_R   0.572730 0.500000 0.613600 -0.422702
O21   O     O_R   0.427270 0.500000 0.386400 -0.483011
O22   O     O_2   0.609542 0.655519 0.676859 -0.463019

loop_
_geom_bond_atom_site_label_1
_geom_bond_atom_site_label_2
_ccdc_geom_bond_type
C30   C32   A    
C60   H11   S    
C34   C56   A    
C23   C45   A    
C14   C18   A    
C36   C42   S    
C10   C63   S    
C24   C27   A    
C2    C65   A    
C61   O13   D    
C6    C9    A    
C39   C41   A    
C46   O2    D    
C65   H21   S    
C52   O6    D    
C54   O8    D    
C35   C37   A    
C1    C56   S    
C52   H6    S    
C1    O16   A    
C14   C49   S    
C40   H12   S    
C56   C65   A    
C33   C36   A    
C47   O3    D    
C42   C57   S    
Cu2   O16   S    
C15   C50   S    
C19   C26   A    
C33   H17   S    
C58   H9    S    
C15   N2    A    
C38   C58   S    
C11   C47   S    
C57   N6    T    
C5    C23   A    
C31   C33   A    
C30   C41   A    
C17   O21   A    
C8    C61   S    
C62   H14   S    
C22   C28   A    
C17   C30   S    
C53   H7    S    
C18   C25   A    
C48   H4    S    
C16   O20   A    
C59   H10   S    
C48   O4    D    
C59   O10   D    
C31   C44   S    
Cu1   Cu2   S    
C32   C35   A    
C4    C6    A    
C1    O1    A    
C12   O12   A    
C28   C54   S    
C50   N4    T    
C16   C29   S    
C23   H18   S    
C6    C34   A    
C13   C24   A    
C63   H15   S    
C64   C66   A    
C37   C43   S    
C15   C19   A    
C25   C51   S    
C26   C52   S    
C62   O14   D    
C44   O22   D    
C39   C59   S    
Cu1   N1    S    
Cu1   O21   S    
C47   H3    S    
C60   O11   D    
Cu2   O20   S    
C54   H8    S    
C55   N5    T    
C20   C22   A    
C13   N2    A    
C3    C66   A    
C51   O5    D    
C42   C43   D    
C3    C4    A    
C7    C60   S    
C44   H22   S    
C17   O19   A    
C41   H1    S    
C12   O17   A    
C43   C55   S    
C7    C9    A    
C45   C64   A    
C19   C21   A    
C32   C46   S    
Cu1   O18   S    
C8    C10   A    
C2    C8    A    
C51   H5    S    
C12   C45   S    
C3    C5    A    
C16   O18   A    
C13   C48   S    
C35   H16   S    
C27   C53   S    
C25   C27   A    
C11   C22   A    
C26   C28   A    
C9    C62   S    
C58   O9    D    
C36   C38   A    
Cu1   O17   S    
C5    C10   A    
C29   C31   A    
C61   H13   S    
C7    C66   A    
C38   C40   A    
C53   O7    D    
C2    C4    A    
C29   C40   A    
Cu2   N2    S    
C18   C20   A    
C34   H19   S    
C63   O15   D    
C14   N1    A    
C46   H2    S    
Cu1   O1    S    
Cu2   O19   S    
C11   N1    A    
C20   C21   A    
C37   C39   A    
C21   C24   A    
Cu2   O12   S    
C49   N3    T    
C64   H20   S    
