data_mof_unit_51692.cif
_audit_creation_date              2012-12-11T17:10:40-0500
_audit_creation_method            fapswitch 2.2
_symmetry_space_group_name_H-M    P1
_symmetry_Int_Tables_number       1
_space_group_crystal_system       triclinic
_cell_length_a                    15.041819
_cell_length_b                    14.819538
_cell_length_c                    14.895483
_cell_angle_alpha                 109.405923
_cell_angle_beta                  110.294543
_cell_angle_gamma                 109.094322
_cell_volume                      2543.72126149

loop_
_atom_site_label
_atom_site_type_symbol
_atom_type_description
_atom_site_fract_x
_atom_site_fract_y
_atom_site_fract_z
_atom_type_partial_charge
C1    C     C_R   0.187045 0.278171 0.255102 -0.134370
C2    C     C_R   0.452601 0.449135 0.776299 0.076400
C3    C     C_R   0.562660 0.194916 0.496777 0.123565
C4    C     C_R   0.207789 0.578532 0.503827 0.066380
C5    C     C_R   0.479254 0.721083 0.408203 -0.153287
C6    C     C_R   0.813786 0.562369 0.595143 -0.105533
C7    C     C_R   0.495981 0.403697 0.196505 -0.148516
C8    C     C_R   0.708013 0.798860 0.805896 -0.065990
C9    C     C_R   0.800290 0.708988 0.805415 -0.134720
C10   C     C_R   0.404571 0.494670 0.194039 -0.138682
C11   C     C_R   0.564017 0.816041 0.592218 -0.070856
C12   C     C_R   0.525998 0.432240 0.746718 -0.145411
C13   C     C_R   0.724882 0.463782 0.409835 -0.133359
C14   C     C_R   0.553560 0.825985 0.499610 0.132963
C15   C     C_R   0.827807 0.536398 0.505471 0.052126
C16   C     C_R   0.435118 0.432978 0.131352 0.080790
C17   C     C_R   0.801908 0.801737 0.870571 0.073700
C18   C     C_R   0.137864 0.717362 0.269577 -0.119774
C19   C     C_R   0.135554 0.700337 0.355772 -0.133730
C20   C     C_R   0.048868 0.605091 0.332699 0.114922
C21   C     C_R   0.966330 0.525846 0.222005 -0.173242
C22   C     C_R   0.970245 0.542253 0.135988 -0.098691
C23   C     C_R   0.502182 0.199220 0.406692 -0.166955
C24   C     C_R   0.055416 0.638446 0.159906 -0.095275
C25   C     C_R   0.943568 0.577186 0.426453 -0.229775
C26   C     C_R   0.933239 0.569284 0.513756 0.057326
C27   C     C_R   0.023766 0.590536 0.607070 0.018837
C28   C     C_R   0.120086 0.614826 0.607983 -0.197366
C29   C     C_R   0.125273 0.604578 0.513411 0.046494
C30   C     C_R   0.039476 0.593868 0.424558 0.021555
C31   C     C_R   0.080428 0.651403 0.808919 0.029480
C32   C     C_R   0.076758 0.621680 0.888537 -0.193404
C33   C     C_R   0.013699 0.511780 0.857311 -0.118637
C34   C     C_R   0.299757 0.604344 0.593233 -0.148080
C35   C     C_R   0.953567 0.429709 0.746229 -0.094854
C36   C     C_R   0.955902 0.457062 0.665794 -0.142556
C37   C     C_R   0.018080 0.567451 0.695444 0.035988
C38   C     C_R   0.451590 0.344659 0.876892 0.172311
C39   C     C_R   0.408009 0.400122 0.832089 0.024892
C40   C     C_R   0.335491 0.425127 0.860406 -0.186951
C41   C     C_R   0.331876 0.422407 0.952218 -0.174545
C42   C     C_R   0.399900 0.393507 0.014444 0.025171
C43   C     C_R   0.447110 0.340987 0.966597 0.153830
C44   C     C_3   0.557947 0.351910 0.016659 -0.523686
C45   C     C_R   0.594460 0.289038 0.590121 -0.146266
C46   C     C_3   0.563320 0.356647 0.919136 -0.520794
C47   C     C_R   0.545482 0.922653 0.392251 0.131157
C48   C     C_R   0.599400 0.926436 0.492982 -0.157478
C49   C     C_R   0.680891 0.032889 0.586970 0.528091
C50   C     C_R   0.676578 0.125825 0.585868 -0.379876
C51   C     C_R   0.598103 0.113737 0.490850 -0.022666
C52   C     C_R   0.545462 0.015264 0.391438 0.169830
C53   C     C_3   0.430677 0.951146 0.295946 -0.521317
C54   C     C_3   0.429649 0.849380 0.296332 -0.498966
C55   C     C_R   0.971115 0.069852 0.133085 0.156521
C56   C     C_R   0.203003 0.510114 0.410269 -0.141692
C57   C     C_R   0.071219 0.071377 0.171400 0.045302
C58   C     C_R   0.067847 0.968937 0.137741 -0.186633
C59   C     C_R   0.972298 0.873182 0.046003 -0.176723
C60   C     C_R   0.880124 0.880110 0.989062 0.039129
C61   C     C_R   0.876512 0.974913 0.043504 0.095732
C62   C     C_3   0.834907 0.038463 0.999256 -0.412660
C63   C     C_3   0.937472 0.142025 0.096539 -0.511432
C64   C     C_R   0.436526 0.526778 0.750588 -0.128850
C65   C     C_R   0.276793 0.184199 0.249295 -0.118476
C66   C     C_R   0.174596 0.173765 0.225171 0.069333
H1    H     H_    0.127178 0.302793 0.254481 0.108948
H2    H     H_    0.873984 0.619230 0.681285 0.105484
H3    H     H_    0.516050 0.339937 0.169285 0.096993
H4    H     H_    0.672386 0.846051 0.834617 0.086657
H5    H     H_    0.851054 0.675583 0.833601 0.092405
H6    H     H_    0.343448 0.517025 0.163920 0.090354
H7    H     H_    0.611788 0.880146 0.677833 0.178584
H8    H     H_    0.705615 0.425993 0.324832 0.095002
H9    H     H_    0.056826 0.652553 0.093660 0.094682
H10   H     H_    0.202193 0.792856 0.287882 0.109508
H11   H     H_    0.198947 0.763189 0.440543 0.113711
H12   H     H_    0.553216 0.374092 0.749952 0.110733
H13   H     H_    0.898597 0.452035 0.202508 0.114091
H14   H     H_    0.906265 0.481327 0.050942 0.107755
H15   H     H_    0.875946 0.567772 0.358609 0.131614
H16   H     H_    0.185333 0.624103 0.677715 0.123674
H17   H     H_    0.122789 0.684150 0.975321 0.115322
H18   H     H_    0.011907 0.490029 0.919448 0.120475
H19   H     H_    0.906016 0.344511 0.722491 0.149071
H20   H     H_    0.909828 0.391888 0.579993 0.126421
H21   H     H_    0.292840 0.460194 0.821991 0.133026
H22   H     H_    0.481576 0.151233 0.322524 0.102019
H23   H     H_    0.286784 0.455668 0.981167 0.131714
H24   H     H_    0.620021 0.430692 0.096113 0.202774
H25   H     H_    0.554004 0.276093 0.017830 0.189547
H26   H     H_    0.628415 0.438410 0.944066 0.200415
H27   H     H_    0.563180 0.283909 0.864665 0.194427
H28   H     H_    0.727854 0.204825 0.661777 0.155194
H29   H     H_    0.372764 0.969369 0.318268 0.195025
H30   H     H_    0.426362 0.953202 0.220670 0.187236
H31   H     H_    0.370927 0.809717 0.318699 0.195619
H32   H     H_    0.338319 0.668189 0.678243 0.092239
H33   H     H_    0.423696 0.792580 0.220680 0.189515
H34   H     H_    0.141371 0.964104 0.171185 0.122610
H35   H     H_    0.976615 0.798896 0.012618 0.121682
H36   H     H_    0.832109 0.023126 0.920028 0.280560
H37   H     H_    0.759485 0.031215 0.000553 0.184426
H38   H     H_    0.989553 0.185401 0.070007 0.221273
H39   H     H_    0.921715 0.194756 0.154955 0.188106
H40   H     H_    0.655941 0.320603 0.674281 0.089976
H41   H     H_    0.146634 0.481691 0.325253 0.108878
H42   H     H_    0.383670 0.558764 0.761208 0.095544
H43   H     H_    0.297835 0.119891 0.237796 0.095542
H44   H     H_    0.455136 0.696251 0.323175 0.119624
N1    N     N_R   0.291070 0.347930 0.293870 -0.040571
N2    N     N_R   0.708930 0.502750 0.556810 -0.041226
N3    N     N_R   0.502760 0.445970 0.293860 -0.036103
N4    N     N_R   0.652110 0.708890 0.706130 -0.039827
N5    N     N_R   0.708930 0.652070 0.706130 -0.039524
N6    N     N_R   0.445950 0.502780 0.293850 -0.037050
N7    N     N_R   0.502760 0.708900 0.556790 -0.059734
N8    N     N_R   0.652110 0.445950 0.443190 -0.039529
N9    N     N_R   0.554050 0.497220 0.706150 -0.043051
N10   N     N_R   0.497240 0.291100 0.443210 -0.039745
N11   N     N_R   0.347890 0.554050 0.556810 -0.038265
N12   N     N_R   0.554050 0.347900 0.556830 -0.039862
N13   N     N_R   0.291070 0.497250 0.443190 -0.040241
N14   N     N_R   0.497240 0.554030 0.706140 -0.045427
N15   N     N_R   0.347890 0.291110 0.293870 -0.041940
N16   N     N_R   0.445950 0.652100 0.443170 -0.045105
Ni1   Ni    Ni4+2 0.369690 0.500010 0.369700 0.218784
Ni2   Ni    Ni4+2 0.630310 0.499990 0.630300 0.215064
Ni3   Ni    Ni4+2 0.500000 0.369720 0.369720 0.210377
Ni4   Ni    Ni4+2 0.500000 0.630280 0.630280 0.213096
C67   C     C_R   0.149230 0.769912 0.847170 0.105328
C68   C     C_R   0.257555 0.831336 0.937065 -0.163352
C69   C     C_R   0.321443 0.943860 0.976812 -0.124996
C70   C     C_R   0.278069 0.996360 0.927482 -0.094477
C71   C     C_R   0.170711 0.936361 0.838273 -0.075264
C72   C     C_R   0.106411 0.823848 0.798320 -0.131528
H45   H     H_    0.292707 0.792114 0.976409 0.110452
H46   H     H_    0.404578 0.990426 0.046072 0.101321
H47   H     H_    0.327555 0.083549 0.958511 0.104498
H48   H     H_    0.136989 0.977235 0.800424 0.133951
H49   H     H_    0.023038 0.779877 0.730481 0.117555
S1    S     S_3+6 0.783761 0.057430 0.710064 -0.085320
O1    O     O_2   0.798391 0.958691 0.693533 -0.288157
O2    O     O_2   0.890556 0.153900 0.749022 -0.305529
O3    O     O_3   0.748007 0.089673 0.806417 -0.594234
H50   H     H_    0.759856 0.165187 0.827166 0.341421

loop_
_geom_bond_atom_site_label_1
_geom_bond_atom_site_label_2
_ccdc_geom_bond_type
C41   H23   S    
C40   C41   A    
N16   Ni1   S    
C53   H29   S    
C41   C42   A    
C3    C23   A    
C35   C36   A    
C57   C66   S    
C34   H32   S    
C2    C12   A    
N4    N5    A    
C44   H24   S    
C71   C72   A    
C20   C30   S    
C53   C54   S    
C52   C53   S    
C26   C27   A    
C72   H49   S    
N3    Ni3   S    
C18   C24   A    
C40   H21   S    
C28   C29   A    
O3    H50   S    
C38   C39   A    
C11   C14   A    
C46   H26   S    
C5    H44   S    
C18   C19   A    
C19   H11   S    
C31   C67   S    
C1    H1    S    
C6    C15   A    
C2    C39   S    
C47   C48   A    
C44   C46   S    
C68   C69   A    
N6    Ni1   S    
C55   C63   S    
C5    N16   A    
N1    N15   A    
C54   H31   S    
C63   H39   S    
N7    N16   A    
N11   Ni4   S    
C4    C29   S    
C8    N4    A    
N3    N6    A    
N9    Ni2   S    
C6    H2    S    
C69   H46   S    
C59   C60   A    
N9    N14   A    
C21   C22   A    
C4    C56   A    
C53   H30   S    
C25   H15   S    
N4    Ni4   S    
S1    O3    S    
C2    C64   A    
C64   H42   S    
C71   H48   S    
C4    C34   A    
N11   N13   A    
C28   H16   S    
N10   Ni3   S    
C59   H35   S    
C56   N13   A    
C13   N8    A    
C58   H34   S    
C67   C72   A    
C11   H7    S    
C70   H47   S    
C3    C51   S    
C50   H28   S    
C15   C26   S    
C14   C48   S    
C36   H20   S    
C25   C26   A    
C64   N14   A    
C3    C45   A    
N5    Ni2   S    
C31   C37   A    
C12   H12   S    
C60   C61   A    
C9    N5    A    
C43   C44   S    
C56   H41   S    
C29   C30   A    
C12   N9    A    
N13   Ni1   S    
C31   C32   A    
C49   S1    S    
C21   H13   S    
C62   C63   S    
C1    C66   A    
N14   Ni4   S    
C50   C51   A    
C13   H8    S    
N7    Ni4   S    
C65   H43   S    
C5    C14   A    
C47   C52   A    
C44   H25   S    
C47   C54   S    
C9    C17   A    
C7    C16   A    
C49   C50   A    
C34   N11   A    
C23   H22   S    
C13   C15   A    
N1    Ni1   S    
C69   C70   A    
C22   C24   A    
C54   H33   S    
C42   C43   A    
C67   C68   A    
C11   N7    A    
C16   C42   S    
C23   N10   A    
C10   N6    A    
C45   H40   S    
N10   N12   A    
C62   H37   S    
C25   C30   A    
C32   H17   S    
C36   C37   A    
C18   H10   S    
C6    N2    A    
C9    H5    S    
C63   H38   S    
C7    H3    S    
C24   H9    S    
C70   C71   A    
C45   N12   A    
C8    H4    S    
C8    C17   A    
C32   C33   A    
C7    N3    A    
C19   C20   A    
C55   C57   A    
C58   C59   A    
C22   H14   S    
C51   C52   A    
N8    Ni3   S    
C10   C16   A    
C1    N1    A    
C38   C46   S    
N2    N8    A    
C35   H19   S    
C57   C58   A    
C46   H27   S    
C27   C37   S    
C48   C49   A    
C55   C61   A    
C33   C35   A    
S1    O2    D    
N12   Ni2   S    
C61   C62   S    
C33   H18   S    
N2    Ni2   S    
C17   C60   S    
C39   C40   A    
N15   Ni3   S    
C38   C43   A    
C20   C21   A    
C65   C66   A    
C27   C28   A    
S1    O1    D    
C68   H45   S    
C65   N15   A    
C62   H36   S    
C10   H6    S    
