data_mof_unit_16494.cif
_audit_creation_date              2012-12-11T14:06:39-0500
_audit_creation_method            fapswitch 2.2
_symmetry_space_group_name_H-M    P1
_symmetry_Int_Tables_number       1
_space_group_crystal_system       triclinic
_cell_length_a                    6.922386
_cell_length_b                    17.368204
_cell_length_c                    24.087456
_cell_angle_alpha                 104.250522
_cell_angle_beta                  90.273413
_cell_angle_gamma                 89.965236
_cell_volume                      2806.87381953

loop_
_atom_site_label
_atom_site_type_symbol
_atom_type_description
_atom_site_fract_x
_atom_site_fract_y
_atom_site_fract_z
_atom_type_partial_charge
O1    O     O_R   0.494290 0.391990 0.999150 -0.519219
O2    O     O_R   0.827170 0.534410 0.082350 -0.514474
O3    O     O_R   0.994360 0.608010 0.000850 -0.537798
C1    C     C_R   0.658265 0.550602 0.106115 0.840636
O4    O     O_R   0.824210 0.388010 0.004470 -0.530436
O5    O     O_R   0.991370 0.460560 0.922410 -0.519365
C2    C     C_R   0.654117 0.355569 0.002948 0.805993
O6    O     O_R   0.497270 0.539440 0.077590 -0.548786
O7    O     O_3   0.659770 0.523970 0.973170 -0.353456
V1    V     V_3+5 0.935840 0.495550 0.004980 1.729836
O8    O     O_R   0.320910 0.465590 0.917650 -0.508055
C3    C     C_R   0.151363 0.451779 0.893781 0.874221
O9    O     O_R   0.323870 0.611990 0.995530 -0.512228
C4    C     C_R   0.154126 0.644957 0.998304 0.701433
V2    V     V_3+5 0.435470 0.504450 0.995020 1.754820
O10   O     O_3   0.161670 0.476030 0.026830 -0.372057
C5    C     C_2   0.142922 0.729870 0.997899 0.330387
C6    C     C_2   0.972787 0.770365 0.002756 0.323781
C7    C     C_R   0.102133 0.264809 0.626290 0.762813
N1    N     N_R   0.095774 0.345525 0.647349 -0.531838
C8    C     C_R   0.071141 0.394993 0.611541 0.786447
C9    C     C_R   0.060427 0.363735 0.551626 -0.247282
C10   C     C_R   0.056037 0.280397 0.529548 -0.122499
C11   C     C_R   0.069258 0.229761 0.567360 -0.159122
C12   C     C_R   0.052643 0.413358 0.513328 0.606476
C13   C     C_R   0.044412 0.381026 0.454187 0.604958
C14   C     C_R   0.036372 0.298137 0.431557 -0.240018
C15   C     C_R   0.037596 0.247826 0.469540 -0.169068
C16   C     C_R   0.020729 0.165041 0.447530 -0.181942
C17   C     C_R   0.024660 0.115231 0.485670 0.650830
C18   C     C_R   0.048767 0.146537 0.544766 0.129785
C19   C     C_R   0.027162 0.263934 0.371907 0.759915
N2    N     N_R   0.003770 0.183528 0.351182 -0.552112
C20   C     C_R   0.998031 0.134286 0.387770 0.810405
O11   O     O_2   0.143977 0.219431 0.662687 -0.455761
O12   O     O_2   0.057112 0.473988 0.633940 -0.406522
O13   O     O_2   0.042507 0.310478 0.334819 -0.413872
O14   O     O_2   0.970130 0.055704 0.366226 -0.387539
C21   C     C_R   0.138108 0.098491 0.262162 0.668429
C22   C     C_R   0.129829 0.063837 0.203009 0.017893
C23   C     C_R   0.974067 0.081464 0.169740 -0.359580
C24   C     C_R   0.825650 0.131898 0.197939 0.560870
C25   C     C_R   0.832808 0.165017 0.257353 0.136107
C26   C     C_R   0.991574 0.149541 0.289847 0.024872
C27   C     C_R   0.271772 0.419833 0.734868 0.147999
C28   C     C_R   0.286588 0.443629 0.794989 0.530185
C29   C     C_R   0.138195 0.425945 0.830010 -0.448407
C30   C     C_R   0.974389 0.384230 0.803388 0.505571
C31   C     C_R   0.960536 0.359988 0.743740 0.617222
C32   C     C_R   0.107837 0.377443 0.708809 -0.031290
C33   C     C_R   0.522396 0.864259 0.614171 0.712360
N3    N     N_R   0.486792 0.813508 0.648446 -0.536589
C34   C     C_R   0.474785 0.733245 0.625804 0.811544
C35   C     C_R   0.504916 0.700431 0.566681 -0.202319
C36   C     C_R   0.539030 0.751718 0.530542 -0.113032
C37   C     C_R   0.541884 0.835197 0.553957 -0.170745
C38   C     C_R   0.504020 0.617688 0.543210 0.688006
C39   C     C_R   0.535174 0.585254 0.484627 0.188127
C40   C     C_R   0.564527 0.635991 0.447173 -0.179398
C41   C     C_R   0.568978 0.719443 0.470869 -0.121819
C42   C     C_R   0.603532 0.770928 0.434893 -0.213739
C43   C     C_R   0.601375 0.853532 0.458063 0.682437
C44   C     C_R   0.566255 0.885812 0.516241 0.148408
C45   C     C_R   0.586252 0.607338 0.386840 0.817364
N4    N     N_R   0.619607 0.658696 0.352941 -0.527129
C46   C     C_R   0.633691 0.738662 0.375934 0.811121
O15   O     O_2   0.544146 0.942168 0.638928 -0.466096
O16   O     O_2   0.434847 0.685409 0.660710 -0.406045
O17   O     O_2   0.569426 0.529418 0.361592 -0.430245
O18   O     O_2   0.675340 0.786793 0.341345 -0.404302
C47   C     C_R   0.480906 0.649921 0.257182 0.642301
C48   C     C_R   0.490516 0.626784 0.197203 0.034630
C49   C     C_R   0.647121 0.579435 0.169892 -0.420987
C50   C     C_R   0.793016 0.558458 0.204779 0.510219
C51   C     C_R   0.783467 0.583605 0.264700 0.613615
C52   C     C_R   0.627231 0.629332 0.291259 -0.038551
C53   C     C_R   0.622888 0.829060 0.745390 0.657522
C54   C     C_R   0.619625 0.860957 0.804927 0.028441
C55   C     C_R   0.465392 0.911291 0.830622 -0.366285
C56   C     C_R   0.313622 0.925023 0.794724 0.559673
C57   C     C_R   0.316614 0.891280 0.735337 0.135531
C58   C     C_R   0.474372 0.844799 0.710043 0.042548
C59   C     C_2   0.641374 0.273629 0.010198 -0.156572
C60   C     C_2   0.477729 0.228809 0.995786 0.418692
O19   O     O_R   0.618210 0.960470 0.922400 -0.541161
O20   O     O_R   0.291310 0.111960 0.995450 -0.516106
O21   O     O_R   0.124210 0.039530 0.077580 -0.544160
C61   C     C_R   0.461745 0.145295 0.999397 0.706273
O22   O     O_R   0.288310 0.965490 0.917650 -0.506294
O23   O     O_R   0.121180 0.892010 0.999220 -0.532098
C62   C     C_R   0.456771 0.947076 0.894031 0.846915
O24   O     O_R   0.621230 0.107990 0.000760 -0.557494
O25   O     O_3   0.455770 0.976060 0.026840 -0.359403
V3    V     V_3+5 0.179680 0.004440 0.995020 1.689540
O26   O     O_R   0.791670 0.888040 0.004570 -0.511505
C63   C     C_R   0.961505 0.855201 0.002149 0.714640
O27   O     O_R   0.794680 0.034510 0.082370 -0.511858
C64   C     C_R   0.964101 0.049144 0.106238 0.822385
V4    V     V_3+5 0.680070 0.995560 0.005010 1.684579
O28   O     O_3   0.953840 0.023940 0.973160 -0.367159
F1    F     F_    0.312725 0.766902 0.992604 -0.640326
I1    I     I_    0.596058 0.235717 0.296559 -0.036790
I2    I     I_    0.503970 0.446257 0.685097 0.043195
F2    F     F_    0.445352 0.484760 0.819010 -0.599097
F3    F     F_    0.829181 0.364428 0.834986 -0.588111
F4    F     F_    0.804676 0.316946 0.719621 -0.586326
F5    F     F_    0.475448 0.567136 0.577419 -0.564489
I3    I     I_    0.543260 0.458096 0.459953 -0.044414
F6    F     F_    0.627318 0.904125 0.423718 -0.533716
I4    I     I_    0.533223 0.011950 0.538569 -0.034788
F7    F     F_    0.329361 0.694145 0.282892 -0.573295
F8    F     F_    0.803013 0.733366 0.008134 -0.641376
I5    I     I_    0.268502 0.672951 0.152822 -0.133552
F9    F     F_    0.944545 0.512562 0.181027 -0.595645
F10   F     F_    0.927863 0.564070 0.296995 -0.537123
F11   F     F_    0.770813 0.781041 0.721480 -0.597215
I6    I     I_    0.848616 0.823315 0.851486 -0.143453
F12   F     F_    0.161857 0.971832 0.817149 -0.617368
I7    I     I_    0.074125 0.907342 0.685445 -0.065126
I8    I     I_    0.888007 0.238851 0.052543 -0.180156
F13   F     F_    0.321777 0.259157 0.973837 -0.650234
F14   F     F_    0.057071 0.493712 0.532584 -0.566060
F15   F     F_    0.040633 0.431831 0.419400 -0.546637
F16   F     F_    0.005762 0.035287 0.465770 -0.565811
I9    I     I_    0.031894 0.061876 0.595639 -0.007334
F17   F     F_    0.288981 0.081565 0.293390 -0.591035
I10   I     I_    0.350741 0.980177 0.169002 -0.092614
F18   F     F_    0.673928 0.150179 0.167576 -0.636040

loop_
_geom_bond_atom_site_label_1
_geom_bond_atom_site_label_2
_ccdc_geom_bond_type
C2    C59   S    
C36   C37   A    
O25   V3    S    
C6    C63   S    
C49   C50   A    
O26   C63   A    
C1    O6    A    
C57   C58   A    
O19   C62   A    
C8    O12   S    
C46   O18   S    
C34   C35   A    
C13   C14   A    
C16   C17   A    
N4    C52   S    
C59   C60   D    
C27   C32   A    
C15   C16   A    
C6    F8    S    
O5    C3    A    
C17   C18   A    
O26   V4    S    
V2    O10   S    
C50   F9    S    
O21   V3    S    
O27   C64   A    
C5    C6    D    
C33   C37   A    
C23   C24   A    
O22   V3    S    
C34   O16   S    
C5    F1    S    
N1    C32   S    
O20   V3    S    
C28   C29   A    
O8    V2    S    
C42   C46   A    
V4    O28   S    
C9    C12   A    
C47   F7    S    
C10   C11   A    
O1    V2    S    
O22   C62   A    
C53   F11   S    
C27   I2    S    
C12   F14   S    
O25   V4    S    
C55   C62   S    
C24   F18   S    
O21   C64   A    
C36   C41   A    
C40   C41   A    
C21   F17   S    
O1    C2    A    
O9    C4    A    
C4    C5    S    
C3    C29   S    
O27   V4    S    
O23   V3    S    
C56   F12   S    
C39   I3    S    
C50   C51   A    
C33   N3    A    
C61   O24   A    
C54   I6    S    
C21   C22   A    
O4    C2    A    
C54   C55   A    
C56   C57   A    
C12   C13   A    
C53   C54   A    
C22   I10   S    
C28   F2    S    
C16   C20   A    
C23   C64   S    
C41   C42   A    
C59   I8    S    
O2    C1    A    
C51   C52   A    
C10   C15   A    
C43   C44   A    
O19   V4    S    
C29   C30   A    
V3    O28   S    
N2    C20   A    
C40   C45   A    
C37   C44   A    
C33   O15   S    
C19   O13   S    
N3    C58   S    
C1    C49   S    
C31   F4    S    
O3    C4    A    
C30   C31   A    
C38   F5    S    
C17   F16   S    
C31   C32   A    
O6    V2    S    
O9    V2    S    
C25   C26   A    
C51   F10   S    
C13   F15   S    
C18   I9    S    
O2    V1    S    
N3    C34   A    
O7    V1    S    
C35   C36   A    
C22   C23   A    
C14   C19   A    
C20   O14   S    
N2    C26   S    
C60   C61   S    
C48   C49   A    
O5    V1    S    
O8    C3    A    
O23   C63   A    
C21   C26   A    
C45   O17   S    
C57   I7    S    
C19   N2    A    
C7    N1    A    
C7    C11   A    
C39   C40   A    
C11   C18   A    
C47   C48   A    
O3    V1    S    
C7    O11   S    
C45   N4    A    
C38   C39   A    
C47   C52   A    
C43   F6    S    
C53   C58   A    
C44   I4    S    
C48   I5    S    
O20   C61   A    
O7    V2    S    
C42   C43   A    
C25   I1    S    
C55   C56   A    
C27   C28   A    
O4    V1    S    
N1    C8    A    
N4    C46   A    
C24   C25   A    
C14   C15   A    
C9    C10   A    
V1    O10   S    
C30   F3    S    
C8    C9    A    
O24   V4    S    
C60   F13   S    
C35   C38   A    
