data_mof_unit_26359.cif
_audit_creation_date              2012-12-10T18:57:11-0500
_audit_creation_method            fapswitch 2.2
_symmetry_space_group_name_H-M    P1
_symmetry_Int_Tables_number       1
_space_group_crystal_system       triclinic
_cell_length_a                    8.76463
_cell_length_b                    10.814927
_cell_length_c                    9.595127
_cell_angle_alpha                 90.242259
_cell_angle_beta                  97.864044
_cell_angle_gamma                 92.966533
_cell_volume                      899.691284469

loop_
_atom_site_label
_atom_site_type_symbol
_atom_type_description
_atom_site_fract_x
_atom_site_fract_y
_atom_site_fract_z
_atom_type_partial_charge
C1    C     C_R   0.503942 0.262730 0.500464 0.855704
C2    C     C_R   0.523255 0.936279 0.376596 -0.106050
C3    C     C_R   0.512418 0.871266 0.501637 -0.059965
C4    C     C_R   0.523003 0.937900 0.627843 0.090946
C5    C     C_3   0.428957 0.930176 0.747363 -0.235265
C6    C     C_3   0.433705 0.071489 0.747204 -0.377612
C7    C     C_R   0.581830 0.591349 0.084285 0.135719
C8    C     C_R   0.406112 0.417038 0.057874 0.469575
C9    C     C_R   0.407842 0.419706 0.910622 -0.101298
C10   C     C_R   0.582770 0.589497 0.936924 0.150963
C11   C     C_3   0.751946 0.614861 0.948344 -0.488626
C12   C     C_R   0.203913 0.493604 0.464267 0.850242
C13   C     C_3   0.753734 0.616759 0.106473 0.263694
C14   C     C_R   0.500653 0.737521 0.500291 0.838783
C15   C     C_R   0.795627 0.497242 0.535764 0.926460
C16   C     C_2   0.038992 0.467285 0.447567 -0.179868
C17   C     C_2   0.961718 0.499906 0.553083 -0.318164
C18   C     C_R   0.526654 0.065214 0.628092 0.085360
C19   C     C_R   0.518444 0.130251 0.502133 -0.088169
C20   C     C_R   0.529195 0.065107 0.377313 -0.133421
Cu1   Cu    Cu3+1 0.499990 0.499980 0.640670 0.970359
Cu2   Cu    Cu3+1 0.500010 0.500020 0.359330 1.071654
H1    H     H_    0.337571 0.353170 0.841726 0.192202
H2    H     H_    0.812822 0.535668 0.912057 0.195447
H3    H     H_    0.781176 0.705321 0.901269 0.237940
H4    H     H_    0.815810 0.540278 0.158957 0.081404
H5    H     H_    0.021650 0.541776 0.649928 0.156374
H6    H     H_    0.534628 0.112792 0.279256 0.222697
H7    H     H_    0.520080 0.888015 0.277332 0.218030
H8    H     H_    0.493887 0.891770 0.843828 0.180282
H9    H     H_    0.320548 0.112824 0.716118 0.227481
H10   H     H_    0.502926 0.113641 0.842932 0.220873
N1    N     N_R   0.500980 0.500930 0.148050 -0.278390
N2    N     N_R   0.500990 0.500890 0.852140 -0.224125
O1    O     O_R   0.500000 0.319640 0.618810 -0.601754
O2    O     O_R   0.500020 0.319680 0.381230 -0.511726
O3    O     O_R   0.274830 0.499980 0.591380 -0.593976
O4    O     O_R   0.274850 0.500020 0.353800 -0.540843
O5    O     O_R   0.499980 0.680320 0.618770 -0.600374
O6    O     O_R   0.500000 0.680360 0.381190 -0.556185
O7    O     O_R   0.725150 0.499980 0.646200 -0.595128
O8    O     O_R   0.725170 0.500020 0.408620 -0.552979
C21   C     C_2   0.968991 0.390991 0.323688 0.434187
H11   H     H_    0.007760 0.406587 0.222430 0.139532
O9    O     O_2   0.873747 0.306406 0.335129 -0.532914
S1    S     S_3+6 0.816793 0.765378 0.181978 0.007006
O10   O     O_2   0.802686 0.766196 0.336159 -0.287725
O11   O     O_2   0.983092 0.790735 0.163721 -0.263341
O12   O     O_3   0.710580 0.875448 0.099678 -0.573219
H12   H     H_    0.758564 0.954758 0.140585 0.387350
C22   C     C_2   0.269472 0.869684 0.709505 0.454117
H13   H     H_    0.229928 0.797207 0.775906 0.076448
O13   O     O_2   0.184355 0.900435 0.605196 -0.504457
S2    S     S_3+6 0.281499 0.290942 0.102393 -0.009166
O14   O     O_2   0.130898 0.298807 0.007495 -0.323760
O15   O     O_2   0.352402 0.174037 0.064270 -0.343247
O16   O     O_3   0.238534 0.275735 0.266147 -0.542180
H14   H     H_    0.189200 0.191433 0.269128 0.383098

loop_
_geom_bond_atom_site_label_1
_geom_bond_atom_site_label_2
_ccdc_geom_bond_type
C8    C9    A    
C7    C10   A    
C6    H10   S    
C21   H11   S    
Cu1   O1    S    
C21   O9    D    
S2    O14   D    
C15   O8    A    
C19   C20   A    
C16   C21   S    
C4    C18   A    
C2    C3    A    
Cu2   O6    S    
C22   H13   S    
C10   N2    A    
Cu1   Cu2   S    
C11   C13   S    
S1    O12   S    
C15   O7    A    
O16   H14   S    
Cu2   O8    S    
C3    C14   S    
C2    H7    S    
Cu1   O7    S    
C4    C5    S    
C5    C22   S    
C9    N2    A    
C6    H9    S    
S1    O11   D    
C8    N1    A    
C12   O4    A    
C5    C6    S    
C6    C18   S    
S2    O15   D    
C13   H4    S    
C1    C19   S    
C10   C11   S    
C7    N1    A    
C14   O6    A    
C3    C4    A    
C17   H5    S    
C11   H2    S    
C7    C13   S    
Cu2   O2    S    
C1    O1    A    
Cu1   O3    S    
C15   C17   S    
C5    H8    S    
C8    S2    S    
C12   O3    A    
O12   H12   S    
Cu2   N1    S    
C11   H3    S    
C13   S1    S    
C18   C19   A    
Cu1   N2    S    
C20   H6    S    
C14   O5    A    
S1    O10   D    
C2    C20   A    
Cu2   O4    S    
C9    H1    S    
C12   C16   S    
C1    O2    A    
C16   C17   D    
C22   O13   D    
S2    O16   S    
Cu1   O5    S    
