data_mof_unit_51466.cif
_audit_creation_date              2013-03-05T16:41:05-0500
_audit_creation_method            fapswitch 2.2
_symmetry_space_group_name_H-M    P1
_symmetry_Int_Tables_number       1
_space_group_crystal_system       triclinic
_cell_length_a                    8.572581
_cell_length_b                    10.889297
_cell_length_c                    9.94838
_cell_angle_alpha                 87.765323
_cell_angle_beta                  97.215467
_cell_angle_gamma                 93.149076
_cell_volume                      919.446649399

loop_
_atom_site_label
_atom_site_type_symbol
_atom_site_description
_atom_site_fract_x
_atom_site_fract_y
_atom_site_fract_z
_atom_type_partial_charge
O1    O     O_R   0.500020 0.316790 0.614690 -0.626543
O2    O     O_R   0.500000 0.316760 0.385350 -0.525000
C1    C     C_R   0.502726 0.260285 0.502304 0.981797
O3    O     O_R   0.271760 0.500010 0.587850 -0.626331
O4    O     O_R   0.271740 0.499970 0.358500 -0.575061
C2    C     C_R   0.202029 0.496700 0.466113 0.889205
Zn1   Zn    Zn3+2 0.500010 0.500020 0.653130 1.089228
Zn2   Zn    Zn3+2 0.499990 0.499980 0.346870 1.174986
O5    O     O_R   0.500000 0.683240 0.614650 -0.603220
O6    O     O_R   0.499980 0.683210 0.385310 -0.572819
O7    O     O_R   0.728260 0.500030 0.641500 -0.585604
O8    O     O_R   0.728240 0.499990 0.412150 -0.568889
C3    C     C_R   0.500151 0.739574 0.497311 0.987338
C4    C     C_R   0.797999 0.507049 0.533520 0.959889
C5    C     C_2   0.037693 0.480398 0.454582 0.447499
C6    C     C_2   0.961030 0.536254 0.541896 -0.022781
C7    C     C_R   0.458025 0.054446 0.611230 -0.087493
C8    C     C_R   0.501642 0.128029 0.502331 -0.256876
C9    C     C_R   0.528395 0.070628 0.382600 0.676269
C10   C     C_R   0.510246 0.943463 0.372895 0.177256
C11   C     C_R   0.493479 0.871104 0.491393 -0.224866
C12   C     C_R   0.472198 0.930246 0.608145 -0.052109
C13   C     C_3   0.534281 0.913574 0.755051 0.330721
C14   C     C_3   0.504016 0.051131 0.763935 0.303020
C15   C     C_R   0.366706 0.464896 0.057863 0.056612
N1    N     N_R   0.498950 0.499140 0.142680 -0.147609
C16   C     C_R   0.626860 0.547821 0.081667 0.402888
C17   C     C_R   0.627551 0.542382 0.938778 -0.001137
H1    H     H_    0.729045 0.577856 0.892431 0.223637
N2    N     N_R   0.498950 0.499180 0.857030 -0.148946
C18   C     C_R   0.365530 0.469238 0.914982 0.069540
C19   C     C_3   0.276376 0.349559 0.897639 -0.030213
C20   C     C_3   0.285328 0.339034 0.051694 0.676770
H2    H     H_    0.345758 0.284674 0.851041 0.183102
F1    F     F_    0.968739 0.386873 0.377197 -0.568160
N3    N     N_R   0.118049 0.362531 0.825097 0.238298
O9    O     O_R   0.027403 0.446106 0.856671 -0.300159
O10   O     O_R   0.069547 0.293346 0.723077 -0.281105
N4    N     N_R   0.132529 0.328698 0.102722 0.244635
O11   O     O_R   0.055028 0.222612 0.103614 -0.176557
O12   O     O_R   0.067223 0.425580 0.137020 -0.264541
F2    F     F_    0.383182 0.249811 0.108701 -0.548990
N5    N     N_R   0.026017 0.643517 0.613939 0.216515
O13   O     O_R   0.974931 0.670477 0.726357 -0.215113
O14   O     O_R   0.109041 0.727002 0.552983 -0.327004
F3    F     F_    0.577916 0.136593 0.275922 -0.495652
N6    N     N_R   0.510759 0.891038 0.243269 0.281265
O15   O     O_R   0.382531 0.835210 0.186584 -0.240440
O16   O     O_R   0.622597 0.923439 0.169970 -0.163596
N7    N     N_R   0.433498 0.828597 0.829084 0.231517
O17   O     O_R   0.488321 0.780673 0.945841 -0.308491
O18   O     O_R   0.284404 0.810690 0.786767 -0.210492
N8    N     N_R   0.701878 0.885540 0.780198 0.221873
O19   O     O_R   0.783868 0.873621 0.680268 -0.296978
O20   O     O_R   0.774358 0.885988 0.903257 -0.183098
N9    N     N_R   0.370241 0.067777 0.839300 0.200099
O21   O     O_R   0.386413 0.047501 0.969885 -0.172886
O22   O     O_R   0.228733 0.075745 0.775384 -0.250269
N10   N     N_R   0.643281 0.131487 0.808941 0.226236
O23   O     O_R   0.763874 0.140089 0.740927 -0.263655
O24   O     O_R   0.645165 0.199330 0.914032 -0.245130
N11   N     N_R   0.757957 0.611784 0.157860 0.241357
O25   O     O_R   0.732822 0.689753 0.246929 -0.307986
O26   O     O_R   0.893655 0.621066 0.111807 -0.255753

loop_
_geom_bond_atom_site_label_1
_geom_bond_atom_site_label_2
_geom_bond_distance
_ccdc_geom_bond_type
C15   C18   1.419158 A    
O4    Zn2   1.974557 S    
N7    O18   1.301039 A    
C13   C14   1.541949 S    
C13   N8    1.473747 S    
N11   O25   1.295825 A    
C16   N11   1.436620 S    
C14   N9    1.469544 S    
Zn2   N1    2.030634 S    
C7    C12   1.366401 A    
O8    C4    1.281499 A    
N2    C18   1.362676 A    
Zn2   O8    1.982718 S    
C19   C20   1.524991 S    
C9    C10   1.390681 A    
N3    O10   1.299900 A    
C7    C8    1.398807 A    
C15   N1    1.368961 A    
C9    F3    1.357471 S    
C3    C11   1.435162 S    
N10   O23   1.302092 A    
N6    O16   1.301469 A    
Zn1   N2    2.029297 S    
O1    Zn1   2.046163 S    
N8    O19   1.301842 A    
C10   C11   1.410293 A    
Zn1   O7    1.974557 S    
N5    O14   1.301953 A    
C6    N5    1.442839 S    
N1    C16   1.389255 A    
C20   N4    1.460318 S    
N3    O9    1.300790 A    
O3    Zn1   1.982718 S    
C20   F2    1.377083 S    
C19   N3    1.466294 S    
C5    F1    1.363808 S    
C17   H1    1.081101 S    
N9    O22   1.302661 A    
N7    O17   1.298054 A    
O2    C1    1.292835 A    
N8    O20   1.301501 A    
N5    O13   1.300581 A    
O4    C2    1.288384 A    
O7    C4    1.291170 A    
C4    C6    1.409023 S    
N10   O24   1.301449 A    
C10   N6    1.431084 S    
C5    C6    1.336002 D    
C7    C14   1.520354 S    
N6    O15   1.301351 A    
C16   C17   1.425822 A    
N9    O21   1.300542 A    
C1    C8    1.439683 S    
N4    O12   1.297599 A    
O3    C2    1.282398 A    
O2    Zn2   2.016820 S    
N4    O11   1.300900 A    
Zn1   O5    2.016821 S    
O5    C3    1.297467 A    
C12   C13   1.498888 S    
C8    C9    1.415809 A    
C13   N7    1.471048 S    
N11   O26   1.300271 A    
C2    C5    1.401018 S    
C11   C12   1.386209 A    
Zn2   O6    2.046162 S    
C14   N10   1.474086 S    
C18   C19   1.478934 S    
C15   C20   1.503190 S    
C17   N2    1.358572 A    
O1    C1    1.300357 A    
O6    C3    1.292688 A    
C19   H2    1.099492 S    
