data_mof_unit_51691.cif
_audit_creation_date              2012-10-26T19:02:58-0400
_audit_creation_method            fapswitch 2.2
_symmetry_space_group_name_H-M    P1
_symmetry_Int_Tables_number       1
_space_group_crystal_system       triclinic
_cell_length_a                    15.078476
_cell_length_b                    10.842463
_cell_length_c                    9.796449
_cell_angle_alpha                 110.286698
_cell_angle_beta                  98.551797
_cell_angle_gamma                 91.048875
_cell_volume                      1481.3297033

loop_
_atom_site_label
_atom_site_type_symbol
_atom_type_description
_atom_site_fract_x
_atom_site_fract_y
_atom_site_fract_z
_atom_type_partial_charge
C1    C     C_R   0.496281 0.252888 0.441606 0.596569
C2    C     C_2   0.492299 0.489023 0.918855 0.021236
C3    C     C_R   0.328864 0.498995 0.500851 0.591673
C4    C     C_R   0.671193 0.501348 0.499445 0.642015
C5    C     C_R   0.825985 0.588261 0.620295 0.308735
C6    C     C_R   0.174114 0.405113 0.385995 0.290907
C7    C     C_R   0.767838 0.501372 0.499231 0.025734
C8    C     C_R   0.232488 0.495861 0.503214 0.009932
C9    C     C_R   0.801074 0.410673 0.382322 0.318123
C10   C     C_R   0.200017 0.582031 0.624273 0.307371
C11   C     C_R   0.894207 0.400544 0.387913 0.007772
C12   C     C_R   0.506579 0.747289 0.558446 0.596733
C13   C     C_R   0.107137 0.583866 0.626558 0.011299
C14   C     C_R   0.953871 0.492287 0.507937 -0.113385
C15   C     C_R   0.047394 0.490683 0.508373 -0.114169
C16   C     C_R   0.919793 0.586436 0.626463 0.003939
C17   C     C_R   0.081414 0.396492 0.390087 0.008321
C18   C     C_R   0.928720 0.299772 0.277499 0.178913
C19   C     C_R   0.073245 0.675852 0.745010 0.185626
C20   C     C_3   0.839698 0.091204 0.199787 -0.208519
C21   C     C_3   0.145078 0.896724 0.841041 -0.256032
C22   C     C_3   0.091122 0.087685 0.234992 -0.282011
C23   C     C_R   0.021931 0.296049 0.280324 0.159492
C24   C     C_3   0.935287 0.715611 0.985933 -0.259344
C25   C     C_3   0.411578 0.931867 0.775002 -0.261595
C26   C     C_3   0.351626 0.029436 0.268006 -0.321014
C27   C     C_R   0.980488 0.674989 0.747459 0.154322
C28   C     C_2   0.500322 0.110825 0.411843 0.134836
C29   C     C_2   0.513427 0.889969 0.587602 0.135574
C30   C     C_2   0.554985 0.071145 0.508937 0.383233
C31   C     C_2   0.554698 0.933070 0.497579 0.378144
C32   C     C_2   0.507709 0.510944 0.081120 0.016895
Cu1   Cu    Cu3+1 0.515770 0.521810 0.644910 1.067393
Cu2   Cu    Cu3+1 0.484230 0.478190 0.355090 1.063608
F1    F     F_    0.788887 0.677010 0.727979 -0.642661
F2    F     F_    0.209184 0.326745 0.268625 -0.668442
F3    F     F_    0.741415 0.331485 0.264881 -0.596067
F4    F     F_    0.260082 0.665934 0.737477 -0.630759
F5    F     F_    0.595410 0.848881 0.390605 -0.657701
F6    F     F_    0.609257 0.160106 0.627178 -0.626890
H1    H     H_    0.439938 0.415871 0.846206 0.149924
H2    H     H_    0.081283 0.946586 0.843996 0.137624
H3    H     H_    0.167806 0.881079 0.733823 0.168860
H4    H     H_    0.197331 0.961699 0.930658 0.144561
H5    H     H_    0.086589 0.203547 0.100235 0.303242
H6    H     H_    0.159585 0.122447 0.298748 0.185304
H7    H     H_    0.095132 0.994537 0.142682 0.137465
H8    H     H_    0.048164 0.066931 0.308375 0.135153
H9    H     H_    0.905832 0.831363 0.852623 0.313367
H10   H     H_    0.878460 0.638563 0.944133 0.216193
H11   H     H_    0.919052 0.796707 0.082665 0.134475
H12   H     H_    0.560107 0.584033 0.153735 0.193392
H13   H     H_    0.996472 0.672404 0.022627 0.133956
H14   H     H_    0.512813 0.065204 0.768779 0.303114
H15   H     H_    0.374903 0.014505 0.838938 0.145060
H16   H     H_    0.448948 0.889631 0.852842 0.203422
H17   H     H_    0.361235 0.856702 0.692201 0.188670
H18   H     H_    0.465137 0.922719 0.248984 0.288353
H19   H     H_    0.317512 0.956816 0.161168 0.164786
H20   H     H_    0.334526 0.129367 0.270876 0.204678
H21   H     H_    0.326286 0.008451 0.359204 0.130240
H22   H     H_    0.588721 0.623540 0.934087 0.228641
H23   H     H_    0.411265 0.376471 0.065927 0.216974
H24   H     H_    0.890200 0.171555 0.060482 0.269301
H25   H     H_    0.896114 0.029696 0.211447 0.110859
H26   H     H_    0.786059 0.029107 0.110618 0.183150
H27   H     H_    0.811943 0.126250 0.304455 0.195762
H28   H     H_    0.120687 0.783315 0.966299 0.252016
N1    N     N_2   0.460520 0.445420 0.137370 -0.345020
N2    N     N_2   0.539480 0.554580 0.862630 -0.333258
N3    N     N_2   0.869688 0.201158 0.162141 -0.415626
N4    N     N_2   0.132582 0.772200 0.861968 -0.422264
N5    N     N_2   0.053552 0.184730 0.176531 -0.500949
N6    N     N_2   0.950907 0.767002 0.872792 -0.506292
N7    N     N_2   0.473336 0.981019 0.702557 -0.585539
N8    N     N_2   0.447805 0.018883 0.280693 -0.543473
O1    O     O_R   0.508410 0.332340 0.577400 -0.473450
O2    O     O_R   0.491590 0.667660 0.422600 -0.482036
O3    O     O_R   0.481780 0.295500 0.332650 -0.475320
O4    O     O_R   0.518220 0.704500 0.667350 -0.491625
O5    O     O_R   0.383570 0.518390 0.622380 -0.476327
O6    O     O_R   0.616430 0.481610 0.377620 -0.449474
O7    O     O_R   0.356940 0.481550 0.377630 -0.460603
O8    O     O_R   0.643060 0.518450 0.622370 -0.437096

loop_
_geom_bond_atom_site_label_1
_geom_bond_atom_site_label_2
_ccdc_geom_bond_type
C22   H8    S    
C11   C18   A    
C12   C29   S    
C1    O1    A    
C20   H27   S    
C25   H16   S    
Cu1   O1    S    
H18   N8    S    
C17   C23   A    
H5    N5    S    
C26   H21   S    
C30   C31   S    
C11   C14   A    
C2    H1    S    
C5    F1    S    
H22   N2    S    
C2    C32   S    
H24   N3    S    
C32   H12   S    
C5    C16   A    
C21   H3    S    
H23   N1    S    
C31   F5    S    
C12   O2    A    
C3    O5    A    
C1    C28   S    
C26   N8    S    
C20   N3    S    
C27   N6    S    
C19   C27   A    
C26   H19   S    
C24   H11   S    
C22   H7    S    
C19   N4    S    
C25   H17   S    
C23   N5    S    
C4    C7    S    
C24   H10   S    
C13   C19   A    
C21   N4    S    
C18   C23   A    
C20   H25   S    
C3    C8    S    
C5    C7    A    
C6    C8    A    
C24   H13   S    
H14   N7    S    
C25   N7    S    
Cu2   O3    S    
C21   H4    S    
C4    O8    A    
H28   N4    S    
C9    F3    S    
Cu1   Cu2   S    
C30   F6    S    
C9    C11   A    
Cu2   N1    S    
Cu1   N2    S    
C22   H6    S    
C13   C15   A    
C3    O7    A    
C1    O3    A    
C14   C16   A    
Cu2   O7    S    
C28   N8    S    
C20   H26   S    
C18   N3    S    
C15   C17   A    
C6    C17   A    
H9    N6    S    
C25   H15   S    
C10   C13   A    
Cu1   O4    S    
C32   N1    D    
C29   N7    S    
C10   F4    S    
C28   C30   D    
C29   C31   D    
Cu2   O2    S    
C24   N6    S    
Cu1   O5    S    
C16   C27   A    
C12   O4    A    
C6    F2    S    
Cu1   O8    S    
C21   H2    S    
C7    C9    A    
C4    O6    A    
C8    C10   A    
C14   C15   A    
Cu2   O6    S    
C22   N5    S    
C2    N2    D    
C26   H20   S    
