data_mof_unit_30637.cif
_audit_creation_date              2012-12-10T20:27:11-0500
_audit_creation_method            fapswitch 2.2
_symmetry_space_group_name_H-M    P1
_symmetry_Int_Tables_number       1
_space_group_crystal_system       triclinic
_cell_length_a                    10.656657
_cell_length_b                    10.711435
_cell_length_c                    9.862476
_cell_angle_alpha                 90.189917
_cell_angle_beta                  103.793761
_cell_angle_gamma                 90.152266
_cell_volume                      1093.30259357

loop_
_atom_site_label
_atom_site_type_symbol
_atom_type_description
_atom_site_fract_x
_atom_site_fract_y
_atom_site_fract_z
_atom_type_partial_charge
C1    C     C_R   0.493060 0.260266 0.497682 0.946277
C2    C     C_R   0.574820 0.417367 0.090948 -0.038865
C3    C     C_R   0.574551 0.417160 0.946817 -0.118893
C4    C     C_R   0.257654 0.504299 0.441411 0.928030
C5    C     C_R   0.435369 0.588655 0.912714 0.213571
C6    C     C_3   0.293631 0.612736 0.872768 -0.514324
C7    C     C_3   0.295264 0.615556 0.026866 -0.470014
C8    C     C_R   0.499972 0.739584 0.500050 0.899670
C9    C     C_R   0.741819 0.505916 0.558064 0.931497
C10   C     C_2   0.118457 0.523329 0.406371 0.018643
C11   C     C_2   0.067014 0.574231 0.505129 -0.177172
C12   C     C_R   0.489869 0.127856 0.494481 -0.261167
C13   C     C_2   0.879505 0.528908 0.590140 -0.363795
C14   C     C_2   0.929427 0.577444 0.490163 -0.142052
C15   C     C_R   0.558549 0.065754 0.613065 0.014961
C16   C     C_3   0.037180 0.485432 0.264377 -0.872997
C17   C     C_3   0.666599 0.877205 0.863404 -0.839538
C18   C     C_R   0.431810 0.060314 0.371454 0.382688
C19   C     C_R   0.441816 0.931651 0.374128 -0.283434
C20   C     C_R   0.500699 0.871097 0.497990 -0.196504
C21   C     C_R   0.563263 0.938134 0.615225 0.126086
C22   C     C_3   0.547863 0.931307 0.761975 -0.017721
C23   C     C_3   0.543671 0.073129 0.760224 -0.408217
C24   C     C_R   0.436029 0.589072 0.055414 0.204034
H1    H     H_    0.868602 0.603921 0.389484 0.193850
H2    H     H_    0.939900 0.502830 0.691194 0.159411
H3    H     H_    0.395925 0.877942 0.282267 0.203919
H4    H     H_    0.455161 0.887326 0.769977 0.178550
H5    H     H_    0.448276 0.111054 0.767008 0.207983
H6    H     H_    0.096584 0.443600 0.197941 0.279657
H7    H     H_    0.963782 0.415168 0.276335 0.249719
H8    H     H_    0.987882 0.568557 0.209369 0.234543
H9    H     H_    0.194209 0.201696 0.326799 0.332007
H10   H     H_    0.757218 0.921207 0.849313 0.251416
H11   H     H_    0.658742 0.893271 0.972341 0.247305
H12   H     H_    0.628109 0.119325 0.830919 0.204987
H13   H     H_    0.671478 0.775083 0.845893 0.252123
H14   H     H_    0.633230 0.350401 0.160084 0.154576
H15   H     H_    0.632791 0.350154 0.907193 0.144402
H16   H     H_    0.270535 0.704611 0.820868 0.199139
H17   H     H_    0.238485 0.531683 0.817896 0.220994
H18   H     H_    0.275574 0.709578 0.064975 0.212392
H19   H     H_    0.239320 0.537946 0.058821 0.233558
H20   H     H_    0.126870 0.602216 0.605411 0.155481
N1    N     N_R   0.499160 0.499140 0.142600 -0.100313
N2    N     N_R   0.499160 0.499180 0.856960 -0.108895
O1    O     O_R   0.500020 0.316790 0.614700 -0.624014
O2    O     O_2   0.245262 0.032011 0.133791 -0.321607
O3    O     O_3   0.241394 0.242064 0.263413 -0.544915
O4    O     O_R   0.500000 0.316760 0.385350 -0.543864
O5    O     O_R   0.317820 0.500020 0.571850 -0.637577
O6    O     O_R   0.317800 0.499980 0.342510 -0.575951
O7    O     O_R   0.500000 0.683240 0.614650 -0.628161
O8    O     O_R   0.499980 0.683210 0.385300 -0.629604
O9    O     O_R   0.682200 0.500020 0.657490 -0.616269
O10   O     O_R   0.682180 0.499980 0.428150 -0.626728
O11   O     O_2   0.416918 0.182782 0.132007 -0.276659
S1    S     S_3+6 0.332672 0.128475 0.219310 0.023187
Zn1   Zn    Zn3+2 0.500010 0.500020 0.653140 0.938513
Zn2   Zn    Zn3+2 0.499990 0.499980 0.346860 0.996083

loop_
_geom_bond_atom_site_label_1
_geom_bond_atom_site_label_2
_ccdc_geom_bond_type
C8    O7    A    
N1    Zn2   S    
O2    S1    D    
C6    C7    S    
C9    O9    A    
C7    H19   S    
N2    Zn1   S    
C16   H8    S    
C19   H3    S    
C1    O4    A    
C2    H14   S    
C3    N2    A    
C17   C22   S    
C12   C15   A    
O4    Zn2   S    
C15   C23   S    
C2    C3    A    
O7    Zn1   S    
C3    H15   S    
C11   H20   S    
C14   H1    S    
C9    O10   A    
O8    Zn2   S    
C21   C22   S    
C16   H7    S    
C5    C24   A    
O11   S1    D    
C8    C20   S    
C1    C12   S    
C4    O6    A    
C24   N1    A    
C23   H5    S    
C18   C19   A    
O9    Zn1   S    
C2    N1    A    
C5    C6    S    
C11   C14   S    
C6    H16   S    
C13   H2    S    
O5    Zn1   S    
C17   H10   S    
C17   H13   S    
C4    O5    A    
O1    Zn1   S    
C7    C24   S    
O10   Zn2   S    
C15   C21   A    
C20   C21   A    
O6    Zn2   S    
C23   H12   S    
C10   C11   D    
C7    H18   S    
C8    O8    A    
C10   C16   S    
C9    C13   S    
C22   C23   S    
C1    O1    A    
C22   H4    S    
C17   H11   S    
C13   C14   D    
C16   H6    S    
C18   S1    S    
O3    S1    S    
C19   C20   A    
C4    C10   S    
H9    O3    S    
C5    N2    A    
C6    H17   S    
C12   C18   A    
