data_mof_unit_67297.cif
_audit_creation_date              2013-03-05T16:02:16-0500
_audit_creation_method            fapswitch 2.2
_symmetry_space_group_name_H-M    P1
_symmetry_Int_Tables_number       1
_space_group_crystal_system       triclinic
_cell_length_a                    8.532671
_cell_length_b                    14.716089
_cell_length_c                    15.154927
_cell_angle_alpha                 96.041344
_cell_angle_beta                  97.241489
_cell_angle_gamma                 91.946371
_cell_volume                      1875.1512052

loop_
_atom_site_label
_atom_site_type_symbol
_atom_site_description
_atom_site_fract_x
_atom_site_fract_y
_atom_site_fract_z
_atom_type_partial_charge
P1    P     P_3+3 0.018600 0.416790 0.295970 0.424976
O1    O     O_2   0.841230 0.444160 0.280430 -0.391612
O2    O     O_3   0.112860 0.447350 0.393710 -0.410936
O3    O     O_3   0.597940 0.615700 0.327690 -0.376282
O4    O     O_2   0.663520 0.534610 0.177818 -0.406022
O5    O     O_3   0.013377 0.297738 0.269991 -0.613609
O6    O     O_3   0.610143 0.707005 0.169482 -0.537927
C1    C     C_3   0.570544 0.863743 0.139518 -0.121405
P2    P     P_3+3 0.635660 0.716530 0.560900 0.456932
P3    P     P_3+3 0.057476 0.780507 0.370825 0.393388
O7    O     O_2   0.802240 0.729740 0.532850 -0.377035
O8    O     O_3   0.017180 0.664790 0.371080 -0.382835
O9    O     O_2   0.932376 0.827199 0.423180 -0.413128
O10   O     O_3   0.650568 0.759431 0.674754 -0.586040
O11   O     O_3   0.004437 0.807265 0.260688 -0.551226
C2    C     C_3   0.041107 0.737476 0.195778 0.561130
H1    H     H_    0.145632 0.700858 0.220661 -0.016211
C3    C     C_3   0.075166 0.779220 0.109729 -0.625018
C4    C     C_3   0.261917 0.749387 0.674610 0.423676
C5    C     C_3   0.304235 0.845004 0.724550 -0.604306
Ba1   Ba    Ba6+2 0.833400 0.543310 0.453520 1.487823
C6    C     C_3   0.929405 0.248747 0.324409 0.369859
C7    C     C_3   0.951221 0.145898 0.299709 -0.331569
C8    C     C_3   0.702386 0.697285 0.733330 0.442400
C9    C     C_3   0.714121 0.747940 0.829112 -0.675794
P4    P     P_3+3 0.171090 0.583290 0.704030 0.446905
O12   O     O_2   0.348480 0.555870 0.719620 -0.378211
O13   O     O_3   0.076830 0.552730 0.606300 -0.410064
O14   O     O_3   0.591760 0.384380 0.672320 -0.372637
O15   O     O_3   0.177156 0.702385 0.729766 -0.600045
P5    P     P_3+3 0.141488 0.217569 0.627391 0.405374
O16   O     O_3   0.629090 0.386350 0.459240 -0.402611
O17   O     O_3   0.172520 0.335290 0.628920 -0.345564
O18   O     O_2   0.245571 0.174746 0.559304 -0.415326
O19   O     O_3   0.235238 0.185997 0.728783 -0.559859
Ba2   Ba    Ba6+2 0.356420 0.456770 0.546480 1.493224
P6    P     P_3+3 0.548960 0.605288 0.211772 0.426805
C10   C     C_3   0.559123 0.791208 0.208701 0.535024
O20   O     O_3   0.560610 0.613730 0.540770 -0.410206
C11   C     C_3   0.490478 0.301300 0.273784 0.354909
C12   C     C_3   0.471060 0.260600 0.175268 -0.298154
P7    P     P_3+3 0.562922 0.269699 0.442182 0.387985
O21   O     O_2   0.387460 0.270290 0.467210 -0.392479
O22   O     O_3   0.542895 0.232883 0.327134 -0.622091
C13   C     C_3   0.153861 0.217983 0.800329 0.455083
C14   C     C_3   0.208738 0.167443 0.883629 -0.091327
P8    P     P_3+3 0.638247 0.391519 0.787842 0.422530
C15   C     C_3   0.663107 0.212883 0.771626 0.390480
O23   O     O_2   0.513580 0.454357 0.823911 -0.402127
O24   O     O_3   0.584459 0.283028 0.817375 -0.533909
C16   C     C_3   0.690660 0.133656 0.831773 -0.311973
C17   C     C_R   0.842665 0.441287 0.834173 0.164812
C18   C     C_R   0.905593 0.451055 0.927526 -0.030616
C19   C     C_R   0.048391 0.461264 0.111815 -0.081975
C20   C     C_R   0.901560 0.416482 0.082676 -0.152205
C21   C     C_R   0.825773 0.416293 0.995252 -0.005955
C22   C     C_R   0.111233 0.472337 0.204819 0.260178
C23   C     C_R   0.252592 0.524215 0.230600 -0.336424
C24   C     C_R   0.078749 0.524818 0.796090 0.280255
C25   C     C_R   0.139301 0.537569 0.890288 -0.063932
C26   C     C_R   0.058565 0.495584 0.954548 -0.021417
C27   C     C_R   0.280813 0.588835 0.923217 0.030535
C28   C     C_R   0.362037 0.578697 0.007572 -0.018962
C29   C     C_R   0.282719 0.543538 0.074216 -0.064586
C30   C     C_R   0.129192 0.501040 0.047108 -0.012544
C31   C     C_R   0.345694 0.554216 0.167339 0.162096
C32   C     C_R   0.934728 0.473087 0.771264 -0.511853
C33   C     C_R   0.705606 0.941487 0.552893 0.040548
C34   C     C_R   0.518498 0.801927 0.500502 0.344777
C35   C     C_R   0.369928 0.768934 0.457620 -0.543271
C36   C     C_R   0.258902 0.826422 0.421243 0.224604
C37   C     C_R   0.299326 0.919531 0.423244 -0.123403
C38   C     C_R   0.453850 0.955731 0.460256 -0.025592
C39   C     C_R   0.561365 0.898973 0.505629 -0.067430
C40   C     C_R   0.642159 0.090607 0.501020 -0.060330
C41   C     C_R   0.750222 0.035181 0.547698 -0.006275
C42   C     C_R   0.679801 0.187606 0.506551 0.263944
C43   C     C_R   0.818416 0.224941 0.559231 -0.478454
C44   C     C_R   0.935998 0.169053 0.590957 0.220335
C45   C     C_R   0.903592 0.074555 0.585525 -0.121660
C46   C     C_R   0.502295 0.047300 0.450883 0.046085
N1    N     N_3   0.661743 0.819963 0.293097 -0.134088
H2    H     H_    0.602555 0.864769 0.333699 0.042220
H3    H     H_    0.757926 0.859786 0.281121 0.179491
H4    H     H_    0.372820 0.838507 0.790575 0.197704
N2    N     N_3   0.396626 0.900733 0.674160 -0.182883
H5    H     H_    0.432539 0.961234 0.715113 0.122085
H6    H     H_    0.320756 0.919947 0.620439 0.135639
H7    H     H_    0.194111 0.879773 0.737572 0.185358
H8    H     H_    0.804417 0.263437 0.310829 0.135813
N3    N     N_3   0.986189 0.272211 0.419174 -0.213844
H9    H     H_    0.938061 0.333255 0.441854 0.140030
H10   H     H_    0.108747 0.281385 0.428089 0.191765
N4    N     N_3   0.850140 0.091496 0.347250 -0.213577
H11   H     H_    0.732371 0.101149 0.323663 0.150666
H12   H     H_    0.868810 0.022202 0.331631 0.123519
H13   H     H_    0.076301 0.131754 0.321160 0.153730
N5    N     N_3   0.916431 0.120025 0.202873 -0.211297
H14   H     H_    0.928180 0.049526 0.189976 0.111140
H15   H     H_    0.003529 0.150465 0.171305 0.155429
N6    N     N_3   0.855802 0.669685 0.713799 -0.149810
H16   H     H_    0.921172 0.656745 0.772823 0.091535
H17   H     H_    0.838117 0.609054 0.670749 0.120830
H18   H     H_    0.616865 0.637462 0.726520 0.095983
N7    N     N_3   0.526486 0.954014 0.177669 -0.245565
H19   H     H_    0.615640 0.981224 0.227819 0.089098
H20   H     H_    0.520425 0.998786 0.128225 0.095260
H21   H     H_    0.797837 0.808700 0.835475 0.226288
N8    N     N_3   0.764048 0.689469 0.899000 -0.229497
H22   H     H_    0.730089 0.621277 0.876547 0.123203
H23   H     H_    0.887312 0.693352 0.912338 0.129390
H24   H     H_    0.597714 0.774142 0.840621 0.204689
N9    N     N_3   0.395854 0.782175 0.226779 -0.222326
H25   H     H_    0.358654 0.846508 0.248615 0.068563
H26   H     H_    0.394247 0.746258 0.282091 0.078442
N10   N     N_3   0.463300 0.834076 0.056707 -0.208437
H27   H     H_    0.506247 0.859855 0.002140 0.090332
H28   H     H_    0.354785 0.863680 0.059880 0.105668
N11   N     N_3   0.337851 0.331016 0.293851 -0.206874
H29   H     H_    0.275710 0.273281 0.308153 0.176866
H30   H     H_    0.354952 0.375797 0.352277 0.152245
H31   H     H_    0.577468 0.360513 0.283413 0.118424
N12   N     N_3   0.341980 0.189715 0.157308 -0.210272
H32   H     H_    0.344635 0.155179 0.094089 0.087226
H33   H     H_    0.361523 0.140404 0.201746 0.141405
H34   H     H_    0.440639 0.316550 0.132929 0.134090
N13   N     N_3   0.619296 0.223054 0.153125 -0.197829
H35   H     H_    0.608072 0.206796 0.084094 0.079411
H36   H     H_    0.631999 0.160946 0.180178 0.158574
N14   N     N_3   0.733258 0.870737 0.118048 -0.180343
H37   H     H_    0.752358 0.812140 0.076334 0.172197
H38   H     H_    0.745585 0.925907 0.080777 0.099498
H39   H     H_    0.189063 0.755716 0.090271 0.174316
N15   N     N_3   0.179148 0.317190 0.819129 -0.182462
H40   H     H_    0.128769 0.338884 0.876125 0.039337
H41   H     H_    0.299851 0.334267 0.832213 0.208022
H42   H     H_    0.025979 0.202011 0.782334 -0.003757
N16   N     N_3   0.375474 0.192270 0.916546 -0.177515
H43   H     H_    0.419456 0.145762 0.959798 0.078875
H44   H     H_    0.387415 0.256963 0.953105 0.114771
N17   N     N_3   0.109828 0.191667 0.954618 -0.226704
H45   H     H_    0.115924 0.142965 0.000180 0.111658
H46   H     H_    0.147029 0.254632 0.991103 0.101514
N18   N     N_3   0.189460 0.068211 0.856568 -0.205954
H47   H     H_    0.272981 0.049129 0.814066 0.130800
H48   H     H_    0.215658 0.032689 0.912477 0.086860
H49   H     H_    0.779543 0.238411 0.756660 0.028506
N19   N     N_3   0.568045 0.177513 0.686809 -0.222853
H50   H     H_    0.506503 0.229599 0.658962 0.235802
H51   H     H_    0.483462 0.128042 0.696759 0.139490
N20   N     N_3   0.762227 0.056295 0.787013 -0.206101
H52   H     H_    0.865269 0.078956 0.764460 0.125206
H53   H     H_    0.683749 0.029069 0.731540 0.106784
H54   H     H_    0.574337 0.107470 0.846007 0.174422
N21   N     N_3   0.908822 0.670271 0.173124 -0.133327
H55   H     H_    0.913461 0.625654 0.222112 0.199256
H56   H     H_    0.922119 0.629056 0.114333 0.069310
N22   N     N_3   0.790241 0.163364 0.916116 -0.185873
H57   H     H_    0.728802 0.152050 0.969514 0.104244
H58   H     H_    0.823579 0.232721 0.920969 0.144568
H59   H     H_    0.837972 0.383433 0.128477 0.182425
N23   N     N_3   0.664416 0.382529 0.978802 -0.159616
H60   H     H_    0.599985 0.419940 0.023013 0.133473
H61   H     H_    0.659290 0.315623 0.995002 0.099387
N24   N     N_3   0.528347 0.600788 0.021625 -0.150279
H62   H     H_    0.549181 0.668720 0.010929 0.146475
H63   H     H_    0.581702 0.559849 0.974758 0.130829
N25   N     N_3   0.339561 0.657765 0.874863 -0.160598
H64   H     H_    0.453599 0.643312 0.862132 0.142297
H65   H     H_    0.341421 0.721145 0.913204 0.087334
N26   N     N_3   0.295235 0.551247 0.323718 -0.143130
H66   H     H_    0.310787 0.621770 0.332622 0.112007
H67   H     H_    0.396422 0.519460 0.347704 0.169583
H68   H     H_    0.887946 0.461880 0.701081 0.174958
H69   H     H_    0.335429 0.698317 0.459806 0.160631
N27   N     N_3   0.179480 0.978650 0.392000 -0.226420
H70   H     H_    0.141562 0.959339 0.324195 0.134335
H71   H     H_    0.084532 0.974688 0.428679 0.155917
N28   N     N_3   0.029955 0.018690 0.615281 -0.238257
H72   H     H_    0.069685 0.038030 0.682682 0.120193
H73   H     H_    0.123081 0.025242 0.577737 0.154881
H74   H     H_    0.842527 0.298195 0.567597 0.163107
N29   N     N_3   0.803105 0.890636 0.610788 -0.147402
H75   H     H_    0.827868 0.923846 0.675361 0.108778
H76   H     H_    0.905983 0.878894 0.582747 0.167032
N30   N     N_3   0.424439 0.090468 0.378697 -0.168255
H77   H     H_    0.405933 0.045077 0.320121 0.085582
H78   H     H_    0.319474 0.117033 0.395628 0.171959
H79   H     H_    0.986789 0.752960 0.052147 0.174798
N31   N     N_3   0.073104 0.879227 0.119348 -0.169053
H80   H     H_    0.080863 0.901500 0.056682 0.110220
H81   H     H_    0.172764 0.906923 0.161777 0.143866
H82   H     H_    0.370432 0.714669 0.661091 0.125420
N32   N     N_3   0.161577 0.758133 0.591599 -0.220087
H83   H     H_    0.148529 0.694875 0.552860 0.157111
H84   H     H_    0.051000 0.771898 0.609253 0.161892

loop_
_geom_bond_atom_site_label_1
_geom_bond_atom_site_label_2
_geom_bond_distance
_ccdc_geom_bond_type
N32   H84   1.033464 S    
N26   H66   1.034184 S    
C33   N29   1.420699 S    
P1    Ba1   3.446743 S    
N31   H80   1.045775 S    
O4    P6    1.544454 D    
N21   H56   1.044502 S    
C38   C39   1.423371 A    
C12   N13   1.460548 S    
C27   N25   1.425407 S    
C4    C5    1.534788 S    
C20   C21   1.398810 A    
C1    N7    1.472203 S    
N12   H32   1.039471 S    
P8    O23   1.546769 D    
C19   C30   1.429508 A    
C42   C43   1.401303 A    
N7    H20   1.046294 S    
O14   Ba2   2.900301 S    
P4    O12   1.575139 D    
N6    H16   1.031892 S    
C1    C10   1.581910 S    
O14   P8    1.736901 S    
O16   Ba2   2.980917 S    
N19   H51   1.043309 S    
P1    O1    1.574711 D    
P3    O11   1.762350 S    
N29   H76   1.034365 S    
N5    H14   1.045899 S    
N2    H6    1.043977 S    
N12   H33   1.044360 S    
C32   H68   1.081383 S    
C33   C39   1.431908 A    
O11   C2    1.416724 S    
O5    C6    1.397249 S    
C15   H49   1.108612 S    
C21   N23   1.430226 S    
P2    O20   1.606099 S    
O17   Ba2   2.827175 S    
N10   H27   1.046442 S    
C3    H39   1.106664 S    
C25   C27   1.408250 A    
C8    N6    1.440377 S    
O10   C8    1.385395 S    
C5    H7    1.114381 S    
C9    H24   1.105081 S    
C24   C32   1.410972 A    
C18   C26   1.432298 A    
C23   C31   1.415065 A    
C15   C16   1.560058 S    
C16   H54   1.107095 S    
C2    H1    1.103941 S    
C5    N2    1.454968 S    
C43   H74   1.081703 S    
C6    N3    1.457856 S    
P5    O17   1.740887 S    
C35   C36   1.392133 A    
C14   N17   1.471524 S    
C35   H69   1.075467 S    
C9    N8    1.465156 S    
C14   N16   1.467594 S    
P3    C36   1.864319 S    
N25   H65   1.044225 S    
N32   H83   1.041667 S    
C16   N20   1.455402 S    
C24   C25   1.446092 A    
N24   H63   1.041532 S    
C10   N1    1.469772 S    
N22   H58   1.042729 S    
N4    H11   1.042870 S    
P7    O22   1.755681 S    
O1    Ba1   2.873953 S    
C38   C46   1.422735 A    
P8    O24   1.764197 S    
N23   H61   1.040324 S    
N11   H30   1.038099 S    
C6    H8    1.093696 S    
Ba1   O16   2.861592 S    
C28   C29   1.415760 A    
P1    O5    1.752569 S    
C45   N28   1.434367 S    
N25   H64   1.040213 S    
C8    C9    1.550248 S    
C20   H59   1.077401 S    
N18   H48   1.046214 S    
N3    H9    1.043751 S    
Ba1   Ba2   4.652081 S    
C10   N9    1.457678 S    
N2    H5    1.043548 S    
C40   C46   1.423208 A    
N15   H41   1.040986 S    
C13   C14   1.561518 S    
O8    Ba1   2.826572 S    
O7    Ba1   2.911843 S    
C44   C45   1.400423 A    
N9    H26   1.038213 S    
C25   C26   1.439314 A    
P1    O2    1.605641 S    
N17   H46   1.045460 S    
C29   C31   1.435799 A    
N14   H38   1.046422 S    
C40   C41   1.422674 A    
N13   H36   1.043843 S    
N29   H75   1.039882 S    
C27   C28   1.400242 A    
P1    C22   1.915784 S    
N3    H10   1.039723 S    
N26   H67   1.039471 S    
Ba1   O20   2.981861 S    
C11   O22   1.406485 S    
N20   H52   1.039672 S    
C5    H4    1.108654 S    
C11   N11   1.445782 S    
C2    N21   1.457753 S    
C13   H42   1.101983 S    
C13   N15   1.461063 S    
P5    O18   1.543616 D    
C34   C39   1.453761 A    
C2    C3    1.553846 S    
N19   H50   1.039676 S    
N4    H12   1.044509 S    
C15   O24   1.417860 S    
C40   C42   1.443851 A    
P8    C17   1.888907 S    
C17   C32   1.415188 A    
P3    O8    1.726282 S    
C4    N32   1.449920 S    
P4    Ba2   3.447367 S    
N27   H70   1.043947 S    
C7    H13   1.109023 S    
Ba1   O13   2.897409 S    
C4    H82   1.103755 S    
N1    H3    1.037883 S    
P2    O7    1.545880 D    
C1    N14   1.468100 S    
N22   H57   1.042497 S    
P5    O19   1.755708 S    
O2    Ba1   3.001001 S    
C33   C41   1.430731 A    
P7    O21   1.590217 D    
N30   H78   1.039925 S    
N13   H35   1.039895 S    
O19   C13   1.408520 S    
C46   N30   1.425968 S    
C17   C18   1.439091 A    
N9    H25   1.042834 S    
P4    C24   1.947167 S    
C18   C21   1.429013 A    
C19   C20   1.393602 A    
C3    N31   1.464494 S    
N31   H81   1.042184 S    
C43   C44   1.389917 A    
P4    O13   1.605514 S    
C12   H34   1.113895 S    
Ba2   O20   2.860963 S    
C41   C45   1.437496 A    
P2    C34   1.874389 S    
C37   C38   1.428225 A    
Ba2   O21   2.912031 S    
P3    O9    1.545856 D    
C14   N18   1.472550 S    
N11   H29   1.042664 S    
P5    C44   1.864637 S    
N15   H40   1.038108 S    
N16   H44   1.044910 S    
O12   Ba2   2.874446 S    
N23   H60   1.044056 S    
C11   H31   1.110654 S    
N7    H19   1.042182 S    
C16   N22   1.459543 S    
N5    H15   1.045936 S    
C7    N4    1.461193 S    
N18   H47   1.045403 S    
C29   C30   1.424980 A    
C12   N12   1.470358 S    
N8    H23   1.044147 S    
N14   H37   1.044300 S    
C36   C37   1.397813 A    
N8    H22   1.044175 S    
O3    Ba1   2.900848 S    
P2    Ba1   3.479113 S    
C22   C23   1.395055 A    
O2    Ba2   2.897985 S    
C15   N19   1.465863 S    
N27   H71   1.042055 S    
O6    C10   1.423065 S    
N10   H28   1.040988 S    
P2    O10   1.761214 S    
C23   N26   1.422909 S    
N20   H53   1.041465 S    
P6    C31   1.880677 S    
C34   C35   1.396138 A    
C37   N27   1.432446 S    
N16   H43   1.043447 S    
C1    N10   1.473434 S    
N28   H72   1.041285 S    
C26   C30   1.448164 A    
N24   H62   1.042386 S    
C28   N24   1.429234 S    
C7    N5    1.466847 S    
O3    P6    1.743023 S    
O13   Ba2   3.001996 S    
P7    C42   1.868230 S    
N6    H17   1.043083 S    
N1    H2    1.041139 S    
N21   H55   1.039624 S    
O16   P7    1.771000 S    
C6    C7    1.543695 S    
O6    P6    1.776832 S    
C11   C12   1.535538 S    
C8    H18   1.111954 S    
N30   H77   1.044913 S    
N17   H45   1.044408 S    
C4    O15   1.392964 S    
C19   C22   1.433832 A    
C9    H21   1.113621 S    
C3    H79   1.105822 S    
N28   H73   1.041520 S    
P4    O15   1.752515 S    
