data_mof_unit_9573.cif
_audit_creation_date              2012-12-11T14:49:42-0500
_audit_creation_method            fapswitch 2.2
_symmetry_space_group_name_H-M    P1
_symmetry_Int_Tables_number       1
_space_group_crystal_system       monoclinic
_cell_length_a                    16.897676
_cell_length_b                    7.037791
_cell_length_c                    16.924351
_cell_angle_alpha                 90.0
_cell_angle_beta                  100.722892
_cell_angle_gamma                 90.0
_cell_volume                      1977.53856185

loop_
_atom_site_label
_atom_site_type_symbol
_atom_type_description
_atom_site_fract_x
_atom_site_fract_y
_atom_site_fract_z
_atom_type_partial_charge
O1    O     O_R   0.579510 0.506290 0.439030 -0.550385
O2    O     O_R   0.420490 0.006290 0.560970 -0.550390
O3    O     O_R   0.412540 0.170090 0.405290 -0.485082
O4    O     O_R   0.587460 0.670090 0.594710 -0.485083
C1    C     C_R   0.385221 0.346262 0.381939 0.867226
C2    C     C_R   0.614779 0.846262 0.618061 0.867227
O5    O     O_R   0.578390 0.176230 0.429330 -0.532765
O6    O     O_R   0.421610 0.676230 0.570670 -0.532762
O7    O     O_R   0.587530 0.011250 0.585190 -0.514535
O8    O     O_R   0.412470 0.511250 0.414810 -0.514532
C3    C     C_R   0.603880 0.344667 0.412898 0.669916
C4    C     C_R   0.396120 0.844667 0.587103 0.669920
O9    O     O_3   0.502800 0.340940 0.551110 -0.356493
O10   O     O_3   0.497200 0.840940 0.448890 -0.356491
V1    V     V_3+5 0.499480 0.064020 0.490520 1.722450
V2    V     V_3+5 0.500520 0.564020 0.509480 1.722456
C5    C     C_R   0.166054 0.918837 0.861033 -0.364559
C6    C     C_R   0.833946 0.418836 0.138967 -0.364561
C7    C     C_R   0.333217 0.848120 0.638432 -0.267679
C8    C     C_R   0.666783 0.348120 0.361569 -0.267678
C9    C     C_R   0.207970 0.718875 0.668286 0.007458
C10   C     C_R   0.792034 0.218888 0.331718 0.007457
C11   C     C_R   0.263501 0.732641 0.617116 0.320252
C12   C     C_R   0.736502 0.232650 0.382887 0.320250
C13   C     C_R   0.343916 0.953570 0.711754 0.432805
C14   C     C_R   0.656084 0.453566 0.288246 0.432803
C15   C     C_R   0.284631 0.943354 0.761558 -0.198685
C16   C     C_R   0.715368 0.443351 0.238442 -0.198686
C17   C     C_R   0.216739 0.822883 0.739999 -0.113110
C18   C     C_R   0.783263 0.322889 0.260004 -0.113113
C19   C     C_R   0.157142 0.810572 0.788976 0.316365
C20   C     C_R   0.842861 0.310580 0.211026 0.316362
C21   C     C_R   0.233653 0.037174 0.881772 0.536122
C22   C     C_R   0.766345 0.537164 0.118226 0.536122
C23   C     C_R   0.292047 0.049276 0.833425 0.660518
C24   C     C_R   0.707950 0.549265 0.166572 0.660519
H1    H     H_    0.156240 0.627329 0.650041 0.208234
H2    H     H_    0.843766 0.127349 0.349965 0.208236
C25   C     C_3   0.742375 0.779973 0.838079 0.676381
C26   C     C_3   0.257625 0.279973 0.161920 0.676382
C27   C     C_3   0.667254 0.762236 0.766057 0.763557
C28   C     C_3   0.332746 0.262237 0.233943 0.763555
C29   C     C_3   0.839570 0.817775 0.736695 0.676071
C30   C     C_3   0.160430 0.317774 0.263305 0.676071
C31   C     C_3   0.774287 0.107919 0.787056 0.744563
C32   C     C_3   0.225713 0.607919 0.212945 0.744563
C33   C     C_3   0.811384 0.907722 0.812775 -0.574796
C34   C     C_3   0.188616 0.407722 0.187224 -0.574797
C35   C     C_3   0.686085 0.866786 0.689217 -0.601904
C36   C     C_3   0.313915 0.366786 0.310783 -0.601903
C37   C     C_3   0.764771 0.773809 0.668313 0.678013
C38   C     C_3   0.235229 0.273809 0.331687 0.678014
C39   C     C_3   0.703928 0.085735 0.711366 0.706266
C40   C     C_3   0.296071 0.585735 0.288634 0.706267
O11   O     O_R   0.087500 0.266000 0.085220 -0.527321
O12   O     O_R   0.912500 0.766000 0.914780 -0.527321
O13   O     O_R   0.921600 0.589950 0.070670 -0.521366
O14   O     O_R   0.078400 0.089950 0.929330 -0.521364
C41   C     C_R   0.895835 0.422137 0.086841 0.806920
C42   C     C_R   0.104165 0.922137 0.913159 0.806921
O15   O     O_R   0.087460 0.596020 0.094710 -0.505653
O16   O     O_R   0.912540 0.096020 0.905290 -0.505653
O17   O     O_R   0.079520 0.760970 0.939020 -0.550853
O18   O     O_R   0.920480 0.260970 0.060980 -0.550854
C43   C     C_R   0.116634 0.426041 0.117175 0.977046
C44   C     C_R   0.883366 0.926041 0.882825 0.977044
O19   O     O_3   0.997180 0.425140 0.948910 -0.378504
O20   O     O_3   0.002820 0.925140 0.051090 -0.378505
V3    V     V_3+5 0.000520 0.702080 0.009480 1.750822
V4    V     V_3+5 0.999480 0.202080 0.990520 1.750825
O21   O     O_3   0.090550 0.696751 0.763007 -0.609143
H3    H     H_    0.046901 0.729774 0.792063 0.321732
O22   O     O_3   0.909455 0.196768 0.236997 -0.609142
H4    H     H_    0.953103 0.229787 0.207939 0.321733
F1    F     F_    0.652776 0.571616 0.747958 -0.509179
F2    F     F_    0.347224 0.071616 0.252042 -0.509179
O23   O     O_3   0.884555 0.651222 0.758057 -0.603488
H5    H     H_    0.908309 0.613579 0.710941 0.381122
O24   O     O_3   0.115445 0.151221 0.241943 -0.603488
H6    H     H_    0.091691 0.113577 0.289059 0.381123
F3    F     F_    0.754884 0.577962 0.661325 -0.588702
F4    F     F_    0.245116 0.077961 0.338675 -0.588702
F5    F     F_    0.834092 0.223665 0.766868 -0.572395
F6    F     F_    0.165908 0.723664 0.233132 -0.572396
O25   O     O_3   0.750151 0.199662 0.853010 -0.558016
H7    H     H_    0.694304 0.166889 0.856862 0.368642
O26   O     O_3   0.249849 0.699663 0.146990 -0.558017
H8    H     H_    0.305695 0.666889 0.143138 0.368642
F7    F     F_    0.634162 0.169369 0.727080 -0.600374
F8    F     F_    0.365838 0.669369 0.272921 -0.600372
O27   O     O_3   0.721740 0.187148 0.644850 -0.540589
H9    H     H_    0.777042 0.157888 0.637313 0.379717
O28   O     O_3   0.278259 0.687147 0.355150 -0.540589
H10   H     H_    0.222958 0.657887 0.362687 0.379715
F9    F     F_    0.890606 0.945133 0.708116 -0.614078
F10   F     F_    0.109394 0.445132 0.291884 -0.614078
O29   O     O_3   0.780053 0.841109 0.594231 -0.597422
H11   H     H_    0.743075 0.773982 0.550689 0.320318
O30   O     O_3   0.219947 0.341108 0.405769 -0.597423
H12   H     H_    0.256925 0.273981 0.449311 0.320319
F11   F     F_    0.243565 0.142213 0.950212 -0.534915
F12   F     F_    0.756430 0.642194 0.049783 -0.534913
F13   F     F_    0.355436 0.167513 0.857621 -0.519826
F14   F     F_    0.644559 0.667491 0.142373 -0.519825
O31   O     O_3   0.246447 0.630293 0.546409 -0.607092
H13   H     H_    0.276603 0.684612 0.507112 0.326636
O32   O     O_3   0.753557 0.130307 0.453595 -0.607088
H14   H     H_    0.723397 0.184618 0.492890 0.326635
O33   O     O_3   0.411707 0.063753 0.737429 -0.546040
H15   H     H_    0.455241 0.027743 0.708684 0.331380
O34   O     O_3   0.588291 0.563743 0.262570 -0.546040
H16   H     H_    0.544755 0.527714 0.291309 0.331379
O35   O     O_3   0.771807 0.599241 0.864230 -0.514242
H17   H     H_    0.782781 0.527389 0.817495 0.403672
O36   O     O_3   0.228193 0.099242 0.135769 -0.514244
H18   H     H_    0.217219 0.027389 0.182505 0.403672
F15   F     F_    0.718784 0.860120 0.904795 -0.582869
F16   F     F_    0.281216 0.360121 0.095205 -0.582867
O37   O     O_3   0.594657 0.828771 0.786086 -0.567900
H19   H     H_    0.604012 0.946452 0.818007 0.355753
O38   O     O_3   0.405342 0.328772 0.213914 -0.567905
H20   H     H_    0.395988 0.446453 0.181993 0.355752

loop_
_geom_bond_atom_site_label_1
_geom_bond_atom_site_label_2
_ccdc_geom_bond_type
C37   O29   S    
C26   F16   S    
O26   H8    S    
O28   H10   S    
C15   C17   A    
O22   H4    S    
C31   O25   S    
O34   H16   S    
O1    C3    A    
O2    C4    A    
C2    O7    A    
O29   H11   S    
C25   C27   S    
O25   H7    S    
O5    C3    A    
C41   O18   A    
C36   C40   S    
C6    C20   A    
C42   O17   A    
C21   F11   S    
O35   H17   S    
C23   F13   S    
O12   C44   A    
O13   C41   A    
C26   O36   S    
O14   C42   A    
O36   H18   S    
C10   H2    S    
O16   V4    S    
C35   C37   S    
C40   O28   S    
C8    C12   A    
O20   V3    S    
C25   O35   S    
C39   O27   S    
C29   F9    S    
O32   H14   S    
O18   V4    S    
C34   C43   S    
C37   F3    S    
C33   C44   S    
C13   O33   S    
C30   C38   S    
O5    V1    S    
C31   C39   S    
O6    V2    S    
C31   F5    S    
C5    C21   A    
C27   C35   S    
O11   C43   A    
C31   C33   S    
C32   C34   S    
C3    C8    S    
O16   C44   A    
O17   V3    S    
O4    C2    A    
C20   O22   S    
O1    V2    S    
O14   V4    S    
C15   C23   A    
O23   H5    S    
C9    C17   A    
O19   V3    S    
O4    V2    S    
C7    C11   A    
C30   F10   S    
C27   F1    S    
C36   C38   S    
O30   H12   S    
O6    C4    A    
C32   C40   S    
C12   O32   S    
C22   F12   S    
C27   O37   S    
C38   F4    S    
O2    V1    S    
C6    C22   A    
O38   H20   S    
C28   C36   S    
C32   F6    S    
C9    C11   A    
C39   F7    S    
C5    C19   A    
C10   C12   A    
C1    C36   S    
C29   O23   S    
O27   H9    S    
O3    V1    S    
C25   C33   S    
C32   O26   S    
O15   V3    S    
C26   C34   S    
C10   C18   A    
C28   F2    S    
C30   O24   S    
O3    C1    A    
O37   H19   S    
C40   F8    S    
C13   C15   A    
O31   H13   S    
C38   O30   S    
C14   C16   A    
C24   F14   S    
O19   V4    S    
C16   C18   A    
O7    V1    S    
C1    O8    A    
C17   C19   A    
C25   F15   S    
O33   H15   S    
C18   C20   A    
C29   C37   S    
C8    C14   A    
C35   C39   S    
C4    C7    S    
C26   C28   S    
C21   C23   A    
C22   C24   A    
C2    C35   S    
C7    C13   A    
O11   V4    S    
C5    C42   S    
O24   H6    S    
O15   C43   A    
C6    C41   S    
O21   H3    S    
C9    H1    S    
C16   C24   A    
O20   V4    S    
O12   V3    S    
O9    V2    S    
O10   V1    S    
O8    V2    S    
O13   V3    S    
C29   C33   S    
C14   O34   S    
C30   C34   S    
C28   O38   S    
C19   O21   S    
C11   O31   S    
