data_mof_unit_41214.cif
_audit_creation_date              2012-12-10T17:43:37-0500
_audit_creation_method            fapswitch 2.2
_symmetry_space_group_name_H-M    P1
_symmetry_Int_Tables_number       1
_space_group_crystal_system       triclinic
_cell_length_a                    14.924841
_cell_length_b                    10.662813
_cell_length_c                    9.966524
_cell_angle_alpha                 89.974437
_cell_angle_beta                  89.911495
_cell_angle_gamma                 93.445247
_cell_volume                      1583.21181766

loop_
_atom_site_label
_atom_site_type_symbol
_atom_type_description
_atom_site_fract_x
_atom_site_fract_y
_atom_site_fract_z
_atom_type_partial_charge
C1    C     C_R   0.503168 0.260837 0.499970 1.014318
C2    C     C_R   0.910437 0.608274 0.536615 0.149577
C3    C     C_R   0.942005 0.279593 0.428049 -0.203439
C4    C     C_R   0.034699 0.276953 0.430826 0.687621
C5    C     C_R   0.088283 0.385462 0.467699 -0.120026
C6    C     C_R   0.046335 0.497631 0.500549 -0.086030
C7    C     C_R   0.097611 0.609462 0.534652 0.069319
C8    C     C_R   0.054148 0.718350 0.569441 -0.085512
C9    C     C_R   0.961310 0.717350 0.571103 -0.144095
C10   C     C_R   0.182122 0.386213 0.473011 0.332029
C11   C     C_R   0.231631 0.498811 0.501248 -0.258102
C12   C     C_R   0.327350 0.499941 0.500243 1.069453
C13   C     C_R   0.191027 0.609876 0.532587 0.267093
C14   C     C_R   0.643586 0.143020 0.649843 -0.238654
C15   C     C_R   0.708178 0.083618 0.723481 0.667249
C16   C     C_R   0.708191 0.952940 0.724622 0.326643
C17   C     C_R   0.643864 0.881843 0.651278 -0.342174
C18   C     C_R   0.577149 0.940627 0.577374 0.046187
C19   C     C_R   0.576733 0.072280 0.576918 -0.057303
C20   C     C_R   0.510886 0.128762 0.499177 -0.183575
C21   C     C_R   0.451368 0.058104 0.417148 0.662222
C22   C     C_R   0.451846 0.930418 0.418102 -0.203168
C23   C     C_R   0.504681 0.739341 0.500058 0.917231
C24   C     C_R   0.512012 0.872135 0.499797 -0.138203
C25   C     C_R   0.379850 0.337952 0.145039 -0.074862
C26   C     C_R   0.318181 0.256963 0.081053 -0.201011
C27   C     C_R   0.316161 0.253261 0.943342 -0.233364
C28   C     C_R   0.375396 0.330487 0.867845 0.656765
C29   C     C_R   0.439510 0.417920 0.929320 0.020660
C30   C     C_R   0.440336 0.419413 0.073781 0.065481
C31   C     C_R   0.557089 0.577338 0.070942 -0.046228
C32   C     C_R   0.557062 0.577382 0.928286 -0.059617
C33   C     C_R   0.672583 0.500891 0.499855 0.900824
C34   C     C_R   0.817665 0.607548 0.537806 -0.305041
C35   C     C_R   0.767569 0.499561 0.499473 -0.157883
C36   C     C_R   0.807601 0.390798 0.460444 0.611601
C37   C     C_R   0.900552 0.388719 0.462638 -0.090553
C38   C     C_R   0.952572 0.498127 0.499981 0.024496
H1    H     H_    0.784273 0.691116 0.566214 0.177455
H2    H     H_    0.648248 0.244422 0.648590 0.200539
H3    H     H_    0.648051 0.781082 0.651221 0.182654
H4    H     H_    0.403310 0.876384 0.357127 0.210636
H5    H     H_    0.603913 0.640826 0.123945 0.155869
H6    H     H_    0.378536 0.333532 0.251050 0.268546
H7    H     H_    0.272166 0.195823 0.138818 0.260540
H8    H     H_    0.268265 0.188539 0.893718 0.219865
H9    H     H_    0.603820 0.640867 0.874860 0.162051
H10   H     H_    0.902673 0.195280 0.398833 0.232773
H11   H     H_    0.091046 0.805069 0.596299 0.226638
H12   H     H_    0.929284 0.802256 0.598607 0.199538
N1    N     N_R   0.499150 0.498800 0.142780 -0.116653
N2    N     N_R   0.499120 0.498720 0.857170 -0.112832
O1    O     O_R   0.500000 0.316780 0.614690 -0.571500
O2    O     O_R   0.499990 0.316750 0.385360 -0.608873
O3    O     O_R   0.367850 0.499980 0.614680 -0.525199
O4    O     O_R   0.367840 0.499960 0.385350 -0.653686
O5    O     O_R   0.500010 0.683250 0.614640 -0.608009
O6    O     O_R   0.500000 0.683220 0.385310 -0.632151
O7    O     O_R   0.632160 0.500040 0.614650 -0.642527
O8    O     O_R   0.632150 0.500020 0.385320 -0.597422
Zn1   Zn    Zn3+2 0.500010 0.500020 0.653130 1.034408
Zn2   Zn    Zn3+2 0.499990 0.499980 0.346870 1.000727
F1    F     F_    0.771579 0.153780 0.792168 -0.604624
Cl1   Cl    Cl    0.789659 0.877172 0.816155 -0.557275
F2    F     F_    0.366006 0.312147 0.736255 -0.620388
F3    F     F_    0.755867 0.287566 0.422216 -0.679548
F4    F     F_    0.070098 0.167992 0.393736 -0.590116
Cl2   Cl    Cl    0.240125 0.247052 0.453902 -0.438646
Cl3   Cl    Cl    0.258711 0.748610 0.568521 -0.591862
F5    F     F_    0.390757 0.112295 0.338299 -0.640856

loop_
_geom_bond_atom_site_label_1
_geom_bond_atom_site_label_2
_ccdc_geom_bond_type
O6    Zn2   S    
C4    F4    S    
C30   N1    A    
C6    C38   A    
O5    Zn1   S    
C29   C30   A    
C10   Cl2   S    
C23   O6    A    
C16   Cl1   S    
C2    C38   A    
C36   F3    S    
C19   C20   A    
C21   F5    S    
C23   C24   S    
C2    C34   A    
C28   F2    S    
C5    C10   A    
C33   O7    A    
C22   H4    S    
C21   C22   A    
C11   C13   A    
C3    C37   A    
C26   C27   A    
C6    C7    A    
N1    Zn2   S    
C31   H5    S    
C1    O2    A    
C18   C24   A    
O3    Zn1   S    
C27   H8    S    
C14   C19   A    
C36   C37   A    
C12   O4    A    
C37   C38   A    
C17   C18   A    
C33   O8    A    
C22   C24   A    
N2    Zn1   S    
C5    C6    A    
C32   H9    S    
O4    Zn2   S    
O7    Zn1   S    
C17   H3    S    
C7    C8    A    
C10   C11   A    
C9    H12   S    
C14   H2    S    
C34   H1    S    
C12   O3    A    
C16   C17   A    
C3    H10   S    
C7    C13   A    
C18   C19   A    
C20   C21   A    
C25   H6    S    
O8    Zn2   S    
C34   C35   A    
C25   C30   A    
C23   O5    A    
C13   Cl3   S    
C1    O1    A    
C14   C15   A    
C4    C5    A    
C1    C20   S    
C15   F1    S    
C35   C36   A    
O2    Zn2   S    
C26   H7    S    
C33   C35   S    
C25   C26   A    
C2    C9    A    
O1    Zn1   S    
C8    H11   S    
C29   N2    A    
C31   C32   A    
C32   N2    A    
C3    C4    A    
C15   C16   A    
C11   C12   S    
C31   N1    A    
C8    C9    A    
C27   C28   A    
C28   C29   A    
