data_mof_unit_18771.cif
_audit_creation_date              2012-12-10T20:55:05-0500
_audit_creation_method            fapswitch 2.2
_symmetry_space_group_name_H-M    P1
_symmetry_Int_Tables_number       1
_space_group_crystal_system       triclinic
_cell_length_a                    15.826774
_cell_length_b                    15.080377
_cell_length_c                    10.664714
_cell_angle_alpha                 90.173393
_cell_angle_beta                  90.149508
_cell_angle_gamma                 90.268976
_cell_volume                      2545.33848397

loop_
_atom_site_label
_atom_site_type_symbol
_atom_type_description
_atom_site_fract_x
_atom_site_fract_y
_atom_site_fract_z
_atom_type_partial_charge
C1    C     C_R   0.338931 0.499781 0.500267 0.851840
C2    C     C_R   0.661025 0.500246 0.499327 0.925672
C3    C     C_R   0.954882 0.421186 0.528545 0.311074
C4    C     C_R   0.042933 0.420941 0.534003 0.315534
C5    C     C_1   0.823963 0.501868 0.505752 0.109442
C6    C     C_1   0.175959 0.499446 0.509487 0.125269
C7    C     C_1   0.250696 0.499355 0.504758 -0.184570
C8    C     C_1   0.749225 0.501129 0.502041 -0.191473
C9    C     C_R   0.423534 0.952900 0.491319 0.470796
C10   C     C_R   0.576805 0.953434 0.504604 0.444275
C11   C     C_R   0.500167 0.905088 0.498086 -0.178047
C12   C     C_R   0.576410 0.047457 0.502833 -0.283979
C13   C     C_R   0.424081 0.046743 0.494451 -0.248618
C14   C     C_R   0.500246 0.095035 0.499005 -0.052125
C15   C     C_1   0.500115 0.807089 0.499234 0.158698
C16   C     C_1   0.500163 0.192871 0.499569 0.098390
C17   C     C_R   0.498477 0.499789 0.259969 0.975206
C18   C     C_R   0.498524 0.500095 0.739942 0.948270
C19   C     C_R   0.356218 0.575655 0.130143 -0.133081
C20   C     C_R   0.355965 0.575093 0.869080 -0.128054
C21   C     C_R   0.288643 0.612471 0.064658 -0.144516
C22   C     C_R   0.288455 0.612074 0.934273 -0.149054
C23   C     C_R   0.425771 0.538596 0.934156 0.037755
C24   C     C_R   0.425770 0.538592 0.065359 0.031560
C25   C     C_R   0.494407 0.498826 0.127891 -0.289914
C26   C     C_R   0.495042 0.500082 0.871883 -0.289581
C27   C     C_R   0.559767 0.455572 0.064649 0.335297
C28   C     C_R   0.562069 0.459871 0.935417 0.341038
C29   C     C_R   0.956964 0.581518 0.492736 0.317626
C30   C     C_R   0.044995 0.581309 0.499345 0.315807
C31   C     C_R   0.912870 0.501707 0.509964 -0.225366
C32   C     C_R   0.087031 0.500508 0.514721 -0.230221
H1    H     H_    0.352513 0.575354 0.231324 0.138472
H2    H     H_    0.352210 0.574597 0.767875 0.137619
H3    H     H_    0.235870 0.640506 0.115281 0.138636
H4    H     H_    0.235557 0.639820 0.883427 0.124756
H5    H     H_    0.364555 0.081893 0.492327 0.169556
H6    H     H_    0.635967 0.083179 0.505041 0.163418
N1    N     N_1   0.500000 0.270550 0.500000 -0.098868
N2    N     N_1   0.500000 0.729450 0.500000 -0.096385
O1    O     O_R   0.378020 0.573650 0.500040 -0.627753
O2    O     O_R   0.621980 0.573650 0.499960 -0.610234
O3    O     O_R   0.378020 0.426320 0.500100 -0.609354
O4    O     O_R   0.621980 0.426320 0.499900 -0.606823
O5    O     O_R   0.500000 0.573680 0.316780 -0.625104
O6    O     O_R   0.500000 0.573680 0.683220 -0.635234
O7    O     O_R   0.500000 0.426350 0.316830 -0.610278
O8    O     O_R   0.500000 0.426350 0.683170 -0.579434
Zn1   Zn    Zn3+2 0.500000 0.598370 0.500000 0.968093
Zn2   Zn    Zn3+2 0.500000 0.401630 0.500000 0.985336
O9    O     O_3   0.626256 0.418168 0.130578 -0.609783
C33   C     C_3   0.617818 0.324827 0.128114 0.170653
H7    H     H_    0.631529 0.298281 0.032988 0.180206
H8    H     H_    0.553207 0.303169 0.156584 0.137465
C34   C     C_3   0.680870 0.284791 0.219451 -0.849849
H9    H     H_    0.668193 0.308946 0.315969 0.277076
H10   H     H_    0.675213 0.211368 0.218131 0.205192
H11   H     H_    0.746225 0.303761 0.192510 0.248086
O10   O     O_3   0.627699 0.420303 0.870676 -0.603413
C35   C     C_3   0.695204 0.481343 0.860134 0.105839
H12   H     H_    0.710280 0.514472 0.951199 0.157718
H13   H     H_    0.679640 0.532746 0.789197 0.129280
C36   C     C_3   0.773758 0.431982 0.817693 -0.771966
H14   H     H_    0.760632 0.395404 0.729201 0.278583
H15   H     H_    0.826274 0.479704 0.801797 0.200662
H16   H     H_    0.793181 0.383826 0.890781 0.248448
O11   O     O_3   0.090203 0.659082 0.482578 -0.588704
C37   C     C_3   0.101296 0.700253 0.600605 0.109240
H17   H     H_    0.127214 0.653370 0.671591 0.111722
H18   H     H_    0.040126 0.727141 0.634830 0.171458
C38   C     C_3   0.163754 0.776576 0.587648 -0.770534
H19   H     H_    0.140602 0.824714 0.516981 0.258817
H20   H     H_    0.171289 0.811041 0.679180 0.205873
H21   H     H_    0.226197 0.750780 0.557853 0.264049
O12   O     O_3   0.913931 0.660301 0.476351 -0.587744
C39   C     C_3   0.905638 0.676163 0.346517 0.126547
H22   H     H_    0.872644 0.620020 0.298519 0.125996
H23   H     H_    0.968695 0.686564 0.302656 0.166122
C40   C     C_3   0.853517 0.759432 0.326784 -0.796289
H24   H     H_    0.885125 0.817074 0.372275 0.255898
H25   H     H_    0.846938 0.772819 0.224905 0.199873
H26   H     H_    0.789591 0.750488 0.367712 0.273791
O13   O     O_3   0.909806 0.343828 0.549554 -0.588439
C41   C     C_3   0.897108 0.300116 0.433770 0.148231
H27   H     H_    0.958372 0.276827 0.394855 0.169356
H28   H     H_    0.865720 0.344226 0.364243 0.123659
C42   C     C_3   0.840250 0.219871 0.454108 -0.834365
H29   H     H_    0.778131 0.241379 0.491422 0.258748
H30   H     H_    0.830014 0.184564 0.363777 0.208423
H31   H     H_    0.870084 0.173707 0.521831 0.261389
O14   O     O_3   0.085844 0.342014 0.549249 -0.582451
C43   C     C_3   0.098089 0.327620 0.678713 0.141498
H32   H     H_    0.036369 0.319165 0.727348 0.164613
H33   H     H_    0.133701 0.383623 0.722759 0.119649
C44   C     C_3   0.149198 0.243450 0.696636 -0.811071
H34   H     H_    0.211684 0.250392 0.650383 0.259413
H35   H     H_    0.159160 0.231249 0.798227 0.201790
H36   H     H_    0.114931 0.185947 0.655159 0.259190
O15   O     O_3   0.346930 0.908408 0.488895 -0.618142
C45   C     C_3   0.327298 0.882545 0.364346 0.105312
H37   H     H_    0.296914 0.816085 0.367542 0.172395
H38   H     H_    0.383416 0.875741 0.301759 0.123106
C46   C     C_3   0.264721 0.947206 0.306538 -0.857167
H39   H     H_    0.294552 0.013495 0.295774 0.246145
H40   H     H_    0.244777 0.922802 0.212634 0.217177
H41   H     H_    0.208065 0.953181 0.367154 0.263791
O16   O     O_3   0.652811 0.908687 0.505447 -0.603149
C47   C     C_3   0.682740 0.904852 0.630088 0.079858
H42   H     H_    0.634783 0.874404 0.693418 0.137684
H43   H     H_    0.699428 0.972375 0.665101 0.141772
C48   C     C_3   0.761730 0.847845 0.634410 -0.776003
H44   H     H_    0.811519 0.877033 0.573846 0.257587
H45   H     H_    0.785866 0.844350 0.732123 0.198304
H46   H     H_    0.746829 0.779631 0.601224 0.270012

loop_
_geom_bond_atom_site_label_1
_geom_bond_atom_site_label_2
_ccdc_geom_bond_type
C6    C32   S    
C34   H9    S    
C36   H15   S    
C44   H34   S    
C18   C26   S    
C41   C42   S    
C42   H29   S    
C44   H36   S    
O6    Zn1   S    
C35   C36   S    
C39   H23   S    
C19   C21   A    
C41   H28   S    
N2    Zn1   S    
C47   H42   S    
C35   H13   S    
C23   C26   A    
C9    C13   A    
C43   H32   S    
C11   C15   S    
C41   H27   S    
C1    O3    A    
C48   H44   S    
C2    O4    A    
C37   H17   S    
C23   C24   A    
C39   C40   S    
C48   H46   S    
C13   H5    S    
C30   O11   S    
C33   C34   S    
C4    O14   S    
C20   H2    S    
O8    Zn2   S    
C36   H16   S    
O10   C35   S    
C9    O15   S    
C21   C22   A    
C10   O16   S    
C18   O6    A    
O1    Zn1   S    
C33   H8    S    
O7    Zn2   S    
O11   C37   S    
C39   H22   S    
C46   H40   S    
C19   H1    S    
O14   C43   S    
C38   H20   S    
O2    Zn1   S    
C43   C44   S    
O9    C33   S    
C35   H12   S    
O12   C39   S    
C29   C30   A    
C38   H21   S    
O13   C41   S    
C20   C23   A    
O5    Zn1   S    
O16   C47   S    
C45   H38   S    
C48   H45   S    
C47   C48   S    
C24   C25   A    
C3    C31   A    
C9    C11   A    
C4    C32   A    
C10   C12   A    
C29   O12   S    
C1    O1    A    
C20   C22   A    
C34   H10   S    
C3    O13   S    
C14   C16   S    
C40   H24   S    
C34   H11   S    
C5    C8    T    
C3    C4    A    
C46   H39   S    
C33   H7    S    
C40   H25   S    
C28   O10   S    
O4    Zn2   S    
C1    C7    S    
C2    C8    S    
C17   O7    A    
C17   O5    A    
C18   O8    A    
C40   H26   S    
C44   H35   S    
O3    Zn2   S    
C6    C7    T    
C21   H3    S    
C25   C27   A    
C22   H4    S    
C26   C28   A    
O15   C45   S    
C17   C25   S    
C42   H30   S    
C19   C24   A    
C12   C14   A    
C38   H19   S    
C29   C31   A    
C30   C32   A    
C43   H33   S    
C2    O2    A    
C37   C38   S    
C45   H37   S    
C27   O9    S    
C47   H43   S    
C46   H41   S    
C45   C46   S    
C12   H6    S    
C15   N2    T    
C10   C11   A    
C16   N1    T    
C36   H14   S    
N1    Zn2   S    
C37   H18   S    
C42   H31   S    
C27   C28   A    
C13   C14   A    
C5    C31   S    
