data_mof_unit_20083.cif
_audit_creation_date              2013-03-05T15:50:45-0500
_audit_creation_method            fapswitch 2.2
_symmetry_space_group_name_H-M    P1
_symmetry_Int_Tables_number       1
_space_group_crystal_system       triclinic
_cell_length_a                    22.928694
_cell_length_b                    7.295043
_cell_length_c                    20.718669
_cell_angle_alpha                 89.989322
_cell_angle_beta                  93.302685
_cell_angle_gamma                 90.014872
_cell_volume                      3459.76892903

loop_
_atom_site_label
_atom_site_type_symbol
_atom_site_description
_atom_site_fract_x
_atom_site_fract_y
_atom_site_fract_z
_atom_type_partial_charge
O1    O     O_R   0.438030 0.494310 0.439340 -0.589989
O2    O     O_R   0.561970 0.994310 0.560660 -0.589999
O3    O     O_R   0.556900 0.822900 0.435960 -0.560806
O4    O     O_R   0.443100 0.322900 0.564040 -0.560785
C1    C     C_R   0.575625 0.655927 0.421252 0.940222
C2    C     C_R   0.424376 0.155884 0.578745 0.940209
O5    O     O_R   0.438170 0.823950 0.431660 -0.586012
O6    O     O_R   0.561830 0.323950 0.568340 -0.586046
O7    O     O_R   0.442390 0.995390 0.556340 -0.573072
O8    O     O_R   0.557610 0.495390 0.443660 -0.573062
C3    C     C_R   0.418653 0.655472 0.415778 0.945664
C4    C     C_R   0.581349 0.155483 0.584220 0.945833
O9    O     O_3   0.501520 0.661170 0.540910 -0.278013
O10   O     O_3   0.498480 0.161170 0.459090 -0.278032
V1    V     V_3+5 0.499720 0.935580 0.492410 1.265156
V2    V     V_3+5 0.500280 0.435580 0.507590 1.265114
C5    C     C_R   0.823177 0.940484 0.864652 0.453699
C6    C     C_R   0.176908 0.440885 0.135196 0.453686
C7    C     C_R   0.866330 0.080513 0.869104 -0.279694
C8    C     C_R   0.133649 0.580567 0.130912 -0.279618
C9    C     C_R   0.860428 0.232344 0.827460 -0.173366
C10   C     C_R   0.139429 0.732047 0.172731 -0.173750
C11   C     C_R   0.813738 0.245534 0.780909 0.117853
C12   C     C_R   0.186135 0.745260 0.219267 0.117954
C13   C     C_R   0.771718 0.104832 0.775082 0.023856
C14   C     C_R   0.228257 0.604831 0.224939 0.023676
C15   C     C_R   0.776351 0.951465 0.816934 -0.031689
C16   C     C_R   0.223718 0.451767 0.182937 -0.032030
C17   C     C_R   0.809471 0.396503 0.739160 -0.250868
C18   C     C_R   0.190329 0.895981 0.261144 -0.250495
C19   C     C_R   0.764303 0.409984 0.690688 0.331457
C20   C     C_R   0.235551 0.909530 0.309550 0.330959
C21   C     C_R   0.720448 0.272473 0.685720 0.018611
C22   C     C_R   0.279474 0.772235 0.314401 0.018421
C23   C     C_R   0.724855 0.118143 0.727541 0.032737
C24   C     C_R   0.275128 0.618117 0.272474 0.032971
C25   C     C_R   0.682507 0.976710 0.721787 0.062729
C26   C     C_R   0.317548 0.476882 0.278113 0.062310
C27   C     C_R   0.687565 0.823960 0.763462 0.434119
C28   C     C_R   0.312552 0.324341 0.236327 0.433804
C29   C     C_R   0.733841 0.812508 0.810098 -0.161457
C30   C     C_R   0.266303 0.313011 0.189649 -0.161572
C31   C     C_R   0.671847 0.286354 0.640915 -0.044210
C32   C     C_R   0.328070 0.786113 0.359213 -0.044738
C33   C     C_R   0.630383 0.145023 0.634168 -0.189200
C34   C     C_R   0.369616 0.645002 0.365832 -0.188798
C35   C     C_R   0.636343 0.990738 0.674351 -0.111312
C36   C     C_R   0.363735 0.490932 0.325528 -0.111374
H1    H     H_    0.892981 0.340335 0.830672 0.170293
H2    H     H_    0.106777 0.839744 0.169653 0.169939
H3    H     H_    0.842663 0.502424 0.742972 0.189360
H4    H     H_    0.157053 0.001657 0.257475 0.189237
H5    H     H_    0.665813 0.406361 0.610681 0.171085
H6    H     H_    0.334027 0.905920 0.389570 0.170877
H7    H     H_    0.603942 0.883152 0.668988 0.185357
H8    H     H_    0.396216 0.383561 0.330780 0.185242
H9    H     H_    0.736103 0.692002 0.840522 0.225372
H10   H     H_    0.264124 0.192762 0.159087 0.225617
C37   C     C_3   0.262895 0.202466 0.826710 0.441657
C38   C     C_3   0.737100 0.702420 0.173237 0.441638
C39   C     C_3   0.229015 0.905681 0.770755 0.283024
C40   C     C_3   0.770897 0.405671 0.229241 0.283292
C41   C     C_3   0.279438 0.923881 0.721980 -0.021207
C42   C     C_3   0.720493 0.423957 0.278030 -0.021183
H11   H     H_    0.350488 0.125279 0.794701 0.143316
H12   H     H_    0.649480 0.625384 0.205303 0.143337
H13   H     H_    0.247887 0.833522 0.814222 0.170013
H14   H     H_    0.751980 0.333570 0.185780 0.169651
H15   H     H_    0.319097 0.861720 0.746818 0.161243
H16   H     H_    0.680812 0.361824 0.253215 0.161118
C43   C     C_1   0.378972 0.148906 0.624552 -0.160057
C44   C     C_1   0.621024 0.649035 0.375437 -0.160107
C45   C     C_3   0.208231 0.100455 0.792891 -0.387055
C46   C     C_3   0.791742 0.600402 0.207081 -0.387165
C47   C     C_3   0.313659 0.214298 0.777298 0.026559
C48   C     C_3   0.686341 0.714364 0.222662 0.026690
C49   C     C_3   0.293285 0.130532 0.709271 -0.339253
C50   C     C_3   0.706699 0.630627 0.290703 -0.339414
C51   C     C_3   0.234490 0.215639 0.681255 0.289839
C52   C     C_3   0.765511 0.715723 0.318694 0.290040
C53   C     C_3   0.187163 0.214503 0.731777 0.246925
C54   C     C_3   0.812838 0.714464 0.268173 0.246776
C55   C     C_1   0.340634 0.142701 0.662611 0.318624
C56   C     C_1   0.659357 0.642838 0.337372 0.318547
C57   C     C_1   0.160128 0.087279 0.838535 0.352389
C58   C     C_1   0.839857 0.587158 0.161452 0.352742
C59   C     C_1   0.121314 0.080994 0.875986 -0.148626
C60   C     C_1   0.878680 0.580868 0.124012 -0.148730
H17   H     H_    0.178470 0.357339 0.746417 0.213386
H18   H     H_    0.821575 0.857269 0.253496 0.213370
H19   H     H_    0.218379 0.135842 0.638871 0.203422
H20   H     H_    0.781600 0.635996 0.361108 0.203373
O11   O     O_R   0.942420 0.735670 0.056390 -0.562599
O12   O     O_R   0.057580 0.235670 0.943610 -0.562525
O13   O     O_R   0.061840 0.404850 0.068350 -0.552475
O14   O     O_R   0.938160 0.904850 0.931650 -0.552315
C61   C     C_R   0.082549 0.572787 0.082935 0.993925
C62   C     C_R   0.917443 0.072767 0.917072 0.993919
O15   O     O_R   0.943100 0.406010 0.064050 -0.577539
O16   O     O_R   0.056900 0.906010 0.935950 -0.577527
O17   O     O_R   0.938020 0.234710 0.939330 -0.590244
O18   O     O_R   0.061980 0.734710 0.060670 -0.590278
C63   C     C_R   0.924437 0.574037 0.078642 0.969612
C64   C     C_R   0.075561 0.074080 0.921360 0.969608
O19   O     O_3   0.998500 0.567790 0.959120 -0.280063
O20   O     O_3   0.001500 0.067790 0.040880 -0.280245
V3    V     V_3+5 0.000280 0.293330 0.007580 1.285507
V4    V     V_3+5 0.999720 0.793330 0.992420 1.285513
Cl1   Cl    Cl    0.825112 0.757929 0.921440 -0.579041
Cl2   Cl    Cl    0.175105 0.258963 0.078169 -0.578466
N1    N     N_R   0.282899 0.104528 0.886731 0.254686
O21   O     O_R   0.324449 0.982709 0.887463 -0.342369
O22   O     O_R   0.255368 0.127593 0.939381 -0.260682
N2    N     N_R   0.717085 0.604420 0.113237 0.254751
O23   O     O_R   0.675265 0.483459 0.112424 -0.341842
O24   O     O_R   0.744800 0.626716 0.060676 -0.261397
Cl3   Cl    Cl    0.169637 0.756171 0.745599 -0.417519
Cl4   Cl    Cl    0.830231 0.256080 0.254404 -0.417449
N3    N     N_R   0.269696 0.823198 0.660570 0.314398
O25   O     O_R   0.314952 0.761244 0.632251 -0.304522
O26   O     O_R   0.219737 0.827023 0.627363 -0.220914
N4    N     N_R   0.730226 0.323292 0.339454 0.314434
O27   O     O_R   0.684971 0.261158 0.367756 -0.304576
O28   O     O_R   0.780181 0.327197 0.372671 -0.221025
Cl5   Cl    Cl    0.118130 0.140742 0.695204 -0.417966
Cl6   Cl    Cl    0.881845 0.640622 0.304768 -0.418166
Cl7   Cl    Cl    0.240174 0.431798 0.644305 -0.393916
Cl8   Cl    Cl    0.759876 0.931970 0.355560 -0.393850
Cl9   Cl    Cl    0.241250 0.430351 0.851460 -0.497108
Cl10  Cl    Cl    0.758795 0.930234 0.148414 -0.497182
N5    N     N_R   0.340445 0.397946 0.775715 0.290396
O29   O     O_R   0.346734 0.485309 0.721954 -0.308676
O30   O     O_R   0.368182 0.459481 0.827873 -0.254864
N6    N     N_R   0.659608 0.898049 0.224209 0.290434
O31   O     O_R   0.653299 0.985382 0.277959 -0.308741
O32   O     O_R   0.631899 0.959593 0.172035 -0.254837
N7    N     N_R   0.765415 0.559720 0.645548 0.241746
O33   O     O_R   0.785003 0.719142 0.664803 -0.382210
O34   O     O_R   0.759224 0.527886 0.583739 -0.328704
N8    N     N_R   0.234419 0.059053 0.354775 0.241708
O35   O     O_R   0.214925 0.218683 0.335583 -0.381720
O36   O     O_R   0.240513 0.026806 0.416578 -0.328353
Cl11  Cl    Cl    0.637040 0.641275 0.759233 -0.610605
Cl12  Cl    Cl    0.363140 0.141817 0.240437 -0.609731

loop_
_geom_bond_atom_site_label_1
_geom_bond_atom_site_label_2
_geom_bond_distance
_ccdc_geom_bond_type
O17   V3    1.996899 S    
O15   C63   1.338774 A    
O4    V2    1.984496 S    
C38   N2    1.483740 S    
N1    O21   1.302458 A    
O1    C3    1.339035 A    
O2    C4    1.339057 A    
C30   H10   1.081435 S    
C2    O7    1.333956 A    
C9    H1    1.084516 S    
N2    O23   1.302342 A    
C27   C29   1.395835 A    
N5    O30   1.301765 A    
O5    C3    1.342387 A    
N7    O34   1.301218 A    
C11   C17   1.400238 A    
C23   C25   1.416952 A    
C12   C14   1.408354 A    
C20   N8    1.439317 S    
C1    C44   1.449486 S    
O11   V4    1.964634 S    
C17   H3    1.084103 S    
C58   C60   1.214833 T    
O20   V3    1.783608 S    
C49   C55   1.497325 S    
O16   C64   1.338736 A    
C38   C46   1.585649 S    
C39   C41   1.584297 S    
C15   C29   1.407582 A    
C54   Cl6   1.797389 S    
C40   C42   1.584279 S    
C5    C7    1.421264 A    
C31   H5    1.080655 S    
C8    C61   1.493272 S    
C41   H15   1.115138 S    
C32   C34   1.404044 A    
O14   C62   1.342026 A    
C37   N1    1.483700 S    
C19   C21   1.419718 A    
O18   V4    1.996942 S    
C42   H16   1.115147 S    
C25   C35   1.406034 A    
C37   C45   1.585629 S    
C51   H19   1.099624 S    
C61   O18   1.343712 A    
C10   H2    1.084711 S    
C53   H17   1.106647 S    
C33   C35   1.401855 A    
O14   V4    2.008699 S    
O12   C64   1.339565 A    
O6    V2    2.008628 S    
O11   C63   1.339528 A    
C42   C50   1.565887 S    
C46   C54   1.567842 S    
C45   C53   1.567854 S    
C7    C62   1.493373 S    
C47   N5    1.474792 S    
C43   C55   1.215059 T    
C49   C51   1.565209 S    
C2    C43   1.449434 S    
O19   V4    1.783831 S    
C34   C36   1.402151 A    
O12   V3    1.964884 S    
O16   V4    1.984756 S    
C57   C59   1.214801 T    
C39   Cl3   1.797901 S    
C48   C50   1.581892 S    
C5    C15   1.419268 A    
C6    C16   1.419268 A    
N8    O35   1.301383 A    
C52   C54   1.550512 S    
C38   Cl10  1.817319 S    
C51   C53   1.550531 S    
C48   N6    1.474803 S    
C4    C33   1.485519 S    
N6    O32   1.301759 A    
O5    V1    2.008522 S    
C52   Cl8   1.760865 S    
C39   C45   1.575476 S    
C38   C48   1.596275 S    
C20   C22   1.419963 A    
C52   H20   1.099626 S    
C18   C20   1.403886 A    
C50   C56   1.497379 S    
C41   N3    1.475021 S    
C39   H13   1.109253 S    
O6    C4    1.342417 A    
H12   C48   1.108961 S    
C50   C52   1.565156 S    
C22   C32   1.412306 A    
N1    O22   1.302364 A    
O1    V2    1.996961 S    
C46   C58   1.496786 S    
O2    V1    1.996915 S    
C31   C33   1.403781 A    
C45   C57   1.496708 S    
C44   C56   1.215085 T    
N3    O26   1.302118 A    
O13   V3    2.008592 S    
C13   C23   1.418534 A    
C14   C24   1.418560 A    
C27   Cl11  1.764461 S    
C9    C11   1.402356 A    
C10   C12   1.402413 A    
O9    V2    1.784326 S    
O4    C2    1.332772 A    
C19   N7    1.439048 S    
N4    O28   1.302125 A    
N5    O29   1.298398 A    
C37   C47   1.596106 S    
C60   C63   1.449318 S    
O3    V1    1.984960 S    
C35   H7    1.081883 S    
C41   C49   1.565884 S    
C36   H8    1.082109 S    
C51   Cl7   1.760849 S    
C37   Cl9   1.817424 S    
C53   Cl5   1.797376 S    
C26   C36   1.406119 A    
C6    Cl2   1.775931 S    
C8    C10   1.405868 A    
C28   C30   1.395865 A    
O3    C1    1.332808 A    
C5    Cl1   1.775748 S    
N2    O24   1.302234 A    
N3    O25   1.302202 A    
O13   C61   1.342004 A    
N6    O31   1.298397 A    
N8    O36   1.301458 A    
C13   C15   1.415629 A    
C62   O17   1.343796 A    
O15   V3    1.985222 S    
N7    O33   1.301019 A    
C14   C16   1.415913 A    
C54   H18   1.106656 S    
C40   H14   1.109350 S    
C28   Cl12  1.764949 S    
O7    V1    1.968206 S    
C29   H9    1.081147 S    
C1    O8    1.333920 A    
C17   C19   1.403912 A    
O8    V2    1.967943 S    
C24   C26   1.417263 A    
C26   C28   1.410603 A    
C18   H4    1.084351 S    
C42   N4    1.475020 S    
C16   C30   1.407886 A    
C21   C23   1.420606 A    
C22   C24   1.420874 A    
C6    C8    1.421388 A    
C11   C13   1.408019 A    
C12   C18   1.400594 A    
C40   Cl4   1.797881 S    
C59   C64   1.449270 S    
C32   H6    1.080899 S    
C25   C27   1.410269 A    
C47   C49   1.581900 S    
O10   V1    1.784103 S    
C40   C46   1.575423 S    
C3    C34   1.485514 S    
N4    O27   1.302206 A    
C21   C31   1.412313 A    
H11   C47   1.109017 S    
C7    C9    1.405630 A    
