data_mof_unit_30711.cif
_audit_creation_date              2012-12-10T19:07:06-0500
_audit_creation_method            fapswitch 2.2
_symmetry_space_group_name_H-M    P1
_symmetry_Int_Tables_number       1
_space_group_crystal_system       triclinic
_cell_length_a                    27.762991
_cell_length_b                    10.836057
_cell_length_c                    9.543472
_cell_angle_alpha                 89.927797
_cell_angle_beta                  90.095442
_cell_angle_gamma                 89.972624
_cell_volume                      2871.06443482

loop_
_atom_site_label
_atom_site_type_symbol
_atom_type_description
_atom_site_fract_x
_atom_site_fract_y
_atom_site_fract_z
_atom_type_partial_charge
C1    C     C_R   0.502055 0.262466 0.499540 0.913058
C2    C     C_R   0.276898 0.504589 0.378960 0.352732
C3    C     C_R   0.252898 0.500942 0.508324 0.148306
C4    C     C_R   0.101267 0.503107 0.522299 -0.103294
C5    C     C_R   0.126435 0.390824 0.543202 -0.110485
C6    C     C_R   0.099553 0.281658 0.567234 0.402399
C7    C     C_R   0.126968 0.613587 0.500269 -0.118639
C8    C     C_R   0.354105 0.500096 0.500767 -0.229450
C9    C     C_R   0.645041 0.504740 0.501971 -0.330676
C10   C     C_R   0.973687 0.407972 0.583344 -0.130428
C11   C     C_R   0.974870 0.610450 0.466012 0.031507
C12   C     C_R   0.407342 0.500005 0.499886 0.886828
C13   C     C_R   0.948902 0.510742 0.525852 -0.024544
C14   C     C_R   0.946954 0.319088 0.659367 0.525745
C15   C     C_R   0.896866 0.325065 0.665188 0.634875
C16   C     C_R   0.871741 0.419580 0.595393 -0.257337
C17   C     C_R   0.897893 0.512767 0.525870 -0.129426
C18   C     C_R   0.873054 0.607244 0.454689 -0.063667
C19   C     C_R   0.822507 0.606301 0.452592 0.693939
C20   C     C_R   0.821057 0.424223 0.593405 0.677876
C21   C     C_R   0.722753 0.415997 0.445427 -0.193307
C22   C     C_R   0.672597 0.410414 0.440208 0.348769
C23   C     C_R   0.502355 0.737521 0.499643 0.863685
C24   C     C_R   0.668287 0.603097 0.569921 0.468679
C25   C     C_R   0.718504 0.607363 0.576195 0.664440
C26   C     C_R   0.745940 0.513738 0.513748 0.020440
C27   C     C_R   0.024256 0.399220 0.563491 0.060279
C28   C     C_R   0.050232 0.505685 0.524014 0.011942
C29   C     C_R   0.025410 0.615466 0.487754 -0.062320
C30   C     C_R   0.049503 0.287269 0.577897 -0.114064
C31   C     C_R   0.101901 0.725113 0.486079 -0.147366
C32   C     C_R   0.949280 0.696971 0.382174 0.432503
C33   C     C_R   0.899069 0.696475 0.380555 -0.138788
C34   C     C_R   0.592351 0.500366 0.500286 0.964243
C35   C     C_R   0.051813 0.726701 0.482563 0.679590
C36   C     C_R   0.498749 0.063057 0.620337 0.008845
C37   C     C_R   0.508322 0.129518 0.498444 -0.207176
C38   C     C_R   0.526281 0.064964 0.379994 0.350879
C39   C     C_R   0.527223 0.935141 0.381362 0.335669
C40   C     C_R   0.509149 0.870403 0.499369 -0.196664
C41   C     C_R   0.499443 0.936674 0.621010 0.035200
C42   C     C_3   0.458873 0.927938 0.723172 -0.405726
C43   C     C_3   0.457973 0.068497 0.722764 0.236284
C44   C     C_R   0.533326 0.567574 0.073895 0.065873
C45   C     C_R   0.177366 0.393098 0.537505 0.652183
C46   C     C_R   0.465968 0.437459 0.073930 0.766322
C47   C     C_R   0.465894 0.437972 0.925291 -0.125429
C48   C     C_R   0.532984 0.568733 0.925999 0.066495
C49   C     C_3   0.586277 0.553808 0.917380 -0.452612
C50   C     C_3   0.586657 0.547327 0.075181 1.107853
C51   C     C_R   0.177346 0.610700 0.497463 0.669037
C52   C     C_R   0.279369 0.496325 0.632932 -0.112170
C53   C     C_R   0.329497 0.495799 0.629386 -0.225754
C54   C     C_R   0.327284 0.504541 0.375101 0.592399
Cu1   Cu    Cu3+1 0.500000 0.499980 0.640670 1.011877
Cu2   Cu    Cu3+1 0.500000 0.500020 0.359330 1.160823
H1    H     H_    0.260955 0.493269 0.732821 0.206650
H2    H     H_    0.120951 0.812146 0.479352 0.243452
H3    H     H_    0.880461 0.763915 0.316326 0.229430
H4    H     H_    0.426319 0.883840 0.677175 0.226054
H5    H     H_    0.470741 0.888442 0.825114 0.207941
H6    H     H_    0.468682 0.110145 0.824555 0.159167
H7    H     H_    0.438995 0.385224 0.869252 0.188467
H8    H     H_    0.597458 0.465678 0.867570 0.216526
H9    H     H_    0.604039 0.637792 0.875145 0.256492
H10   H     H_    0.743930 0.343110 0.398255 0.231617
H11   H     H_    0.030631 0.200908 0.590272 0.252482
H12   H     H_    0.348947 0.492076 0.727777 0.219141
N1    N     N_R   0.201271 0.501558 0.514127 -0.453413
N2    N     N_R   0.797631 0.515831 0.521523 -0.438934
N3    N     N_R   0.500300 0.500930 0.147930 -0.259660
N4    N     N_R   0.500310 0.500890 0.852020 -0.212986
O1    O     O_R   0.500000 0.319640 0.618810 -0.589236
O2    O     O_2   0.795219 0.337992 0.662284 -0.400795
O3    O     O_2   0.202380 0.716056 0.477915 -0.463260
O4    O     O_2   0.798384 0.694064 0.380573 -0.443895
O5    O     O_R   0.500010 0.319680 0.381230 -0.503189
O6    O     O_R   0.430260 0.500000 0.618780 -0.604532
O7    O     O_R   0.430270 0.500040 0.381190 -0.485556
O8    O     O_R   0.499990 0.680320 0.618770 -0.571292
O9    O     O_R   0.500000 0.680360 0.381190 -0.554264
O10   O     O_R   0.569730 0.499960 0.618810 -0.589056
O11   O     O_R   0.569740 0.500000 0.381220 -0.504067
O12   O     O_2   0.203178 0.288873 0.554965 -0.410270
F1    F     F_    0.349630 0.509183 0.248748 -0.567192
Cl1   Cl    Cl    0.977079 0.788499 0.252062 -0.432755
F2    F     F_    0.642263 0.695536 0.628864 -0.594986
F3    F     F_    0.740513 0.701615 0.644456 -0.542365
F4    F     F_    0.029556 0.838066 0.489470 -0.576600
Cl2   Cl    Cl    0.546103 0.141843 0.226302 -0.378179
Cl3   Cl    Cl    0.550800 0.857754 0.233398 -0.419288
Cl4   Cl    Cl    0.244160 0.507804 0.220782 -0.436335
Cl5   Cl    Cl    0.403637 0.130125 0.649644 -0.534132
F5    F     F_    0.432715 0.368912 0.142550 -0.577755
F6    F     F_    0.599805 0.431847 0.124074 -0.587190
F7    F     F_    0.612114 0.642422 0.137132 -0.577353
Cl6   Cl    Cl    0.125284 0.133314 0.584803 -0.401388
Cl7   Cl    Cl    0.645757 0.279669 0.364396 -0.389040
F8    F     F_    0.873283 0.237098 0.739821 -0.518912
F9    F     F_    0.968768 0.231506 0.739015 -0.581796

loop_
_geom_bond_atom_site_label_1
_geom_bond_atom_site_label_2
_ccdc_geom_bond_type
C10   C27   A    
C21   C26   A    
C22   Cl7   S    
C21   H10   S    
C1    O5    A    
C41   C42   S    
C23   O8    A    
Cu1   Cu2   S    
Cu2   O9    S    
C28   C29   A    
Cu2   O7    S    
C49   H9    S    
C31   H2    S    
C19   O4    S    
C3    N1    S    
C51   O3    S    
C47   H7    S    
C5    C6    A    
C50   F6    S    
C23   C40   S    
C12   O7    A    
C44   N3    A    
C18   C19   A    
C53   H12   S    
C16   C17   A    
C12   O6    A    
C8    C12   S    
C18   C33   A    
Cu1   N4    S    
C1    C37   S    
C33   H3    S    
C49   H8    S    
C21   C22   A    
C27   C30   A    
C20   N2    A    
C36   C41   A    
C48   N4    A    
C4    C7    A    
C39   Cl3   S    
C4    C28   A    
C7    C31   A    
C45   N1    A    
C6    Cl6   S    
C24   C25   A    
C2    C54   A    
C42   H4    S    
C39   C40   A    
Cu1   O6    S    
C25   C26   A    
C5    C45   A    
C25   F3    S    
Cu2   O5    S    
C37   C38   A    
C46   F5    S    
C16   C20   A    
Cu2   N3    S    
C32   Cl1   S    
C17   C18   A    
C20   O2    S    
Cu1   O10   S    
C2    Cl4   S    
C42   H5    S    
C46   N3    A    
C35   F4    S    
C48   C49   S    
C6    C30   A    
C11   C32   A    
C10   C14   A    
C9    C34   S    
C26   N2    S    
C31   C35   A    
C45   O12   S    
C34   O11   A    
C8    C54   A    
C52   C53   A    
Cu2   O11   S    
C44   C50   S    
C38   Cl2   S    
C46   C47   A    
C40   C41   A    
C23   O9    A    
C30   H11   S    
C15   F8    S    
C4    C5    A    
C36   C43   S    
C10   C13   A    
C8    C53   A    
C54   F1    S    
C3    C52   A    
C9    C24   A    
C14   F9    S    
C51   N1    A    
C29   C35   A    
C13   C17   A    
C1    O1    A    
C32   C33   A    
C2    C3    A    
C7    C51   A    
Cu1   O8    S    
C11   C13   A    
C50   F7    S    
C38   C39   A    
C43   Cl5   S    
C9    C22   A    
C24   F2    S    
C47   N4    A    
C52   H1    S    
Cu1   O1    S    
C44   C48   A    
C11   C29   A    
C36   C37   A    
C49   C50   S    
C42   C43   S    
C27   C28   A    
C14   C15   A    
C19   N2    A    
C34   O10   A    
C15   C16   A    
C43   H6    S    
