data_mof_unit_42695.cif
_audit_creation_date              2013-03-05T16:05:13-0500
_audit_creation_method            fapswitch 2.2
_symmetry_space_group_name_H-M    P1
_symmetry_Int_Tables_number       1
_space_group_crystal_system       triclinic
_cell_length_a                    8.189906
_cell_length_b                    15.13767
_cell_length_c                    15.005113
_cell_angle_alpha                 100.134674
_cell_angle_beta                  96.881788
_cell_angle_gamma                 99.153068
_cell_volume                      1786.89896428

loop_
_atom_site_label
_atom_site_type_symbol
_atom_site_description
_atom_site_fract_x
_atom_site_fract_y
_atom_site_fract_z
_atom_type_partial_charge
P1    P     P_3+3 0.996570 0.418570 0.288410 0.513647
O1    O     O_2   0.826460 0.445380 0.275370 -0.354065
O2    O     O_3   0.098920 0.448470 0.388920 -0.398990
O3    O     O_3   0.628660 0.613390 0.338240 -0.367499
O4    O     O_2   0.723558 0.557600 0.181592 -0.336978
O5    O     O_3   0.951681 0.298641 0.257618 -0.568797
O6    O     O_3   0.663629 0.723838 0.206688 -0.479058
H1    H     H_    0.713913 0.786873 0.343187 0.144358
C1    C     C_3   0.655537 0.880861 0.257453 -0.980550
H2    H     H_    0.787348 0.901253 0.247324 0.287157
H3    H     H_    0.571038 0.881560 0.194003 0.263511
P2    P     P_3+3 0.693070 0.712070 0.580610 0.476572
P3    P     P_3+3 0.107679 0.777503 0.392112 0.451011
O7    O     O_2   0.863170 0.725020 0.553760 -0.373049
O8    O     O_3   0.060910 0.661460 0.386100 -0.354772
O9    O     O_2   0.989952 0.821985 0.451929 -0.399058
O10   O     O_3   0.732217 0.743649 0.700076 -0.552376
O11   O     O_3   0.043763 0.794374 0.281766 -0.492027
C2    C     C_3   0.166874 0.774548 0.227628 0.371506
H4    H     H_    0.208767 0.709815 0.236921 0.057591
H5    H     H_    0.274581 0.832421 0.244665 0.056565
C3    C     C_3   0.096163 0.763253 0.127150 -0.835457
H6    H     H_    0.996876 0.701448 0.106633 0.286883
H7    H     H_    0.043289 0.824053 0.115133 0.266063
C4    C     C_3   0.274461 0.737164 0.664368 0.404602
H8    H     H_    0.379162 0.709898 0.636661 0.095668
H9    H     H_    0.162444 0.720553 0.610854 0.130609
C5    C     C_3   0.322539 0.840556 0.693588 -0.910792
H10   H     H_    0.440746 0.859171 0.742963 0.289842
H11   H     H_    0.340515 0.872156 0.633449 0.212359
H12   H     H_    0.221797 0.868171 0.726490 0.268679
Ba1   Ba    Ba6+2 0.844900 0.542440 0.457470 1.593549
C6    C     C_3   0.966316 0.258341 0.335224 0.472731
H13   H     H_    0.850332 0.255722 0.365277 -0.005460
H14   H     H_    0.067481 0.295689 0.389560 0.162441
C7    C     C_3   0.998527 0.161683 0.307548 -0.975944
H15   H     H_    0.901354 0.121068 0.251492 0.260086
H16   H     H_    0.999655 0.127464 0.367240 0.222198
H17   H     H_    0.120262 0.163488 0.282381 0.291677
C8    C     C_3   0.793123 0.675058 0.737976 0.418136
H18   H     H_    0.886328 0.646865 0.699222 0.095114
H19   H     H_    0.687798 0.619381 0.739202 0.115866
C9    C     C_3   0.877416 0.716901 0.835560 -0.912740
H20   H     H_    0.993660 0.765675 0.834873 0.271385
H21   H     H_    0.909305 0.663109 0.872170 0.226007
H22   H     H_    0.792057 0.754152 0.873143 0.286232
P4    P     P_3+3 0.193140 0.581510 0.711600 0.454408
O12   O     O_2   0.363260 0.554650 0.724690 -0.362816
O13   O     O_3   0.090800 0.551610 0.611090 -0.418256
O14   O     O_3   0.561050 0.386690 0.661770 -0.363359
O15   O     O_3   0.241323 0.700926 0.741101 -0.570942
P5    P     P_3+3 0.086673 0.221214 0.608736 0.455713
O16   O     O_3   0.598950 0.388690 0.448890 -0.342900
O17   O     O_3   0.128800 0.338610 0.613910 -0.395157
O18   O     O_2   0.216380 0.178859 0.556668 -0.380310
O19   O     O_3   0.131372 0.201930 0.719997 -0.508722
Ba2   Ba    Ba6+2 0.344940 0.457640 0.542540 1.578066
P6    P     P_3+3 0.594990 0.612155 0.220767 0.526365
C10   C     C_3   0.628491 0.785835 0.279748 0.561722
H23   H     H_    0.497645 0.767721 0.291538 -0.061050
H24   H     H_    0.628458 0.931171 0.314311 0.220273
O20   O     O_3   0.590770 0.611390 0.551120 -0.394247
C11   C     C_3   0.540406 0.218282 0.240419 0.365520
H25   H     H_    0.493147 0.228936 0.171317 0.130858
H26   H     H_    0.656670 0.268309 0.262865 0.118664
C12   C     C_3   0.561329 0.118905 0.229763 -0.998790
H27   H     H_    0.436800 0.073140 0.213296 0.274150
H28   H     H_    0.632691 0.101834 0.172660 0.262315
H29   H     H_    0.628738 0.106773 0.293667 0.238031
P7    P     P_3+3 0.501162 0.270991 0.413233 0.467000
O21   O     O_2   0.326540 0.275010 0.446300 -0.342226
O22   O     O_3   0.419476 0.235705 0.295926 -0.555880
H30   H     H_    0.196729 0.754899 0.084568 0.205770
C13   C     C_3   0.103897 0.277371 0.781891 0.495422
H31   H     H_    0.202754 0.337509 0.784919 0.158887
H32   H     H_    0.980383 0.295174 0.761603 -0.024602
C14   C     C_3   0.109922 0.255273 0.877093 -0.905315
H33   H     H_    0.237016 0.244621 0.901870 0.307948
H34   H     H_    0.080029 0.312754 0.925408 0.208909
H35   H     H_    0.017596 0.192565 0.875580 0.267597
P8    P     P_3+3 0.596860 0.394252 0.780157 0.478824
C15   C     C_3   0.630939 0.226545 0.765141 0.239913
H36   H     H_    0.749143 0.238137 0.813517 0.056853
O23   O     O_2   0.475930 0.452677 0.821699 -0.375294
O24   O     O_3   0.527231 0.285199 0.800762 -0.485064
H37   H     H_    0.658893 0.237216 0.696621 0.042937
H38   H     H_    0.612891 0.083011 0.709810 0.070297
C16   C     C_3   0.544741 0.127037 0.753465 -0.053665
H39   H     H_    0.414176 0.117081 0.717899 0.171202
C17   C     C_R   0.374379 0.555887 0.166158 0.109214
C18   C     C_R   0.110637 0.476018 0.202647 0.249782
C19   C     C_R   0.915835 0.480267 0.765565 -0.518962
C20   C     C_R   0.815676 0.447904 0.826105 0.237319
C21   C     C_R   0.879479 0.459351 0.919201 -0.279998
C22   C     C_R   0.045176 0.506564 0.954563 0.070657
C23   C     C_R   0.139745 0.545244 0.892106 -0.047919
C24   C     C_R   0.121150 0.515344 0.048749 0.032536
C25   C     C_R   0.295690 0.557638 0.076172 -0.108327
C26   C     C_R   0.381817 0.595800 0.010488 0.218911
C27   C     C_R   0.298277 0.596209 0.924961 -0.167291
C28   C     C_R   0.030946 0.479553 0.115112 -0.268117
C29   C     C_R   0.282956 0.506810 0.220940 -0.122231
C30   C     C_R   0.076248 0.530512 0.796792 0.248152
H40   H     H_    0.900066 0.449823 0.099175 0.176744
H41   H     H_    0.865476 0.469933 0.693733 0.174355
H42   H     H_    0.796898 0.430405 0.961513 0.163253
H43   H     H_    0.366513 0.631735 0.880824 0.201399
C31   C     C_R   0.329341 0.821186 0.441857 0.135655
H44   H     H_    0.366235 0.689126 0.465991 0.179164
H45   H     H_    0.185052 0.951341 0.378576 0.178054
C32   C     C_R   0.583614 0.791255 0.523536 0.311658
C33   C     C_R   0.769578 0.228271 0.520498 -0.483059
C34   C     C_R   0.870198 0.171737 0.554271 0.236132
C35   C     C_R   0.806579 0.079190 0.546973 -0.314210
C36   C     C_R   0.640160 0.041070 0.504881 0.052758
C37   C     C_R   0.542198 0.099376 0.466117 0.013505
C38   C     C_R   0.568878 0.946653 0.497710 0.036707
C39   C     C_R   0.402287 0.913618 0.451329 0.011754
C40   C     C_R   0.311442 0.973138 0.414246 -0.209817
C41   C     C_R   0.380575 0.063240 0.420441 -0.126259
C42   C     C_R   0.655663 0.884056 0.535569 -0.286203
C43   C     C_R   0.422743 0.760289 0.474338 -0.517172
C44   C     C_R   0.608658 0.192797 0.472871 0.193176
H46   H     H_    0.778404 0.905249 0.575621 0.167358
H47   H     H_    0.820441 0.300023 0.527007 0.163397
H48   H     H_    0.890222 0.039080 0.574394 0.165681
H49   H     H_    0.303708 0.104191 0.388996 0.179903
N1    N     N_R   0.544633 0.099653 0.841978 0.269776
O25   O     O_R   0.459520 0.136246 0.901598 -0.357867
O26   O     O_R   0.625168 0.036034 0.860516 -0.383136
I1    I     I_    0.412303 0.430827 0.291933 -0.142489
I2    I     I_    0.642042 0.637269 0.007712 -0.357420

loop_
_geom_bond_atom_site_label_1
_geom_bond_atom_site_label_2
_geom_bond_distance
_ccdc_geom_bond_type
C12   H28   1.110261 S    
H38   C16   1.112245 S    
C11   H26   1.094337 S    
C20   C21   1.401965 A    
C37   C44   1.413465 A    
C32   C42   1.405592 A    
C22   C23   1.429609 A    
N1    O25   1.300375 A    
C35   C36   1.415897 A    
C41   H49   1.076630 S    
O13   Ba2   2.890281 S    
Ba2   O20   2.797960 S    
P4    O13   1.586843 S    
P5    C34   1.840378 S    
C4    C5    1.522475 S    
C13   H32   1.109222 S    
O4    P6    1.546085 D    
C1    H24   1.107915 S    
C5    H10   1.110592 S    
C2    H5    1.110068 S    
O11   C2    1.404765 S    
H1    C10   1.107910 S    
C35   H48   1.076985 S    
H44   C43   1.081818 S    
C12   H29   1.106951 S    
C36   C37   1.433583 A    
C6    C7    1.522542 S    
P2    O20   1.577370 S    
O1    Ba1   2.839962 S    
P1    O1    1.512104 D    
C38   C42   1.425741 A    
C39   C40   1.401949 A    
C17   C29   1.404880 A    
C42   H46   1.076748 S    
C19   C30   1.390394 A    
P7    C44   1.868820 S    
C8    C9    1.521214 S    
C2    H4    1.113980 S    
C36   C38   1.435451 A    
C13   C14   1.520368 S    
P2    O10   1.748327 S    
P7    O21   1.575535 D    
C1    H2    1.110668 S    
O6    P6    1.752325 S    
P5    O18   1.545708 D    
C8    H19   1.110279 S    
C12   H27   1.111636 S    
C11   C12   1.523769 S    
C10   H23   1.106285 S    
P1    C18   1.925751 S    
P2    Ba1   3.383879 S    
C32   C43   1.396138 A    
C21   C22   1.421030 A    
Ba1   Ba2   4.494460 S    
C18   C28   1.408704 A    
P3    C31   1.846540 S    
O16   P7    1.791635 S    
O6    C10   1.401731 S    
C33   C34   1.394707 A    
P5    O17   1.741582 S    
C24   C25   1.448355 A    
C14   H34   1.109484 S    
C11   O22   1.395577 S    
O19   C13   1.405683 S    
C13   H31   1.108347 S    
P1    O5    1.759611 S    
P4    O12   1.512563 D    
C31   C39   1.406622 A    
O12   Ba2   2.840495 S    
C2    C3    1.518635 S    
P4    C30   1.884676 S    
C29   I1    2.031826 S    
C33   C44   1.396451 A    
C31   C43   1.402006 A    
O16   Ba2   2.875232 S    
P4    O15   1.751851 S    
C4    H8    1.102778 S    
C14   H33   1.108798 S    
C7    H17   1.105690 S    
P1    Ba1   3.363971 S    
C37   C41   1.393330 A    
N1    O26   1.300868 A    
C1    C10   1.521807 S    
O10   C8    1.398181 S    
C9    H20   1.110399 S    
C4    O15   1.396449 S    
P4    Ba2   3.364556 S    
P3    O11   1.750541 S    
P8    C20   1.841280 S    
C26   C27   1.381620 A    
C6    H13   1.097363 S    
Ba2   O21   2.856813 S    
C9    H21   1.106242 S    
C33   H47   1.082477 S    
O3    Ba1   2.830674 S    
P6    C17   1.889813 S    
C26   I2    2.131373 S    
C8    H18   1.107091 S    
P2    O7    1.488925 D    
C15   H36   1.107980 S    
C28   H40   1.075134 S    
C1    H3    1.110620 S    
C3    H7    1.110678 S    
P3    O9    1.545925 D    
C18   C29   1.391824 A    
O2    Ba2   2.842152 S    
Ba1   O16   2.798530 S    
P8    O23   1.544101 D    
C34   C35   1.395073 A    
C14   H35   1.110537 S    
C21   H42   1.076590 S    
C27   H43   1.076359 S    
O14   Ba2   2.830021 S    
C5    H12   1.110825 S    
O7    Ba1   2.856575 S    
O8    Ba1   2.764353 S    
H45   C40   1.078542 S    
C40   C41   1.373543 A    
C22   C24   1.448796 A    
C4    H9    1.108446 S    
C15   O24   1.406111 S    
O5    C6    1.407970 S    
P3    O8    1.721183 S    
Ba1   O20   2.876060 S    
C5    H11   1.107302 S    
C16   N1    1.459373 S    
C15   H37   1.112957 S    
C38   C39   1.424371 A    
C15   C16   1.528796 S    
C23   C27   1.384938 A    
C7    H16   1.110612 S    
C19   C20   1.394781 A    
C6    H14   1.094399 S    
O2    Ba1   2.889453 S    
C9    H22   1.110262 S    
C24   C28   1.438655 A    
Ba1   O13   2.841559 S    
C11   H25   1.110611 S    
C19   H41   1.081632 S    
C16   H39   1.111140 S    
C7    H15   1.104891 S    
C25   C26   1.428286 A    
C23   C30   1.427679 A    
O3    P6    1.747506 S    
C3    H6    1.108111 S    
P7    O22   1.761936 S    
C3    H30   1.110592 S    
P1    O2    1.586873 S    
C17   C25   1.431322 A    
P2    C32   1.868958 S    
P8    O24   1.751666 S    
P5    O19   1.750850 S    
O14   P8    1.745750 S    
O17   Ba2   2.765066 S    
