data_mof_unit_6114.cif
_audit_creation_date              2012-10-26T18:25:39-0400
_audit_creation_method            fapswitch 2.2
_symmetry_space_group_name_H-M    P1
_symmetry_Int_Tables_number       1
_space_group_crystal_system       triclinic
_cell_length_a                    7.493084
_cell_length_b                    8.682337
_cell_length_c                    10.982034
_cell_angle_alpha                 89.15273
_cell_angle_beta                  71.588764
_cell_angle_gamma                 102.713102
_cell_volume                      658.525846371

loop_
_atom_site_label
_atom_site_type_symbol
_atom_type_description
_atom_site_fract_x
_atom_site_fract_y
_atom_site_fract_z
_atom_type_partial_charge
C1    C     C_R   0.452219 0.199763 0.503857 0.559240
C2    C     C_2   0.574592 0.968127 0.494237 -0.124276
C3    C     C_2   0.821402 0.644631 0.041675 0.597483
C4    C     C_2   0.178622 0.355312 0.958310 0.597499
C5    C     C_R   0.547781 0.800237 0.496143 0.559237
C6    C     C_R   0.420247 0.487030 0.743347 0.558984
C7    C     C_R   0.579753 0.512968 0.256652 0.558979
C8    C     C_2   0.369616 0.461263 0.882868 0.002770
C9    C     C_2   0.630381 0.538728 0.117130 0.002763
C10   C     C_2   0.505872 0.523879 0.934464 -0.194315
C11   C     C_2   0.494103 0.476140 0.065543 -0.194311
C12   C     C_2   0.425408 0.031873 0.505763 -0.124272
Cu1   Cu    Cu3+1 0.688910 0.517800 0.485820 1.025981
Cu2   Cu    Cu3+1 0.311090 0.482200 0.514180 1.025984
H1    H     H_    0.365922 0.390740 0.125370 0.181922
H2    H     H_    0.634037 0.609302 0.874643 0.181925
H3    H     H_    0.281570 0.960345 0.516664 0.144824
H4    H     H_    0.718430 0.039655 0.483336 0.144822
H5    H     H_    0.915681 0.374156 0.601120 0.244379
H6    H     H_    0.084319 0.625844 0.398880 0.244383
H7    H     H_    0.881692 0.497362 0.901071 0.322516
H8    H     H_    0.118226 0.502572 0.098906 0.322526
N1    N     N_2   0.027170 0.455360 0.535550 -0.250529
N2    N     N_2   0.972830 0.544640 0.464450 -0.250530
O1    O     O_R   0.622710 0.286400 0.490790 -0.505176
O2    O     O_R   0.934944 0.607047 0.923258 -0.655004
O3    O     O_2   0.116726 0.234536 0.914314 -0.436652
O4    O     O_R   0.065021 0.392877 0.076715 -0.655007
O5    O     O_R   0.377290 0.713600 0.509210 -0.505172
O6    O     O_R   0.303660 0.256330 0.514730 -0.490593
O7    O     O_R   0.696340 0.743670 0.485270 -0.490591
O8    O     O_R   0.600900 0.509520 0.671740 -0.518876
O9    O     O_R   0.399100 0.490480 0.328260 -0.518880
O10   O     O_R   0.281840 0.479450 0.695690 -0.462686
O11   O     O_R   0.718160 0.520550 0.304310 -0.462692
O12   O     O_2   0.883378 0.765379 0.085673 -0.436655

loop_
_geom_bond_atom_site_label_1
_geom_bond_atom_site_label_2
_ccdc_geom_bond_type
Cu2   N1    S    
Cu2   O10   S    
C6    O8    A    
N1    N2    D    
C3    C9    S    
C2    H4    S    
C7    O9    A    
Cu1   O8    S    
H5    N1    S    
C4    C8    S    
C2    C12   D    
Cu2   O9    S    
C10   H2    S    
Cu1   Cu2   S    
C12   H3    S    
C1    O1    A    
C9    C11   D    
Cu1   O1    S    
C1    C12   S    
C7    O11   A    
C3    O12   D    
Cu2   O6    S    
C6    C8    S    
C1    O6    A    
C4    O4    S    
H7    O2    S    
Cu1   O11   S    
C5    O5    A    
C2    C5    S    
C10   C11   S    
Cu2   O5    S    
H6    N2    S    
C4    O3    D    
C8    C10   D    
C7    C9    S    
H8    O4    S    
C11   H1    S    
Cu1   O7    S    
C3    O2    S    
C6    O10   A    
Cu1   N2    S    
C5    O7    A    
