data_mof_unit_17814.cif
_audit_creation_date              2012-12-10T16:47:18-0500
_audit_creation_method            fapswitch 2.2
_symmetry_space_group_name_H-M    P1
_symmetry_Int_Tables_number       1
_space_group_crystal_system       triclinic
_cell_length_a                    12.330098
_cell_length_b                    12.225788
_cell_length_c                    7.977196
_cell_angle_alpha                 89.780845
_cell_angle_beta                  95.194239
_cell_angle_gamma                 91.185234
_cell_volume                      1197.32703665

loop_
_atom_site_label
_atom_site_type_symbol
_atom_type_description
_atom_site_fract_x
_atom_site_fract_y
_atom_site_fract_z
_atom_type_partial_charge
C1    C     C_R   0.350336 0.854604 0.453446 0.852302
C2    C     C_2   0.749616 0.794809 0.571593 0.067959
C3    C     C_2   0.692358 0.264138 0.547773 0.112911
C4    C     C_2   0.250460 0.791538 0.417986 0.072876
C5    C     C_2   0.799447 0.754983 0.439677 0.138581
C6    C     C_2   0.249616 0.294809 0.571593 0.067954
C7    C     C_2   0.192358 0.764138 0.547773 0.112915
C8    C     C_2   0.750460 0.291538 0.417986 0.072876
C9    C     C_1   0.636539 0.047067 0.007297 0.694565
C10   C     C_1   0.359366 0.020299 0.001953 0.641060
C11   C     C_1   0.136539 0.547067 0.007297 0.694562
C12   C     C_R   0.637706 0.156967 0.540742 0.826785
C13   C     C_1   0.859366 0.520299 0.001953 0.641062
C14   C     C_R   0.651236 0.858019 0.545492 0.848056
C15   C     C_R   0.362451 0.155782 0.457878 0.918127
C16   C     C_R   0.850336 0.354604 0.453446 0.852304
C17   C     C_R   0.137706 0.656967 0.540742 0.826780
C18   C     C_R   0.151236 0.358019 0.545492 0.848050
C19   C     C_R   0.862451 0.655782 0.457878 0.918128
C20   C     C_2   0.299447 0.254983 0.439677 0.138584
H1    H     H_    0.934556 0.864202 0.101333 0.431530
H2    H     H_    0.347078 0.458386 0.801747 0.345162
H3    H     H_    0.977074 0.955933 0.583544 0.375891
H4    H     H_    0.573053 0.439033 0.290154 0.394320
H5    H     H_    0.434556 0.364202 0.101332 0.431534
H6    H     H_    0.847088 0.958382 0.801768 0.345167
H7    H     H_    0.477078 0.455937 0.583528 0.375891
H8    H     H_    0.073053 0.939034 0.290154 0.394323
N1    N     N_2   0.541470 0.000000 0.055820 -0.180518
N2    N     N_2   0.458530 1.000000 0.944180 -0.203918
N3    N     N_2   0.041470 0.500000 0.055820 -0.180518
N4    N     N_2   0.958530 0.500000 0.944180 -0.203918
N5    N     N_1   0.716136 0.089494 0.972196 -0.107553
N6    N     N_1   0.275872 0.038886 0.048148 0.006700
N7    N     N_1   0.216137 0.589494 0.972196 -0.107551
N8    N     N_1   0.775872 0.538885 0.048149 0.006701
O1    O     O_R   0.375700 0.885870 0.609240 -0.599758
O2    O     O_R   0.597720 0.114130 0.675960 -0.613043
O3    O     O_R   0.597720 0.885870 0.675960 -0.570704
O4    O     O_R   0.402280 0.114130 0.324040 -0.598466
O5    O     O_R   0.902280 0.385870 0.324040 -0.589172
O6    O     O_R   0.097720 0.614130 0.675960 -0.613044
O7    O     O_R   0.097720 0.385870 0.675960 -0.570707
O8    O     O_R   0.902280 0.614130 0.324040 -0.598466
O9    O     O_2   0.696909 0.804207 0.139972 -0.200628
O10   O     O_2   0.810233 0.949460 0.283509 -0.351344
O11   O     O_3   0.904726 0.794107 0.141668 -0.422550
O12   O     O_R   0.624300 0.114130 0.390760 -0.589971
O13   O     O_2   0.227709 0.211068 0.865102 -0.215548
O14   O     O_2   0.418443 0.253058 0.815547 -0.212144
O15   O     O_3   0.296226 0.413024 0.863293 -0.534267
O16   O     O_2   0.121079 0.843252 0.830302 -0.154969
O17   O     O_2   0.184662 0.978914 0.633636 -0.318949
O18   O     O_3   0.999477 0.881117 0.556917 -0.584544
O19   O     O_2   0.767006 0.311117 0.087825 -0.270626
O20   O     O_2   0.594453 0.239294 0.159933 -0.258489
O21   O     O_3   0.632313 0.443485 0.215000 -0.522287
O22   O     O_2   0.196909 0.304208 0.139972 -0.200629
O23   O     O_R   0.624300 0.885870 0.390760 -0.566982
O24   O     O_2   0.310233 0.449460 0.283510 -0.351347
O25   O     O_3   0.404726 0.294106 0.141668 -0.422550
O26   O     O_2   0.727708 0.711066 0.865101 -0.215546
O27   O     O_2   0.918442 0.753058 0.815548 -0.212153
O28   O     O_3   0.796224 0.913023 0.863295 -0.534274
O29   O     O_2   0.621079 0.343253 0.830303 -0.154962
O30   O     O_2   0.684662 0.478914 0.633634 -0.318953
O31   O     O_3   0.499477 0.381116 0.556918 -0.584543
O32   O     O_2   0.267006 0.811117 0.087825 -0.270625
O33   O     O_2   0.094453 0.739294 0.159933 -0.258487
O34   O     O_R   0.375700 0.114130 0.609240 -0.563978
O35   O     O_3   0.132313 0.943485 0.214999 -0.522288
O36   O     O_R   0.875700 0.385870 0.609240 -0.599758
O37   O     O_R   0.124300 0.614130 0.390760 -0.589971
O38   O     O_R   0.124300 0.385870 0.390760 -0.566980
O39   O     O_R   0.875700 0.614130 0.609240 -0.563977
O40   O     O_R   0.402280 0.885870 0.324040 -0.589172
S1    S     S_3+6 0.800875 0.828679 0.247191 0.083538
S2    S     S_3+6 0.302483 0.288028 0.782997 0.089745
S3    S     S_3+6 0.126716 0.870458 0.648423 0.060288
S4    S     S_3+6 0.684488 0.317584 0.214578 0.077099
S5    S     S_3+6 0.300875 0.328679 0.247191 0.083537
S6    S     S_3+6 0.802482 0.788027 0.782998 0.089739
S7    S     S_3+6 0.626716 0.370458 0.648423 0.060290
S8    S     S_3+6 0.184488 0.817584 0.214578 0.077100
Zn1   Zn    Zn3+2 0.482250 0.000000 0.690430 1.093151
Zn2   Zn    Zn3+2 0.517750 0.000000 0.309570 1.099768
Zn3   Zn    Zn3+2 0.982250 0.500000 0.690430 1.093149
Zn4   Zn    Zn3+2 0.017750 0.500000 0.309570 1.099768

loop_
_geom_bond_atom_site_label_1
_geom_bond_atom_site_label_2
_ccdc_geom_bond_type
C17   O37   A    
O31   S7    S    
C13   N4    S    
C16   O36   A    
C12   O12   A    
C14   O23   A    
O1    Zn1   S    
O17   S3    D    
O18   S3    S    
O29   S7    D    
O13   S2    D    
O4    Zn2   S    
O5    Zn4   S    
H6    O28   S    
C17   O6    A    
C3    C12   S    
O30   S7    D    
H4    O21   S    
C7    C17   S    
O16   S3    D    
C9    N1    S    
O26   S6    D    
C11   N3    S    
C18   O38   A    
C20   S5    S    
C9    N5    T    
O21   S4    S    
C4    C7    D    
O14   S2    D    
C15   C20   S    
C6    C18   S    
O27   S6    D    
O32   S8    D    
H7    O31   S    
C13   N8    T    
C3    C8    D    
O22   S5    D    
O2    Zn1   S    
N4    Zn3   S    
O37   Zn4   S    
N1    N2    D    
O24   S5    D    
C10   N2    S    
N3    N4    D    
C4    S8    S    
C10   N6    T    
H5    O25   S    
N2    Zn1   S    
O28   S6    S    
N1    Zn2   S    
O39   Zn3   S    
C3    S7    S    
O12   Zn2   S    
C2    S6    S    
C2    C5    D    
O11   S1    S    
C5    S1    S    
O40   Zn2   S    
O36   Zn3   S    
C19   O8    A    
H3    O18   S    
C7    S3    S    
O35   S8    S    
C15   O34   A    
N3    Zn4   S    
C1    O40   A    
O10   S1    D    
C5    C19   S    
C1    O1    A    
C6    C20   D    
O20   S4    D    
C1    C4    S    
O7    Zn3   S    
C19   O39   A    
O23   Zn2   S    
O33   S8    D    
O25   S5    S    
C18   O7    A    
O19   S4    D    
C11   N7    T    
C12   O2    A    
C2    C14   S    
C15   O4    A    
O15   S2    S    
C6    S2    S    
H8    O35   S    
C8    C16   S    
C8    S4    S    
O3    Zn1   S    
O9    S1    D    
O6    Zn3   S    
O38   Zn4   S    
O8    Zn4   S    
O34   Zn1   S    
C16   O5    A    
C14   O3    A    
H2    O15   S    
H1    O11   S    
