data_mof_unit_9638.cif
_audit_creation_date              2012-12-10T18:54:27-0500
_audit_creation_method            fapswitch 2.2
_symmetry_space_group_name_H-M    P1
_symmetry_Int_Tables_number       1
_space_group_crystal_system       triclinic
_cell_length_a                    10.716989
_cell_length_b                    9.812535
_cell_length_c                    23.423928
_cell_angle_alpha                 89.999657
_cell_angle_beta                  90.127682
_cell_angle_gamma                 89.990001
_cell_volume                      2463.27354832

loop_
_atom_site_label
_atom_site_type_symbol
_atom_type_description
_atom_site_fract_x
_atom_site_fract_y
_atom_site_fract_z
_atom_type_partial_charge
C1    C     C_R   0.259785 0.500010 0.499966 0.875135
C2    C     C_R   0.517365 0.622897 0.702815 -0.324244
C3    C     C_R   0.484680 0.623988 0.237627 0.528664
C4    C     C_R   0.515242 0.624026 0.762370 0.528953
C5    C     C_R   0.500355 0.500772 0.208283 0.235606
C6    C     C_R   0.499623 0.500810 0.791716 0.235876
C7    C     C_R   0.063869 0.378231 0.489468 -0.184423
C8    C     C_R   0.936130 0.621772 0.510538 -0.184716
C9    C     C_R   0.936067 0.378205 0.489526 -0.186666
C10   C     C_R   0.063933 0.621800 0.510478 -0.187076
C11   C     C_R   0.872607 0.499980 0.500047 -0.014260
C12   C     C_R   0.740215 0.499991 0.500035 0.875154
C13   C     C_R   0.127392 0.500023 0.499957 -0.014188
C14   C     C_R   0.576654 0.072030 0.535995 -0.075305
C15   C     C_R   0.423354 0.927964 0.464000 -0.075308
C16   C     C_R   0.423342 0.072066 0.464006 -0.075485
C17   C     C_R   0.576649 0.927929 0.535999 -0.075509
C18   C     C_R   0.499850 0.500023 0.389235 0.906842
C19   C     C_R   0.500153 0.500025 0.610765 0.906850
C20   C     C_R   0.611475 0.499665 0.880591 0.566084
C21   C     C_R   0.388498 0.500007 0.119406 0.566283
C22   C     C_R   0.388178 0.499754 0.880435 0.499515
C23   C     C_R   0.517765 0.378553 0.237772 -0.182097
C24   C     C_R   0.611794 0.499328 0.119561 0.499154
C25   C     C_R   0.385809 0.499849 0.940021 -0.013796
C26   C     C_R   0.614163 0.499430 0.059976 -0.013730
C27   C     C_R   0.499947 0.499788 0.970016 -0.021213
C28   C     C_R   0.500025 0.499776 0.029981 -0.021218
C29   C     C_R   0.614009 0.499657 0.940185 -0.032636
C30   C     C_R   0.385965 0.500029 0.059811 -0.032708
C31   C     C_R   0.272703 0.500131 0.970119 -0.156580
C32   C     C_R   0.727269 0.499334 0.029878 -0.156576
C33   C     C_R   0.272780 0.500250 0.029544 -0.156877
C34   C     C_R   0.482280 0.378579 0.762232 -0.182408
C35   C     C_R   0.727193 0.499475 0.970452 -0.156883
C36   C     C_3   0.568868 0.826811 0.210710 0.078593
C37   C     C_3   0.549139 0.951240 0.173024 -0.779032
C38   C     C_3   0.431132 0.827052 0.789147 0.078577
C39   C     C_3   0.450723 0.951362 0.826915 -0.778731
C40   C     C_R   0.517802 0.378107 0.296980 -0.211744
C41   C     C_R   0.482249 0.378119 0.703024 -0.210096
C42   C     C_R   0.500161 0.500278 0.327003 -0.097860
C43   C     C_R   0.499839 0.500288 0.672997 -0.097829
C44   C     C_R   0.482580 0.622875 0.297180 -0.322486
H1    H     H_    0.183942 0.500272 0.947907 0.193012
H2    H     H_    0.533757 0.717428 0.680156 0.170052
H3    H     H_    0.112520 0.283604 0.480916 0.155228
H4    H     H_    0.887478 0.716398 0.519092 0.155251
H5    H     H_    0.887365 0.283558 0.481023 0.158465
H6    H     H_    0.112635 0.716447 0.518981 0.158411
H7    H     H_    0.637850 0.126829 0.564725 0.132037
H8    H     H_    0.362178 0.873161 0.435261 0.130765
H9    H     H_    0.362135 0.126892 0.435281 0.128901
H10   H     H_    0.637836 0.873097 0.564733 0.127629
H11   H     H_    0.653366 0.771884 0.195219 0.173492
H12   H     H_    0.816030 0.499160 0.052089 0.193008
H13   H     H_    0.585004 0.862626 0.255217 0.138354
H14   H     H_    0.466365 0.009475 0.187763 0.257255
H15   H     H_    0.632445 0.018355 0.175173 0.209335
H16   H     H_    0.534342 0.919044 0.128052 0.262642
H17   H     H_    0.346431 0.772250 0.804477 0.173459
H18   H     H_    0.415398 0.863001 0.744624 0.138074
H19   H     H_    0.533696 0.009479 0.812336 0.257279
H20   H     H_    0.367513 0.018641 0.824652 0.209282
H21   H     H_    0.465124 0.919034 0.871904 0.262588
H22   H     H_    0.184078 0.500475 0.051624 0.192467
H23   H     H_    0.815896 0.499403 0.948373 0.192468
H24   H     H_    0.530875 0.284063 0.214649 0.153830
H25   H     H_    0.469213 0.284089 0.785360 0.153780
H26   H     H_    0.531649 0.282411 0.319157 0.171119
H27   H     H_    0.468451 0.282415 0.680851 0.171407
H28   H     H_    0.466176 0.717418 0.319834 0.170340
N1    N     N_R   0.499788 0.499841 0.852372 -0.342272
N2    N     N_R   0.500186 0.499794 0.147625 -0.342334
N3    N     N_R   0.500000 0.857200 0.500000 -0.080919
N4    N     N_R   0.500000 0.142800 0.500000 -0.081427
O1    O     O_R   0.316770 0.614620 0.500000 -0.627703
O2    O     O_2   0.280682 0.499970 0.149088 -0.535788
O3    O     O_2   0.280260 0.500030 0.850608 -0.566577
O4    O     O_2   0.719713 0.499237 0.149388 -0.566519
O5    O     O_3   0.462148 0.742806 0.207571 -0.598691
O6    O     O_3   0.537731 0.742838 0.792434 -0.598805
O7    O     O_R   0.683230 0.385380 0.500000 -0.627706
O8    O     O_R   0.683230 0.614620 0.500000 -0.626767
O9    O     O_R   0.316770 0.385380 0.500000 -0.626774
O10   O     O_R   0.499970 0.614690 0.416160 -0.621705
O11   O     O_R   0.500030 0.385310 0.583840 -0.622326
O12   O     O_R   0.500030 0.614690 0.583840 -0.623763
O13   O     O_R   0.499970 0.385310 0.416160 -0.624374
O14   O     O_2   0.719290 0.499279 0.850908 -0.535880
Zn1   Zn    Zn3+2 0.500000 0.653120 0.500000 0.950211
Zn2   Zn    Zn3+2 0.500000 0.346880 0.500000 0.950581

loop_
_geom_bond_atom_site_label_1
_geom_bond_atom_site_label_2
_ccdc_geom_bond_type
C25   C31   A    
C15   N3    A    
C26   C32   A    
C27   C29   A    
C1    O1    A    
C2    H2    S    
O7    Zn2   S    
C18   O10   A    
C40   H26   S    
C36   C37   S    
C24   C26   A    
C22   O3    S    
C19   O11   A    
O10   Zn1   S    
C18   C42   S    
C38   C39   S    
C23   C40   A    
C12   O8    A    
C5    N2    S    
C16   H9    S    
C24   O4    S    
C22   C25   A    
C21   O2    S    
C3    O5    S    
C31   C33   A    
O8    Zn1   S    
C36   O5    S    
C37   H14   S    
N3    Zn1   S    
C41   H27   S    
C38   H17   S    
C40   C42   A    
O11   Zn2   S    
C38   O6    S    
C41   C43   A    
C14   C17   A    
C34   C41   A    
C42   C44   A    
O9    Zn2   S    
C19   C43   S    
C33   H22   S    
C20   C29   A    
C1    O9    A    
C3    C44   A    
C32   C35   A    
C9    H5    S    
C4    C6    A    
C36   H13   S    
C20   O14   S    
C21   N2    A    
C6    C34   A    
C12   O7    A    
C14   N4    A    
C23   H24   S    
C2    C4    A    
C8    H4    S    
C39   H20   S    
C14   H7    S    
C5    C23   A    
O12   Zn1   S    
C35   H23   S    
C2    C43   A    
C15   H8    S    
O13   Zn2   S    
C9    C11   A    
C34   H25   S    
C37   H15   S    
N4    Zn2   S    
C39   H21   S    
C19   O12   A    
C1    C13   S    
C10   H6    S    
C6    N1    S    
C7    C9    A    
O1    Zn1   S    
C30   C33   A    
C16   N4    A    
C18   O13   A    
C3    C5    A    
C10   C13   A    
C11   C12   S    
C25   C27   A    
C39   H19   S    
C21   C30   A    
C29   C35   A    
C26   C28   A    
C28   C30   A    
C36   H11   S    
C24   N2    A    
C8    C11   A    
C20   N1    A    
C44   H28   S    
C37   H16   S    
C7    C13   A    
C4    O6    S    
C8    C10   A    
C31   H1    S    
C27   C28   A    
C17   N3    A    
C22   N1    A    
C17   H10   S    
C32   H12   S    
C15   C16   A    
C7    H3    S    
C38   H18   S    
