data_mof_unit_30294.cif
_audit_creation_date              2012-12-11T20:37:32-0500
_audit_creation_method            fapswitch 2.2
_symmetry_space_group_name_H-M    P1
_symmetry_Int_Tables_number       1
_space_group_crystal_system       triclinic
_cell_length_a                    8.72351
_cell_length_b                    18.74756
_cell_length_c                    22.908495
_cell_angle_alpha                 97.485818
_cell_angle_beta                  91.583658
_cell_angle_gamma                 92.381432
_cell_volume                      3709.3533091

loop_
_atom_site_label
_atom_site_type_symbol
_atom_type_description
_atom_site_fract_x
_atom_site_fract_y
_atom_site_fract_z
_atom_type_partial_charge
Ba1   Ba    Ba6+2 0.849480 0.533290 0.473010 1.628767
Ba2   Ba    Ba6+2 0.340340 0.466770 0.527000 1.610124
C1    C     C_3   0.552848 0.788695 0.304694 -0.176244
C2    C     C_R   0.183813 0.517577 0.928991 -0.036910
C3    C     C_R   0.143312 0.508603 0.867560 0.611999
C4    C     C_3   0.110632 0.723600 0.318193 0.469564
C5    C     C_R   0.878659 0.490836 0.889273 0.568419
C6    C     C_R   0.917371 0.491551 0.949628 -0.021473
C7    C     C_R   0.070915 0.504104 0.969354 -0.087267
C8    C     C_R   0.332423 0.542126 0.951550 0.141698
C9    C     C_R   0.374472 0.538399 0.011727 0.126796
C10   C     C_R   0.264710 0.512798 0.049371 -0.046835
C11   C     C_R   0.110774 0.504796 0.029996 -0.084125
C12   C     C_3   0.611932 0.727718 0.337638 0.530911
C13   C     C_R   0.804760 0.481068 0.991005 -0.077030
C14   C     C_R   0.842818 0.487221 0.051269 -0.052839
C15   C     C_R   0.996378 0.499102 0.071511 -0.040579
C16   C     C_3   0.044249 0.758031 0.266557 -0.145096
C17   C     C_R   0.038701 0.507592 0.132314 0.614165
C18   C     C_R   0.302111 0.499782 0.107580 0.598050
C19   C     C_2   0.831726 0.437450 0.763092 -0.085624
C20   C     C_3   0.786987 0.423911 0.699035 -0.062633
C21   C     C_1   0.002681 0.508923 0.681239 0.046329
C22   C     C_2   0.035194 0.522781 0.739299 -0.113979
C23   C     C_3   0.497927 0.328802 0.335745 0.425678
C24   C     C_2   0.948859 0.484704 0.783983 0.193661
C25   C     C_R   0.369477 0.553164 0.237155 -0.032642
C26   C     C_R   0.430854 0.546598 0.294185 -0.019661
C27   C     C_R   0.196728 0.478291 0.313895 -0.010719
C28   C     C_3   0.120532 0.693864 0.604927 0.325278
C29   C     C_R   0.155871 0.469705 0.252768 0.070797
C30   C     C_R   0.238314 0.509292 0.213585 0.260583
C31   C     C_2   0.885549 0.463379 0.659218 -0.175600
C32   C     C_2   0.426964 0.695696 0.464724 -0.259227
C33   C     C_3   0.322797 0.746274 0.437965 -0.071210
C34   C     C_3   0.436044 0.280338 0.278653 0.051916
C35   C     C_2   0.361171 0.826186 0.456808 0.084324
C36   C     C_2   0.491758 0.847598 0.489958 -0.066337
C37   C     C_2   0.588268 0.790645 0.510542 -0.185214
C38   C     C_1   0.541607 0.721521 0.501699 0.111843
C39   C     C_R   0.651220 0.066596 0.515775 0.436860
C40   C     C_3   0.045174 0.765314 0.624574 -0.367447
C41   C     C_R   0.547275 0.925466 0.502155 0.477017
C42   C     C_R   0.611963 0.192132 0.493516 -0.125951
C43   C     C_R   0.661452 0.263944 0.493088 0.074222
C44   C     C_R   0.903031 0.241588 0.541775 0.014824
C45   C     C_3   0.074149 0.272468 0.684326 0.389502
C46   C     C_R   0.853390 0.169028 0.542535 -0.155374
C47   C     C_R   0.706683 0.143502 0.518151 -0.054994
C48   C     C_R   0.808217 0.286430 0.514852 -0.233947
C49   C     C_3   0.975274 0.316422 0.397715 0.315616
C50   C     C_3   0.939356 0.234601 0.378969 -0.077221
C51   C     C_3   0.653273 0.680511 0.673880 0.358205
C52   C     C_3   0.644089 0.741322 0.728794 0.005063
C53   C     C_3   0.904144 0.215859 0.312553 -0.312850
C54   C     C_3   0.063855 0.187093 0.400192 -0.382997
C55   C     C_3   0.804880 0.643993 0.677934 -0.349120
C56   C     C_3   0.011934 0.204544 0.710261 -0.094248
C57   C     C_3   0.529626 0.623395 0.677390 -0.265899
C58   C     C_3   0.758013 0.806145 0.726712 -0.362713
C59   C     C_3   0.483337 0.771405 0.738597 -0.386858
C60   C     C_3   0.324169 0.221613 0.293486 -0.366372
C61   C     C_3   0.669746 0.819882 0.265698 -0.374018
C62   C     C_3   0.127446 0.739050 0.209137 -0.479386
C63   C     C_3   0.156483 0.327638 0.731310 -0.246065
C64   C     C_3   0.705356 0.264608 0.665713 -0.313562
C65   C     C_3   0.438765 0.610402 0.204063 -0.283679
C66   C     C_3   0.834352 0.449354 0.595478 -0.221023
C67   C     C_3   0.534007 0.266497 0.666188 0.484430
C68   C     C_3   0.277533 0.711065 0.584950 -0.329712
C69   C     C_3   0.476851 0.203034 0.698837 -0.078725
C70   C     C_R   0.344656 0.508509 0.332339 -0.126070
H1    H     H_    0.067366 0.805644 0.593975 0.122984
H2    H     H_    0.449995 0.769781 0.277341 0.061302
H3    H     H_    0.395467 0.353640 0.354959 -0.008410
H4    H     H_    0.370968 0.314809 0.251561 0.067238
H5    H     H_    0.978087 0.302459 0.670321 -0.056438
H6    H     H_    0.919627 0.218767 0.741411 0.050390
H7    H     H_    0.963449 0.165066 0.673345 0.098129
H8    H     H_    0.542140 0.204430 0.741392 0.093963
H9    H     H_    0.359270 0.212350 0.710345 0.168875
H10   H     H_    0.752227 0.480942 0.081840 0.169996
H11   H     H_    0.686180 0.468685 0.976829 0.133008
H12   H     H_    0.919439 0.757013 0.624612 0.140583
H13   H     H_    0.114447 0.567652 0.755343 0.115601
H14   H     H_    0.776062 0.402452 0.790954 0.119562
H15   H     H_    0.232890 0.742285 0.325063 -0.048690
H16   H     H_    0.697941 0.806609 0.533091 0.125213
H17   H     H_    0.501297 0.174055 0.473079 0.101007
H18   H     H_    0.928557 0.132987 0.561423 0.094935
H19   H     H_    0.410135 0.638387 0.450725 0.108691
H20   H     H_    0.852884 0.338411 0.507220 0.004120
H21   H     H_    0.923289 0.738295 0.258791 0.156455
H22   H     H_    0.048441 0.817542 0.278118 0.085841
H23   H     H_    0.089881 0.788839 0.669117 0.107336
H24   H     H_    0.055371 0.664420 0.566933 0.136121
H25   H     H_    0.746549 0.720107 0.411066 0.216708
H26   H     H_    0.695298 0.804500 0.405264 0.137870
H27   H     H_    0.008236 0.207877 0.286737 0.118134
H28   H     H_    0.832602 0.164943 0.304136 0.098961
H29   H     H_    0.843143 0.259694 0.295629 0.109749
H30   H     H_    0.033195 0.170070 0.443011 0.132804
H31   H     H_    0.074353 0.137044 0.369024 0.122163
H32   H     H_    0.177624 0.216096 0.406388 0.152687
H33   H     H_    0.899285 0.682599 0.693381 0.127337
H34   H     H_    0.864327 0.343035 0.402860 0.024218
H35   H     H_    0.799726 0.606839 0.711864 0.033019
H36   H     H_    0.828862 0.613416 0.634891 0.083442
H37   H     H_    0.527385 0.606720 0.722182 0.108561
H38   H     H_    0.419441 0.646155 0.668116 0.138157
H39   H     H_    0.550469 0.575935 0.644671 0.132571
H40   H     H_    0.878074 0.791831 0.734066 0.091980
H41   H     H_    0.745577 0.828304 0.684270 0.151699
H42   H     H_    0.737012 0.850017 0.762732 0.112428
H43   H     H_    0.448861 0.801649 0.702291 0.135422
H44   H     H_    0.394963 0.728874 0.744202 0.118606
H45   H     H_    0.040930 0.325162 0.440454 0.047301
H46   H     H_    0.485258 0.809546 0.780057 0.113482
H47   H     H_    0.565876 0.407333 0.285382 0.131826
H48   H     H_    0.711294 0.361497 0.309845 0.184237
H49   H     H_    0.271820 0.190961 0.252513 0.121840
H50   H     H_    0.381875 0.183824 0.319533 0.136492
H51   H     H_    0.234085 0.247945 0.319632 0.126428
H52   H     H_    0.631974 0.285870 0.229651 0.172161
H53   H     H_    0.613486 0.211677 0.265715 0.197778
H54   H     H_    0.619992 0.865657 0.246662 0.110459
H55   H     H_    0.774702 0.840463 0.292003 0.141039
H56   H     H_    0.832326 0.220050 0.400468 0.079845
H57   H     H_    0.697277 0.778628 0.228673 0.137156
H58   H     H_    0.124043 0.679857 0.196000 0.168166
H59   H     H_    0.069439 0.763831 0.173531 0.132463
H60   H     H_    0.248006 0.760289 0.213538 0.122552
H61   H     H_    0.074763 0.346143 0.765697 0.035819
H62   H     H_    0.253001 0.305618 0.754240 0.130696
H63   H     H_    0.198667 0.375109 0.711011 0.149587
H64   H     H_    0.083458 0.118144 0.747614 0.188533
H65   H     H_    0.146198 0.197617 0.783839 0.171378
H66   H     H_    0.748721 0.298375 0.633440 0.052411
H67   H     H_    0.515162 0.833143 0.337329 0.071110
H68   H     H_    0.750253 0.285153 0.710654 0.052921
H69   H     H_    0.743622 0.210085 0.651734 0.063467
H70   H     H_    0.418063 0.209950 0.591305 0.195035
H71   H     H_    0.402610 0.299779 0.599206 0.273165
H72   H     H_    0.567697 0.126924 0.634976 0.179663
H73   H     H_    0.377338 0.116429 0.643548 0.212084
H74   H     H_    0.178104 0.623515 0.329392 0.118684
H75   H     H_    0.989052 0.626279 0.312423 0.246533
H76   H     H_    0.497712 0.612735 0.067781 0.169858
H77   H     H_    0.590803 0.587914 0.006718 0.159079
H78   H     H_    0.674612 0.717272 0.769316 0.078243
H79   H     H_    0.442780 0.661934 0.232799 0.085708
H80   H     H_    0.556428 0.597024 0.190435 0.176864
H81   H     H_    0.367848 0.620545 0.165510 0.079382
H82   H     H_    0.453898 0.630641 0.933208 0.152116
H83   H     H_    0.535663 0.551017 0.912379 0.244056
H84   H     H_    0.935228 0.429535 0.249120 0.234007
H85   H     H_    0.069775 0.366679 0.239900 0.156510
H86   H     H_    0.372375 0.453359 0.403366 0.187036
H87   H     H_    0.521293 0.485296 0.384315 0.219443
H88   H     H_    0.920101 0.439235 0.562662 0.161263
H89   H     H_    0.510925 0.707761 0.359535 -0.107423
H90   H     H_    0.779467 0.395881 0.588130 0.053130
H91   H     H_    0.757048 0.491322 0.584061 0.121507
H92   H     H_    0.160633 0.875017 0.448211 0.213874
H93   H     H_    0.263099 0.863640 0.386315 0.161604
H94   H     H_    0.269918 0.748416 0.551763 0.055627
H95   H     H_    0.350447 0.738606 0.621675 0.115907
H96   H     H_    0.325224 0.659621 0.566550 0.082410
N1    N     N_R   0.991168 0.495652 0.847703 -0.428474
N2    N     N_3   0.128298 0.169194 0.741617 -0.499228
N3    N     N_3   0.476537 0.259155 0.604871 -0.483436
N4    N     N_3   0.482491 0.130353 0.666071 -0.502577
N5    N     N_3   0.098551 0.645395 0.302973 -0.490994
N6    N     N_3   0.519932 0.568140 0.037309 -0.472191
N7    N     N_3   0.432920 0.577076 0.914569 -0.439839
N8    N     N_3   0.038828 0.416879 0.229412 -0.461176
N9    N     N_3   0.409732 0.501007 0.389686 -0.440416
N10   N     N_3   0.271094 0.877858 0.431970 -0.470097
N11   N     N_R   0.191705 0.504445 0.150559 -0.422897
N12   N     N_R   0.500821 0.047788 0.502945 -0.248960
N13   N     N_R   0.450215 0.979126 0.496478 -0.206954
N14   N     N_R   0.697493 0.944293 0.516539 -0.251658
N15   N     N_R   0.748419 0.013303 0.523220 -0.240479
N16   N     N_3   0.730323 0.757086 0.381394 -0.420325
N17   N     N_3   0.607895 0.384451 0.321533 -0.492165
N18   N     N_3   0.555381 0.246866 0.242286 -0.487568
O1    O     O_2   0.898140 0.461210 0.359840 -0.456647
O2    O     O_2   0.209753 0.247504 0.523744 -0.495718
O3    O     O_3   0.168236 0.251979 0.636209 -0.604082
O4    O     O_3   0.138540 0.461940 0.430900 -0.465898
O5    O     O_3   0.557600 0.585010 0.531050 -0.498350
O6    O     O_2   0.379790 0.327560 0.468300 -0.457870
O7    O     O_3   0.567178 0.287655 0.375514 -0.657223
O8    O     O_2   0.479048 0.472592 0.709869 -0.440188
O9    O     O_3   0.486132 0.331803 0.698882 -0.603623
O10   O     O_2   0.244678 0.509614 0.831977 -0.547230
O11   O     O_2   0.743411 0.486559 0.873895 -0.611325
O12   O     O_3   0.634078 0.712249 0.621174 -0.641427
O13   O     O_2   0.939686 0.519216 0.168548 -0.561771
O14   O     O_2   0.432951 0.484725 0.119930 -0.573294
O15   O     O_3   0.654260 0.589640 0.397760 -0.478575
O16   O     O_2   0.748780 0.537899 0.292503 -0.440901
O17   O     O_3   0.061204 0.345800 0.355189 -0.660208
O18   O     O_3   0.672954 0.671910 0.298823 -0.600613
O19   O     O_2   0.809910 0.672460 0.531740 -0.485058
O20   O     O_3   0.065030 0.625960 0.427320 -0.467514
O21   O     O_2   0.019712 0.755601 0.482939 -0.494071
O22   O     O_3   0.026362 0.746056 0.368765 -0.577731
O23   O     O_2   0.291560 0.538810 0.640200 -0.458039
O24   O     O_3   0.051160 0.538120 0.569110 -0.513949
O25   O     O_3   0.535440 0.410410 0.602240 -0.483692
O26   O     O_3   0.133864 0.653926 0.652648 -0.652647
O27   O     O_3   0.632100 0.415050 0.468960 -0.483973
O28   O     O_3   0.124670 0.374100 0.572690 -0.487249
P1    P     P_3+3 0.069200 0.440380 0.368230 0.979215
P2    P     P_3+3 0.634560 0.662100 0.548650 0.944507
P3    P     P_3+3 0.111634 0.718163 0.431700 0.930836
P4    P     P_3+3 0.120500 0.559680 0.631780 0.961951
P5    P     P_3+3 0.096303 0.279314 0.569718 0.904917
P6    P     P_3+3 0.625208 0.586956 0.320832 0.976496
P7    P     P_3+3 0.555910 0.324578 0.450708 0.936803
P8    P     P_3+3 0.572577 0.411546 0.678281 0.977565

loop_
_geom_bond_atom_site_label_1
_geom_bond_atom_site_label_2
_ccdc_geom_bond_type
C42   C47   A    
C55   H33   S    
C19   C24   D    
C45   O3    S    
C39   N12   A    
C58   H42   S    
C24   N1    S    
Ba1   O15   S    
H48   N17   S    
C51   C57   S    
C23   O7    S    
C5    C6    A    
C52   H78   S    
C64   H69   S    
C52   C58   S    
C51   C52   S    
C42   C43   A    
C35   N10   S    
C20   P8    S    
Ba2   O25   S    
H82   N7    S    
O18   P6    S    
C32   C38   D    
C51   O12   S    
C37   H16   S    
O17   P1    S    
C56   N2    S    
H86   N9    S    
Ba2   O6    S    
O6    P7    D    
C32   C33   S    
O28   P5    S    
C68   H94   S    
C28   O26   S    
C36   C37   S    
C27   P1    S    
C64   C67   S    
C13   C14   A    
H74   N5    S    
C67   O9    S    
C57   H38   S    
Ba1   Ba2   S    
C67   N3    S    
O16   P6    D    
C67   C69   S    
C1    H2    S    
C7    C11   A    
C32   H19   S    
C18   O14   D    
C28   H24   S    
C34   H4    S    
C15   C17   A    
N14   N15   A    
O27   P7    S    
C62   H60   S    
O19   P2    D    
C14   C15   A    
C21   C31   D    
C12   O18   S    
C53   H28   S    
C59   H43   S    
C57   H39   S    
C21   C22   D    
C30   N11   S    
O22   P3    S    
Ba1   O19   S    
O4    P1    S    
C4    O22   S    
C63   H62   S    
C50   C53   S    
C66   H91   S    
O8    P8    D    
C27   C70   A    
Ba1   O4    S    
O7    P7    S    
C65   H80   S    
H73   N4    S    
O12   P2    S    
C26   P6    S    
C46   H18   S    
C19   C20   S    
H93   N10   S    
C10   C18   A    
C58   H41   S    
C26   C70   A    
C56   H6    S    
C70   N9    S    
H87   N9    S    
C34   C60   S    
C33   P3    S    
C39   C47   S    
C69   H8    S    
C28   C68   S    
C45   H5    S    
C49   O17   S    
C44   C48   A    
C18   N11   Am   
C44   C46   A    
C29   N8    S    
Ba1   O1    S    
O20   P3    S    
C50   H56   S    
C4    C16   S    
O1    P1    D    
Ba2   O24   S    
O21   P3    D    
C65   H79   S    
C40   H23   S    
C9    N6    S    
C40   H12   S    
Ba2   O5    S    
C54   H32   S    
C37   C38   D    
C51   C55   S    
C6    C7    A    
C13   H11   S    
H85   N8    S    
O25   P8    S    
C41   N13   A    
H76   N6    S    
C4    H15   S    
C49   C50   S    
H53   N18   S    
C23   H3    S    
C5    O11   D    
H47   N17   S    
Ba1   P1    S    
C35   C36   D    
C58   H40   S    
C68   H96   S    
O5    P2    S    
C29   C30   A    
C64   H66   S    
C62   H59   S    
C38   P2    S    
Ba1   P2    S    
C14   H10   S    
Ba1   O24   S    
H77   N6    S    
Ba1   O20   S    
H65   N2    S    
C63   H63   S    
C1    C12   S    
C23   N17   S    
C56   H7    S    
C3    O10   D    
Ba1   O5    S    
C48   H20   S    
C46   C47   A    
C55   H35   S    
H64   N2    S    
Ba2   O28   S    
C6    C13   A    
C66   H90   S    
C5    N1    Am   
Ba1   O27   S    
C16   H22   S    
Ba2   O23   S    
C1    H67   S    
O23   P4    D    
C2    C8    A    
C17   N11   Am   
C60   H50   S    
H92   N10   S    
N12   N13   A    
H25   N16   S    
C22   H13   S    
O2    P5    D    
H83   N7    S    
C8    N7    S    
C16   H21   S    
C20   C31   S    
H72   N4    S    
C19   H14   S    
H84   N8    S    
C40   H1    S    
C44   P5    S    
C33   C35   S    
C59   H46   S    
C59   H44   S    
C39   N15   A    
Ba2   O4    S    
C54   H31   S    
C62   H58   S    
C2    C3    A    
C52   C59   S    
O9    P8    S    
C12   N16   S    
C9    C10   A    
H75   N5    S    
C4    N5    S    
C1    C61   S    
C53   H29   S    
C41   N14   A    
C17   O13   D    
O24   P4    S    
C11   C15   A    
C65   H81   S    
C43   P7    S    
C12   H89   S    
H71   N3    S    
C36   C41   S    
C27   C29   A    
C68   H95   S    
C45   C56   S    
H52   N18   S    
C22   C24   S    
C16   C62   S    
O26   P4    S    
C43   C48   A    
C49   H34   S    
C57   H37   S    
C60   H51   S    
C34   N18   S    
C61   H57   S    
H26   N16   S    
C63   H61   S    
C21   P4    S    
C61   H54   S    
C25   C65   S    
C8    C9    A    
C25   C30   A    
C23   C34   S    
C54   H30   S    
C50   C54   S    
C55   H36   S    
C64   H68   S    
C10   C11   A    
Ba2   O27   S    
C53   H27   S    
C25   C26   A    
Ba2   P4    S    
C49   H45   S    
C3    N1    Am   
C69   N4    S    
C28   C40   S    
C69   H9    S    
C2    C7    A    
C66   H88   S    
C45   C63   S    
C60   H49   S    
C61   H55   S    
C42   H17   S    
O3    P5    S    
C31   C66   S    
H70   N3    S    
O15   P6    S    
