data_mof_unit_24010.cif
_audit_creation_date              2012-12-10T17:03:24-0500
_audit_creation_method            fapswitch 2.2
_symmetry_space_group_name_H-M    P1
_symmetry_Int_Tables_number       1
_space_group_crystal_system       triclinic
_cell_length_a                    15.328633
_cell_length_b                    11.338959
_cell_length_c                    9.035377
_cell_angle_alpha                 106.08074
_cell_angle_beta                  97.489252
_cell_angle_gamma                 93.637823
_cell_volume                      1487.93380865

loop_
_atom_site_label
_atom_site_type_symbol
_atom_type_description
_atom_site_fract_x
_atom_site_fract_y
_atom_site_fract_z
_atom_type_partial_charge
C1    C     C_R   0.488147 0.256207 0.447232 0.873669
C2    C     C_R   0.500765 0.744798 0.553804 0.842934
C3    C     C_R   0.022596 0.271408 0.377811 -0.095813
C4    C     C_R   0.980746 0.716309 0.649135 -0.095505
C5    C     C_2   0.467609 0.127448 0.430683 0.217478
C6    C     C_2   0.497224 0.877069 0.575685 0.165262
C7    C     C_2   0.523358 0.065584 0.501219 -0.032512
C8    C     C_2   0.506573 0.930236 0.462037 -0.058992
C9    C     C_2   0.519721 0.498159 0.084606 0.501193
C10   C     C_2   0.509360 0.472752 0.919318 0.425912
C11   C     C_R   0.327691 0.495133 0.502126 0.928430
C12   C     C_R   0.673037 0.501546 0.496856 0.921670
C13   C     C_R   0.829180 0.604448 0.589479 -0.106296
C14   C     C_R   0.177095 0.380633 0.451686 -0.163098
C15   C     C_R   0.769805 0.505513 0.489463 -0.188168
C16   C     C_R   0.232106 0.492954 0.506995 -0.172864
C17   C     C_R   0.803103 0.407421 0.385960 0.346463
C18   C     C_R   0.196644 0.604030 0.560909 0.341428
C19   C     C_R   0.895627 0.394308 0.405663 -0.049757
C20   C     C_R   0.106193 0.603552 0.576779 -0.024060
C21   C     C_R   0.954866 0.498439 0.496044 -0.051256
C22   C     C_R   0.047917 0.494254 0.503075 -0.041072
C23   C     C_R   0.921127 0.607976 0.576910 -0.008865
C24   C     C_R   0.082953 0.380424 0.442033 -0.006012
C25   C     C_R   0.930908 0.279961 0.347973 0.337895
C26   C     C_R   0.072400 0.709986 0.661448 0.336978
Cu1   Cu    Cu3+1 0.515770 0.521810 0.644910 1.077729
Cu2   Cu    Cu3+1 0.484230 0.478190 0.355090 1.113881
N1    N     N_2   0.460520 0.445420 0.137370 -0.034577
N2    N     N_2   0.539480 0.554580 0.862630 -0.059693
O1    O     O_R   0.508410 0.332340 0.577400 -0.568620
O2    O     O_R   0.491590 0.667660 0.422600 -0.561282
O3    O     O_R   0.481780 0.295500 0.332650 -0.551911
O4    O     O_R   0.518220 0.704500 0.667350 -0.574326
O5    O     O_R   0.383570 0.518390 0.622380 -0.563107
O6    O     O_R   0.616430 0.481610 0.377620 -0.524651
O7    O     O_R   0.356940 0.481550 0.377630 -0.531098
O8    O     O_R   0.643060 0.518450 0.622370 -0.537014
C27   C     C_R   0.796060 0.700915 0.711956 0.158035
C28   C     C_R   0.735807 0.779311 0.670824 -0.107538
C29   C     C_R   0.712410 0.877633 0.785556 -0.116513
C30   C     C_R   0.747564 0.897582 0.942017 -0.030726
C31   C     C_R   0.807231 0.820032 0.984474 -0.046505
C32   C     C_R   0.831040 0.721373 0.870083 -0.089704
H1    H     H_    0.709581 0.766948 0.549663 0.133516
H2    H     H_    0.667879 0.939498 0.753151 0.159020
H3    H     H_    0.728313 0.973100 0.030088 0.193488
H4    H     H_    0.834811 0.835999 0.105739 0.157185
H5    H     H_    0.878034 0.662632 0.904027 0.123620
C33   C     C_R   0.221601 0.265846 0.401804 0.104014
C34   C     C_R   0.227756 0.249106 0.218633 -0.069929
C35   C     C_R   0.249015 0.190333 0.048229 -0.059816
C36   C     C_R   0.231102 0.232858 0.894034 -0.082165
C37   C     C_R   0.251362 0.185311 0.719015 -0.119553
C38   C     C_R   0.236500 0.225527 0.560627 -0.000650
H6    H     H_    0.198668 0.324919 0.186641 0.151832
H7    H     H_    0.281016 0.106516 0.033566 0.240590
H8    H     H_    0.197434 0.315533 0.913292 0.163330
H9    H     H_    0.283966 0.101674 0.701545 0.255467
H10   H     H_    0.213151 0.288662 0.655967 0.144509
Cl1   Cl    Cl    0.726047 0.303658 0.235735 -0.621085
Cl2   Cl    Cl    0.264077 0.741621 0.575363 -0.618403
Cl3   Cl    Cl    0.863281 0.138350 0.259071 -0.716003
Cl4   Cl    Cl    0.143368 0.828507 0.805524 -0.670621
C39   C     C_R   0.050396 0.146435 0.367783 0.176671
C40   C     C_R   0.054638 0.104424 0.500241 -0.154350
C41   C     C_R   0.085212 0.990526 0.497322 -0.102168
C42   C     C_R   0.107854 0.914983 0.360589 -0.069524
C43   C     C_R   0.101354 0.954455 0.226849 -0.119973
C44   C     C_R   0.072086 0.069354 0.229673 -0.100464
H11   H     H_    0.038751 0.162963 0.608009 0.131910
H12   H     H_    0.092475 0.962125 0.602120 0.207638
H13   H     H_    0.131299 0.826643 0.358675 0.178263
H14   H     H_    0.120751 0.896853 0.122206 0.193004
H15   H     H_    0.071143 0.100933 0.127466 0.125714
C45   C     C_R   0.949391 0.840876 0.682431 0.128989
C46   C     C_R   0.963008 0.922156 0.834212 -0.080948
C47   C     C_R   0.936582 0.040569 0.861275 -0.123524
C48   C     C_R   0.896755 0.078728 0.738107 -0.124100
C49   C     C_R   0.878115 0.996744 0.588098 -0.126065
C50   C     C_R   0.905084 0.878367 0.559661 -0.157512
H16   H     H_    0.992292 0.892623 0.931462 0.153365
H17   H     H_    0.946196 0.103541 0.977273 0.176449
H18   H     H_    0.882149 0.172768 0.760887 0.143127
H19   H     H_    0.845129 0.025559 0.493103 0.194211
H20   H     H_    0.892709 0.816659 0.442052 0.149090
C51   C     C_R   0.485009 0.861572 0.293588 0.129093
C52   C     C_R   0.400487 0.796608 0.233744 0.022018
C53   C     C_R   0.371064 0.758435 0.073502 -0.074023
C54   C     C_R   0.427348 0.777441 0.971474 -0.010979
C55   C     C_R   0.512602 0.837351 0.029625 0.005385
C56   C     C_R   0.540408 0.882519 0.189662 -0.092501
H21   H     H_    0.355026 0.784045 0.311653 0.187166
H22   H     H_    0.304516 0.714183 0.028389 0.194788
H23   H     H_    0.404353 0.745794 0.847620 0.219819
H24   H     H_    0.557428 0.850260 0.951481 0.199061
H25   H     H_    0.605306 0.932426 0.232159 0.129020
C57   C     C_R   0.607516 0.130966 0.600143 0.024081
C58   C     C_R   0.607784 0.198203 0.756691 -0.048089
C59   C     C_R   0.677519 0.287413 0.836824 -0.037154
C60   C     C_R   0.748686 0.308779 0.763439 -0.104487
C61   C     C_R   0.750796 0.238927 0.610643 -0.157269
C62   C     C_R   0.680770 0.150723 0.528768 -0.146599
H26   H     H_    0.551321 0.189612 0.813803 0.223806
H27   H     H_    0.674548 0.343609 0.953530 0.197172
H28   H     H_    0.802515 0.378695 0.825031 0.145850
H29   H     H_    0.807624 0.252489 0.556578 0.169819
H30   H     H_    0.682009 0.102973 0.407841 0.179402
Cl5   Cl    Cl    0.472729 0.965369 0.756186 -0.647960
Cl6   Cl    Cl    0.362521 0.063033 0.324831 -0.653187
Cl7   Cl    Cl    0.426759 0.352664 0.810264 -0.605710
Cl8   Cl    Cl    0.592324 0.626453 0.207076 -0.608548
Cl9   Cl    Cl    0.649714 0.614345 0.923282 -0.543470
Cl10  Cl    Cl    0.354326 0.483977 0.085129 -0.562077

loop_
_geom_bond_atom_site_label_1
_geom_bond_atom_site_label_2
_ccdc_geom_bond_type
C32   H5    S    
N1    Cl10  S    
C60   C61   A    
C7    C57   S    
C61   C62   A    
C29   C30   A    
C51   C52   A    
C1    O3    A    
C54   H23   S    
C3    C39   S    
C46   C47   A    
C59   H27   S    
C1    C5    S    
C46   H16   S    
Cu2   N1    S    
C19   C21   A    
C34   H6    S    
C48   H18   S    
C5    Cl6   S    
Cu1   O8    S    
C57   C62   A    
C1    O1    A    
C13   C23   A    
C2    O2    A    
C41   H12   S    
C25   Cl3   S    
C14   C24   A    
C53   H22   S    
C11   O7    A    
C26   Cl4   S    
C17   Cl1   S    
C55   H24   S    
C52   H21   S    
C47   H17   S    
C58   C59   A    
C42   C43   A    
C29   H2    S    
C62   H30   S    
C12   O6    A    
C9    C10   S    
C18   C20   A    
C50   H20   S    
C9    N1    D    
C2    O4    A    
C9    Cl8   S    
C40   C41   A    
C21   C22   A    
Cu1   N2    S    
C3    C24   A    
C2    C6    S    
C56   H25   S    
C37   H9    S    
Cu1   O4    S    
C43   H14   S    
C28   H1    S    
C13   C27   S    
Cu1   O1    S    
C41   C42   A    
Cu2   O2    S    
C45   C46   A    
C55   C56   A    
C5    C7    D    
C4    C23   A    
C47   C48   A    
C18   Cl2   S    
C6    C8    D    
Cu1   O5    S    
C42   H13   S    
C36   C37   A    
C34   C35   A    
C31   C32   A    
C49   H19   S    
C11   C16   S    
C10   N2    D    
C40   H11   S    
C12   C15   S    
C3    C25   A    
C33   C34   A    
C10   Cl7   S    
C28   C29   A    
C20   C22   A    
Cu2   O3    S    
C57   C58   A    
C13   C15   A    
C6    Cl5   S    
C22   C24   A    
C30   C31   A    
C61   H29   S    
C27   C28   A    
C51   C56   A    
C35   C36   A    
C31   H4    S    
C60   H28   S    
C15   C17   A    
C37   C38   A    
C49   C50   A    
C45   C50   A    
C4    C26   A    
C36   H8    S    
C27   C32   A    
C33   C38   A    
C8    C51   S    
C21   C23   A    
C54   C55   A    
C14   C33   S    
C20   C26   A    
Cu2   O7    S    
C11   O5    A    
C59   C60   A    
C17   C19   A    
C58   H26   S    
C14   C16   A    
C30   H3    S    
C12   O8    A    
C43   C44   A    
C19   C25   A    
C4    C45   S    
C7    C8    S    
C35   H7    S    
C48   C49   A    
C52   C53   A    
Cu2   O6    S    
C16   C18   A    
C39   C40   A    
C44   H15   S    
C53   C54   A    
C38   H10   S    
C39   C44   A    
Cu1   Cu2   S    
N2    Cl9   S    
