data_mof_unit_15744.cif
_audit_creation_date              2012-12-11T14:12:24-0500
_audit_creation_method            fapswitch 2.2
_symmetry_space_group_name_H-M    P1
_symmetry_Int_Tables_number       1
_space_group_crystal_system       triclinic
_cell_length_a                    14.692297
_cell_length_b                    16.281983
_cell_length_c                    6.921668
_cell_angle_alpha                 89.792637
_cell_angle_beta                  98.811242
_cell_angle_gamma                 90.021933
_cell_volume                      1636.2476343

loop_
_atom_site_label
_atom_site_type_symbol
_atom_type_description
_atom_site_fract_x
_atom_site_fract_y
_atom_site_fract_z
_atom_type_partial_charge
O1    O     O_R   0.584460 0.414130 0.534110 -0.546748
O2    O     O_R   0.584460 0.585870 0.534110 -0.545731
O3    O     O_R   0.595580 0.585780 0.208030 -0.542332
O4    O     O_R   0.595580 0.414220 0.208030 -0.546947
O5    O     O_R   0.415540 0.585790 0.977250 -0.511996
O6    O     O_R   0.415540 0.414210 0.977250 -0.507773
C1    C     C_R   0.619519 0.611584 0.385657 0.751913
C2    C     C_R   0.616023 0.385553 0.384644 0.740686
O7    O     O_3   0.440930 0.500000 0.319360 -0.353929
V1    V     V_3+5 0.510960 0.500000 0.068030 1.460492
O8    O     O_R   0.404420 0.414140 0.643900 -0.544995
O9    O     O_R   0.404420 0.585860 0.643900 -0.545545
C3    C     C_R   0.380867 0.387189 0.806701 0.782695
C4    C     C_R   0.382969 0.614548 0.806536 0.772785
V2    V     V_3+5 0.489040 0.500000 0.560660 1.438312
O10   O     O_3   0.559070 0.500000 0.859200 -0.388361
H1    H     H_    0.197792 0.814040 0.804937 0.101158
H2    H     H_    0.175226 0.204355 0.803763 0.101555
C5    C     C_2   0.312102 0.680267 0.798320 -0.446062
C6    C     C_2   0.313474 0.318635 0.799877 -0.442841
C7    C     C_2   0.308023 0.732289 0.949716 0.462902
C8    C     C_2   0.265399 0.302488 0.948017 0.461444
C9    C     C_2   0.198841 0.819179 0.111383 -0.010924
C10   C     C_2   0.193685 0.184622 0.110114 -0.004947
C11   C     C_2   0.229813 0.791548 0.947140 -0.230755
C12   C     C_2   0.207597 0.226326 0.945889 -0.263209
H3    H     H_    0.260238 0.684146 0.668942 0.104166
H4    H     H_    0.305925 0.278483 0.674068 0.106837
C13   C     C_2   0.802444 0.776237 0.329463 0.345997
C14   C     C_2   0.781742 0.207599 0.324069 0.331572
C15   C     C_2   0.816364 0.824226 0.493039 0.159065
C16   C     C_2   0.832091 0.187601 0.500279 0.160066
C17   C     C_2   0.721374 0.719650 0.290980 -0.242260
C18   C     C_2   0.729011 0.286371 0.295151 -0.244716
C19   C     C_2   0.695618 0.670339 0.428026 -0.324509
C20   C     C_2   0.675890 0.313358 0.422178 -0.315954
H5    H     H_    0.685665 0.715578 0.141838 0.141262
H6    H     H_    0.728526 0.318765 0.157523 0.145418
H7    H     H_    0.732552 0.670999 0.576266 0.174388
H8    H     H_    0.672157 0.279362 0.555888 0.173889
O11   O     O_R   0.925070 0.912130 0.373190 -0.513847
O12   O     O_R   0.925070 0.087870 0.373190 -0.520860
O13   O     O_R   0.914170 0.083600 0.699490 -0.534921
O14   O     O_R   0.914170 0.916400 0.699490 -0.536234
O15   O     O_R   0.094290 0.084740 0.929940 -0.550372
O16   O     O_R   0.094290 0.915260 0.929940 -0.549621
C21   C     C_R   0.892465 0.113993 0.524574 0.661675
C22   C     C_R   0.891145 0.886808 0.524224 0.666211
O17   O     O_3   0.068710 0.000000 0.587750 -0.386134
V3    V     V_3+5 0.998820 0.000000 0.839270 1.451462
O18   O     O_R   0.105520 0.913050 0.263180 -0.542306
O19   O     O_R   0.105520 0.086950 0.263180 -0.548072
C23   C     C_R   0.127666 0.885629 0.100170 0.726719
C24   C     C_R   0.127405 0.114436 0.099779 0.719753
V4    V     V_3+5 0.020980 0.000000 0.346670 1.466503
O20   O     O_3   0.950820 0.000000 0.048230 -0.341875
O21   O     O_3   0.378909 0.733882 0.106795 -0.537391
C25   C     C_3   0.448817 0.786974 0.060877 0.120803
H9    H     H_    0.421523 0.841074 0.970266 0.099616
H10   H     H_    0.496306 0.752088 0.980949 0.112612
C26   C     C_3   0.503335 0.819971 0.248695 -0.728223
H11   H     H_    0.528605 0.768661 0.348294 0.230936
H12   H     H_    0.562919 0.855840 0.213454 0.172031
H13   H     H_    0.459274 0.860708 0.323482 0.205110
O22   O     O_3   0.270705 0.356672 0.103543 -0.529508
C27   C     C_3   0.187870 0.401948 0.085546 0.100262
H14   H     H_    0.128632 0.361106 0.101278 0.112983
H15   H     H_    0.174234 0.434397 0.941850 0.093750
C28   C     C_3   0.195651 0.466141 0.246393 -0.688259
H16   H     H_    0.251777 0.510086 0.229866 0.235148
H17   H     H_    0.129898 0.500610 0.236891 0.155820
H18   H     H_    0.210589 0.435963 0.392011 0.208949
C29   C     C_3   0.233848 0.781738 0.309585 -0.703527
H19   H     H_    0.303988 0.804785 0.364832 0.233248
H20   H     H_    0.189112 0.797063 0.419648 0.179850
H21   H     H_    0.234726 0.713679 0.299218 0.219951
C30   C     C_3   0.244097 0.208828 0.309020 -0.716159
H22   H     H_    0.212656 0.265119 0.359807 0.220665
H23   H     H_    0.240765 0.160110 0.420210 0.184004
H24   H     H_    0.318268 0.219345 0.302475 0.224188
O23   O     O_3   0.858623 0.787682 0.186102 -0.549087
C31   C     C_3   0.872685 0.713628 0.088530 0.120401
H25   H     H_    0.813537 0.702058 0.971051 0.148863
H26   H     H_    0.882097 0.660116 0.190801 0.097973
C32   C     C_3   0.959433 0.721148 0.994905 -0.691166
H27   H     H_    0.020129 0.729974 0.109851 0.203829
H28   H     H_    0.969459 0.664332 0.912455 0.158181
H29   H     H_    0.953621 0.774154 0.892681 0.236104
O24   O     O_3   0.787307 0.157441 0.163510 -0.548080
C33   C     C_3   0.700544 0.150020 0.044117 0.129452
H30   H     H_    0.687225 0.204515 0.946536 0.141369
H31   H     H_    0.643547 0.142864 0.132522 0.093997
C34   C     C_3   0.700686 0.074259 0.917090 -0.695991
H32   H     H_    0.715074 0.018724 0.010488 0.215294
H33   H     H_    0.632511 0.067294 0.824176 0.150953
H34   H     H_    0.754168 0.080385 0.821147 0.239127
O25   O     O_3   0.762495 0.812890 0.638988 -0.563777
C35   C     C_3   0.702920 0.880606 0.642261 0.128110
H35   H     H_    0.665888 0.895393 0.493663 0.097868
H36   H     H_    0.741965 0.935540 0.702235 0.129227
C36   C     C_3   0.631816 0.860010 0.773234 -0.738781
H37   H     H_    0.666610 0.848576 0.924992 0.227104
H38   H     H_    0.582912 0.911921 0.774096 0.169286
H39   H     H_    0.592688 0.804265 0.718361 0.214044
O26   O     O_3   0.826884 0.235392 0.663720 -0.561235
C37   C     C_3   0.908651 0.281621 0.708512 0.123040
H40   H     H_    0.918941 0.321870 0.583060 0.101632
H41   H     H_    0.969798 0.241048 0.746947 0.104447
C38   C     C_3   0.901285 0.335899 0.883799 -0.716426
H42   H     H_    0.894303 0.297262 0.013298 0.233239
H43   H     H_    0.964092 0.374344 0.917533 0.152832
H44   H     H_    0.840247 0.376715 0.851444 0.217162

loop_
_geom_bond_atom_site_label_1
_geom_bond_atom_site_label_2
_ccdc_geom_bond_type
C27   H15   S    
V4    O20   S    
C34   H32   S    
C28   H18   S    
O1    C2    A    
C29   H19   S    
O2    C1    A    
H2    C12   S    
O4    C2    A    
O25   C35   S    
O21   C25   S    
C32   H27   S    
C7    O21   S    
C36   H37   S    
C5    C7    D    
C10   C12   D    
O3    C1    A    
C38   H43   S    
C32   H29   S    
C27   C28   S    
C37   H40   S    
C25   H10   S    
V2    O10   S    
C13   C17   S    
C26   H12   S    
C2    C20   S    
C28   H17   S    
O11   V4    S    
O8    V2    S    
O1    V2    S    
C5    H3    S    
O7    V1    S    
C18   C20   D    
O19   V4    S    
C30   H22   S    
C25   C26   S    
C32   H28   S    
C27   H14   S    
C34   H33   S    
C29   H20   S    
C26   H11   S    
C9    C29   S    
C14   O24   S    
O19   C24   A    
C9    C23   S    
C30   H23   S    
C14   C18   S    
C20   H8    S    
C38   H44   S    
O23   C31   S    
C25   H9    S    
O17   V4    S    
C31   H25   S    
C17   H5    S    
O18   C23   A    
C26   H13   S    
C19   H7    S    
C8    O22   S    
C13   O23   S    
O12   V4    S    
C33   H31   S    
O9    V2    S    
O2    V2    S    
O5    C4    A    
O9    C4    A    
O15   C24   A    
O17   V3    S    
C34   H34   S    
C35   H36   S    
C16   O26   S    
C16   C21   S    
O22   C27   S    
O4    V1    S    
C31   C32   S    
C33   C34   S    
C30   H24   S    
O14   V3    S    
C7    C11   S    
C3    C6    S    
C18   H6    S    
C1    C19   S    
C4    C5    S    
C6    C8    D    
O13   C21   A    
O6    V1    S    
O13   V3    S    
C15   O25   S    
C36   H39   S    
C35   C36   S    
C6    H4    S    
O26   C37   S    
O16   V3    S    
C31   H26   S    
C15   C22   S    
H1    C11   S    
O7    V2    S    
O5    V1    S    
C13   C15   D    
O3    V1    S    
V1    O10   S    
C38   H42   S    
O6    C3    A    
C14   C16   D    
O8    C3    A    
C33   H30   S    
C37   H41   S    
O15   V3    S    
O16   C23   A    
C17   C19   D    
O11   C22   A    
O18   V4    S    
O12   C21   A    
C9    C11   D    
C28   H16   S    
V3    O20   S    
C10   C30   S    
C29   H21   S    
C36   H38   S    
C35   H35   S    
C8    C12   S    
O24   C33   S    
C10   C24   S    
O14   C22   A    
C37   C38   S    
