data_mof_unit_26510.cif
_audit_creation_date              2012-12-10T20:25:39-0500
_audit_creation_method            fapswitch 2.2
_symmetry_space_group_name_H-M    P1
_symmetry_Int_Tables_number       1
_space_group_crystal_system       triclinic
_cell_length_a                    8.576393
_cell_length_b                    10.697295
_cell_length_c                    9.917975
_cell_angle_alpha                 89.135668
_cell_angle_beta                  98.3624
_cell_angle_gamma                 91.319264
_cell_volume                      899.940501005

loop_
_atom_site_label
_atom_site_type_symbol
_atom_type_description
_atom_site_fract_x
_atom_site_fract_y
_atom_site_fract_z
_atom_type_partial_charge
C1    C     C_R   0.500931 0.260168 0.500877 0.869529
C2    C     C_R   0.590324 0.938588 0.406587 -0.225826
C3    C     C_R   0.515787 0.871248 0.501918 -0.076268
C4    C     C_R   0.456878 0.931876 0.605513 0.092622
C5    C     C_3   0.298168 0.915070 0.648251 -0.472170
C6    C     C_3   0.294180 0.056330 0.651310 -0.130138
C7    C     C_R   0.378823 0.446046 0.057436 0.172253
C8    C     C_R   0.614599 0.561096 0.086469 -0.164164
C9    C     C_R   0.617180 0.561106 0.942175 0.240986
C10   C     C_R   0.374476 0.450251 0.914618 0.152052
C11   C     C_3   0.315226 0.317094 0.906631 -0.016083
C12   C     C_R   0.201454 0.500634 0.464246 0.965149
C13   C     C_3   0.330221 0.312182 0.061320 -0.511652
C14   C     C_R   0.503909 0.739486 0.499612 0.864355
C15   C     C_R   0.798563 0.503231 0.535324 0.954218
C16   C     C_2   0.036195 0.499062 0.444675 -0.397035
C17   C     C_2   0.963664 0.512569 0.552838 -0.379801
C18   C     C_R   0.454696 0.059473 0.607252 0.103143
C19   C     C_R   0.512427 0.128147 0.504140 -0.070575
C20   C     C_R   0.588845 0.068141 0.407860 -0.226132
H1    H     H_    0.974785 0.483403 0.342164 0.176879
H2    H     H_    0.398776 0.255749 0.865015 0.135025
H3    H     H_    0.219882 0.296944 0.105606 0.209749
H4    H     H_    0.428313 0.252378 0.108457 0.189510
H5    H     H_    0.025624 0.531745 0.653853 0.194146
H6    H     H_    0.642062 0.120818 0.331562 0.162024
H7    H     H_    0.644069 0.891626 0.329502 0.160428
H8    H     H_    0.210465 0.871158 0.568113 0.205416
H9    H     H_    0.304832 0.870647 0.750940 0.181658
H10   H     H_    0.293153 0.090969 0.755250 0.139026
H11   H     H_    0.705308 0.608905 0.154865 0.167094
N1    N     N_R   0.498950 0.499140 0.142680 -0.126583
N2    N     N_R   0.498950 0.499180 0.857030 -0.164849
O1    O     O_R   0.500020 0.316790 0.614690 -0.628551
O2    O     O_R   0.500000 0.316760 0.385350 -0.618570
O3    O     O_R   0.271760 0.500010 0.587850 -0.599561
O4    O     O_R   0.271740 0.499970 0.358500 -0.619304
O5    O     O_R   0.500000 0.683240 0.614650 -0.645583
O6    O     O_R   0.499980 0.683210 0.385310 -0.618045
O7    O     O_R   0.728260 0.500030 0.641500 -0.626864
O8    O     O_R   0.728240 0.499990 0.412150 -0.619352
Zn1   Zn    Zn3+2 0.500010 0.500020 0.653130 0.934258
Zn2   Zn    Zn3+2 0.499990 0.499980 0.346870 0.936451
N3    N     N_2   0.741630 0.623697 0.884783 -0.269672
H12   H     H_    0.704459 0.679900 0.802146 0.269392
C21   C     C_3   0.876579 0.675507 0.972688 -0.886945
H13   H     H_    0.966571 0.708791 0.909703 0.245395
H14   H     H_    0.931032 0.602924 0.044728 0.253603
H15   H     H_    0.840914 0.756304 0.029448 0.241400
N4    N     N_2   0.152870 0.302453 0.838397 -0.288261
H16   H     H_    0.116322 0.210317 0.828071 0.218504
C22   C     C_3   0.030194 0.378740 0.879079 -0.728677
H17   H     H_    0.066976 0.478700 0.884776 0.246859
H18   H     H_    0.997937 0.346662 0.978382 0.219341
H19   H     H_    0.922618 0.368691 0.803125 0.254432
N5    N     N_3   0.172307 0.107958 0.548520 -0.434562
H20   H     H_    0.062982 0.084134 0.577692 0.192540
H21   H     H_    0.182447 0.205413 0.553536 0.197787

loop_
_geom_bond_atom_site_label_1
_geom_bond_atom_site_label_2
_ccdc_geom_bond_type
O4    Zn2   S    
C7    C10   A    
N4    C22   S    
C16   H1    S    
C14   O5    A    
C5    H8    S    
C11   C13   S    
C11   H2    S    
O3    Zn1   S    
C19   C20   A    
O1    Zn1   S    
C22   H19   S    
C4    C18   A    
O7    Zn1   S    
C2    C3    A    
C17   H5    S    
C11   N4    S    
N5    H20   S    
C9    N2    A    
O8    Zn2   S    
C21   H15   S    
C15   O8    A    
C2    H7    S    
C3    C14   S    
C20   H6    S    
N2    Zn1   S    
C6    H10   S    
N1    Zn2   S    
C22   H18   S    
C1    O1    A    
O5    Zn1   S    
C10   N2    A    
C5    H9    S    
C5    C6    S    
C6    C18   S    
C21   H14   S    
C15   O7    A    
C1    C19   S    
C12   O3    A    
C10   C11   S    
C2    C20   A    
C3    C4    A    
C8    N1    A    
C16   C17   D    
C7    C13   S    
O2    Zn2   S    
C22   H17   S    
C13   H3    S    
C18   C19   A    
C6    N5    S    
C12   O4    A    
C15   C17   S    
C1    O2    A    
C21   H13   S    
C8    C9    A    
C9    N3    S    
O6    Zn2   S    
C7    N1    A    
N3    C21   S    
N4    H16   S    
C14   O6    A    
C8    H11   S    
N3    H12   S    
C12   C16   S    
C13   H4    S    
N5    H21   S    
C4    C5    S    
