data_mof_unit_49189.cif
_audit_creation_date              2013-03-05T16:15:17-0500
_audit_creation_method            fapswitch 2.2
_symmetry_space_group_name_H-M    P1
_symmetry_Int_Tables_number       1
_space_group_crystal_system       triclinic
_cell_length_a                    27.800606
_cell_length_b                    10.61686
_cell_length_c                    9.493431
_cell_angle_alpha                 90.385542
_cell_angle_beta                  90.912091
_cell_angle_gamma                 90.101893
_cell_volume                      2801.6115328

loop_
_atom_site_label
_atom_site_type_symbol
_atom_site_description
_atom_site_fract_x
_atom_site_fract_y
_atom_site_fract_z
_atom_type_partial_charge
O1    O     O_R   0.500020 0.316850 0.620870 -0.553874
O2    O     O_R   0.499980 0.683150 0.379130 -0.553024
O3    O     O_R   0.500000 0.316860 0.379090 -0.580754
O4    O     O_R   0.500000 0.683140 0.620910 -0.580197
C1    C     C_R   0.500027 0.259942 0.499429 0.936892
C2    C     C_R   0.499982 0.740058 0.500573 0.939934
O5    O     O_R   0.430270 0.500020 0.620880 -0.599113
O6    O     O_R   0.569730 0.499980 0.379120 -0.599776
O7    O     O_R   0.430250 0.500030 0.379090 -0.565284
O8    O     O_R   0.569750 0.499970 0.620910 -0.575627
C3    C     C_R   0.407645 0.500050 0.499270 0.812582
C4    C     C_R   0.592307 0.499030 0.501169 0.813747
Cu1   Cu    Cu3+1 0.500010 0.499990 0.643150 0.989004
Cu2   Cu    Cu3+1 0.499990 0.500010 0.356850 0.992819
C5    C     C_R   0.178568 0.388995 0.520862 0.579465
C6    C     C_R   0.821534 0.602585 0.533575 0.578866
O9    O     O_2   0.204147 0.281840 0.535716 -0.444682
O10   O     O_2   0.796297 0.710223 0.548375 -0.444591
N1    N     N_R   0.202171 0.500303 0.503009 -0.475655
N2    N     N_R   0.797546 0.491272 0.516856 -0.476356
C7    C     C_R   0.178043 0.611588 0.488624 0.536156
C8    C     C_R   0.821255 0.379426 0.502869 0.536138
C9    C     C_R   0.279946 0.553831 0.613831 -0.085773
C10   C     C_R   0.720082 0.448850 0.627876 -0.099460
C11   C     C_R   0.330056 0.553597 0.612936 -0.187935
C12   C     C_R   0.669935 0.451086 0.624256 -0.175929
C13   C     C_R   0.328279 0.447103 0.386450 -0.172600
C14   C     C_R   0.671303 0.538825 0.389058 -0.193150
C15   C     C_R   0.278104 0.447182 0.387349 -0.094873
C16   C     C_R   0.721446 0.537018 0.392979 -0.093026
C17   C     C_R   0.253782 0.500690 0.501062 0.339097
C18   C     C_R   0.745962 0.492105 0.512418 0.345292
C19   C     C_R   0.102074 0.499800 0.512201 -0.157134
C20   C     C_R   0.897715 0.491045 0.521331 -0.157053
C21   C     C_R   0.128101 0.385893 0.524092 -0.140106
C22   C     C_R   0.872021 0.605286 0.534772 -0.140380
C23   C     C_R   0.103169 0.272056 0.540775 0.650190
C24   C     C_R   0.897327 0.719149 0.550059 0.649810
C25   C     C_R   0.127222 0.615348 0.497163 -0.058134
C26   C     C_R   0.872210 0.375411 0.508640 -0.058450
C27   C     C_R   0.354705 0.500771 0.498875 -0.009151
C28   C     C_R   0.645153 0.496239 0.504711 -0.026714
H1    H     H_    0.346277 0.402430 0.299806 0.162426
H2    H     H_    0.652995 0.575338 0.296864 0.161901
H3    H     H_    0.258100 0.405204 0.300145 0.144424
H4    H     H_    0.741308 0.570746 0.303494 0.142573
C29   C     C_R   0.974893 0.378681 0.514495 0.042312
C30   C     C_R   0.024795 0.611864 0.511736 0.042321
C31   C     C_R   0.973915 0.609825 0.525001 -0.023149
C32   C     C_R   0.026041 0.380872 0.522653 -0.023084
C33   C     C_R   0.948953 0.493076 0.520307 0.072063
C34   C     C_R   0.050858 0.497593 0.515472 0.072025
C35   C     C_R   0.948850 0.265241 0.499791 -0.209981
C36   C     C_R   0.050410 0.725086 0.493757 -0.210325
C37   C     C_R   0.898760 0.261678 0.498161 0.242708
C38   C     C_R   0.100406 0.728794 0.487890 0.243058
O11   O     O_2   0.795167 0.273924 0.480427 -0.530464
O12   O     O_2   0.203563 0.716843 0.463520 -0.529983
C39   C     C_R   0.053313 0.269868 0.539772 -0.294451
C40   C     C_R   0.947112 0.721096 0.545017 -0.294626
H5    H     H_    0.650594 0.416300 0.714197 0.188731
H6    H     H_    0.349388 0.595762 0.700840 0.138050
H7    H     H_    0.738883 0.413950 0.720435 0.143058
H8    H     H_    0.261377 0.594936 0.702355 0.143157
H9    H     H_    0.966507 0.175764 0.486556 0.157285
H10   H     H_    0.032401 0.814221 0.481254 0.157375
H11   H     H_    0.037140 0.179132 0.557205 0.170766
H12   H     H_    0.963723 0.811877 0.561552 0.170844
C41   C     C_3   0.538821 0.042507 0.568977 0.570838
C42   C     C_3   0.461206 0.957499 0.431029 0.569318
C43   C     C_3   0.539362 0.957852 0.437485 0.572551
C44   C     C_3   0.460665 0.042146 0.562520 0.570252
C45   C     C_3   0.499988 0.876584 0.502096 -0.349472
C46   C     C_3   0.500036 0.123416 0.497909 -0.349150
C47   C     C_3   0.499438 0.960367 0.635841 -0.426747
C48   C     C_3   0.500588 0.039634 0.364166 -0.428023
H13   H     H_    0.498933 0.926953 0.746399 0.218064
H14   H     H_    0.501094 0.073050 0.253607 0.217627
C49   C     C_3   0.515268 0.608167 0.052921 -0.178185
C50   C     C_3   0.484950 0.391949 0.947077 -0.186132
C51   C     C_3   0.472729 0.586777 0.950144 0.314862
C52   C     C_3   0.527522 0.413611 0.049766 0.311928
H15   H     H_    0.528502 0.697476 0.101239 0.170390
H16   H     H_    0.471710 0.302571 0.898923 0.172507
N3    N     N_3   0.500040 0.499970 0.858290 -0.230084
N4    N     N_3   0.499960 0.500030 0.141710 -0.228828
C53   C     C_3   0.542438 0.519753 0.953614 0.298613
C54   C     C_3   0.457697 0.480664 0.045883 0.299987
F1    F     F_    0.579216 0.089379 0.638300 -0.628864
F2    F     F_    0.420809 0.910660 0.361695 -0.624902
N5    N     N_2   0.443809 0.686822 0.890396 -0.426280
H17   H     H_    0.418193 0.656171 0.818986 0.265237
C55   C     C_3   0.426154 0.778484 0.990219 -0.603103
H18   H     H_    0.404627 0.850738 0.933554 0.246264
H19   H     H_    0.456675 0.826832 0.044809 0.243194
H20   H     H_    0.403086 0.732279 0.069243 0.257997
N6    N     N_2   0.557061 0.314640 0.109466 -0.424635
H21   H     H_    0.582307 0.346033 0.181950 0.274589
C56   C     C_3   0.575997 0.225573 0.008823 -0.599893
H22   H     H_    0.597016 0.152269 0.065390 0.247792
H23   H     H_    0.599919 0.274024 0.933697 0.247495
H24   H     H_    0.546201 0.178167 0.949805 0.245286
N7    N     N_2   0.589171 0.549311 0.897352 -0.405835
H25   H     H_    0.587553 0.626718 0.832476 0.286128
C57   C     C_3   0.627887 0.561573 0.999735 -0.730904
H26   H     H_    0.661703 0.585261 0.945029 0.245062
H27   H     H_    0.633744 0.471709 0.055863 0.235062
H28   H     H_    0.619881 0.638265 0.075934 0.240650
N8    N     N_2   0.410752 0.450430 0.099485 -0.401936
H29   H     H_    0.411949 0.368457 0.157003 0.266376
C58   C     C_3   0.372090 0.448597 0.995633 -0.695671
H30   H     H_    0.338882 0.410882 0.043371 0.231558
H31   H     H_    0.381450 0.387818 0.904329 0.246435
H32   H     H_    0.364138 0.545355 0.959444 0.233027
F3    F     F_    0.126651 0.161096 0.558632 -0.630702
F4    F     F_    0.874290 0.830354 0.570285 -0.631266
N9    N     N_2   0.876852 0.140444 0.491092 -0.390499
H33   H     H_    0.849647 0.122974 0.560738 0.322827
C59   C     C_3   0.869895 0.089642 0.350469 -0.504073
H34   H     H_    0.854263 0.993577 0.356424 0.267630
H35   H     H_    0.904914 0.083134 0.296107 0.197398
H36   H     H_    0.845036 0.150233 0.288268 0.234036
N10   N     N_2   0.122044 0.850009 0.478349 -0.390649
H37   H     H_    0.150481 0.869032 0.546063 0.323136
C60   C     C_3   0.126326 0.898230 0.336965 -0.505949
H38   H     H_    0.141724 0.994746 0.341167 0.266357
H39   H     H_    0.090343 0.902902 0.284656 0.197356
H40   H     H_    0.150271 0.837003 0.273865 0.235285
F5    F     F_    0.580306 0.911394 0.374881 -0.627149
F6    F     F_    0.419717 0.088579 0.625119 -0.624387

loop_
_geom_bond_atom_site_label_1
_geom_bond_atom_site_label_2
_geom_bond_distance
_ccdc_geom_bond_type
C16   C18   1.400498 A    
C55   H18   1.110378 S    
C13   C15   1.395062 A    
C58   H30   1.110149 S    
C50   H16   1.110167 S    
N1    C17   1.435215 S    
C8    O11   1.347230 S    
C49   C53   1.534195 S    
N6    H21   1.028545 S    
N10   H37   1.029831 S    
C42   F2    1.382698 S    
C19   C34   1.424842 A    
C30   C36   1.408832 A    
C57   H27   1.106942 S    
C20   C33   1.424772 A    
C19   C25   1.420057 A    
C31   C40   1.411228 A    
C46   C48   1.545647 S    
O1    C1    1.298013 A    
C32   C39   1.411375 A    
C21   C23   1.403312 A    
C12   H5    1.082923 S    
C10   C12   1.394250 A    
N9    C59   1.446456 S    
N2    C18   1.434057 S    
C43   C48   1.545278 S    
N4    C54   1.487592 S    
N10   C60   1.446354 S    
N5    C55   1.445723 S    
C52   C53   1.516350 S    
C1    C46   1.449443 S    
C14   C28   1.403328 A    
O4    Cu1   1.957319 S    
C41   C43   1.533569 S    
C4    C28   1.469345 S    
C39   H11   1.077270 S    
C5    N1    1.363548 A    
N7    C57   1.443841 S    
C25   C38   1.420121 A    
C31   C33   1.419563 A    
C60   H40   1.110650 S    
C32   C34   1.419815 A    
C41   C47   1.545430 S    
C35   H9    1.077589 S    
C6    N2    1.363031 A    
C29   C35   1.409117 A    
C35   C37   1.392819 A    
C55   H19   1.110357 S    
Cu1   Cu2   2.717961 S    
C45   C47   1.545656 S    
C7    O12   1.347237 S    
O2    C2    1.298022 A    
C44   C47   1.545262 S    
C41   F1    1.382739 S    
C5    C21   1.404169 A    
N6    C56   1.445615 S    
C29   C32   1.422951 A    
C59   H35   1.111139 S    
C57   H28   1.110694 S    
C36   C38   1.392393 A    
N3    C53   1.488285 S    
C38   N10   1.423650 S    
Cu2   N4    2.042406 S    
C44   C46   1.530978 S    
N8    H29   1.030825 S    
C11   C27   1.404803 A    
N5    H17   1.026394 S    
C49   C51   1.536706 S    
C29   C33   1.414792 A    
C52   N4    1.484533 S    
C14   H2    1.080030 S    
C15   H3    1.082934 S    
C9    C17   1.399685 A    
O5    C3    1.305895 A    
O7    Cu2   1.953615 S    
C10   C18   1.400231 A    
C50   N3    1.491396 S    
C43   F5    1.382672 S    
C24   F4    1.358124 S    
C13   C27   1.403162 A    
C56   H22   1.110322 S    
C7    C25   1.417084 A    
C30   C34   1.414567 A    
O6    C4    1.309042 A    
C26   C37   1.420078 A    
C8    C26   1.417492 A    
C42   C45   1.530872 S    
C41   C46   1.530894 S    
C58   H31   1.111611 S    
C6    O10   1.349721 S    
C47   H13   1.110459 S    
C23   C39   1.386074 A    
O3    Cu2   1.957318 S    
O8    C4    1.306951 A    
C53   N7    1.447257 S    
C54   N8    1.444696 S    
C50   C52   1.537301 S    
C9    H8    1.083000 S    
C56   H23   1.111031 S    
N2    C8    1.365868 A    
C10   H7    1.083074 S    
O7    C3    1.311276 A    
C42   C48   1.545394 S    
C60   H38   1.110037 S    
C52   N6    1.447733 S    
C24   C40   1.385753 A    
O4    C2    1.295973 A    
O1    Cu1   1.954429 S    
C12   C28   1.405729 A    
C2    C45   1.449453 S    
C43   C45   1.531002 S    
C37   N9    1.423680 S    
C59   H36   1.110782 S    
C5    O9    1.349681 S    
C30   C31   1.422216 A    
O6    Cu2   1.946960 S    
N1    C7    1.366248 A    
C16   H4    1.083111 S    
C48   H14   1.110469 S    
O3    C1    1.295986 A    
O8    Cu1   1.953615 S    
C59   H34   1.110071 S    
C44   F6    1.382644 S    
C23   F3    1.358162 S    
C55   H20   1.110801 S    
C57   H26   1.110507 S    
N8    C58   1.446927 S    
C14   C16   1.394074 A    
C15   C17   1.400598 A    
N9    H33   1.029868 S    
C6    C22   1.403683 A    
C49   H15   1.110116 S    
C22   C24   1.403122 A    
C19   C21   1.414615 A    
C3    C27   1.471757 S    
C58   H32   1.106940 S    
C20   C22   1.414738 A    
C11   H6    1.079583 S    
C9    C11   1.393253 A    
O2    Cu2   1.954428 S    
C51   C54   1.514633 S    
C51   N5    1.446704 S    
C13   H1    1.077291 S    
O5    Cu1   1.946960 S    
C56   H24   1.110535 S    
C40   H12   1.077455 S    
C50   C54   1.534376 S    
Cu1   N3    2.042406 S    
N7    H25   1.030924 S    
C60   H39   1.111053 S    
C20   C26   1.420076 A    
C42   C44   1.533518 S    
C36   H10   1.077778 S    
C49   N4    1.494124 S    
C51   N3    1.482903 S    
