data_mof_unit_20259.cif
_audit_creation_date              2012-12-11T15:24:31-0500
_audit_creation_method            fapswitch 2.2
_symmetry_space_group_name_H-M    P1
_symmetry_Int_Tables_number       1
_space_group_crystal_system       triclinic
_cell_length_a                    23.032894
_cell_length_b                    6.942346
_cell_length_c                    20.706261
_cell_angle_alpha                 89.856083
_cell_angle_beta                  93.03563
_cell_angle_gamma                 89.736128
_cell_volume                      3306.28553025

loop_
_atom_site_label
_atom_site_type_symbol
_atom_type_description
_atom_site_fract_x
_atom_site_fract_y
_atom_site_fract_z
_atom_type_partial_charge
O1    O     O_R   0.188030 0.379840 0.189340 -0.541233
O2    O     O_R   0.811970 0.620160 0.810660 -0.541239
O3    O     O_R   0.311970 0.879840 0.310660 -0.533571
O4    O     O_R   0.688030 0.120160 0.689340 -0.533572
O5    O     O_R   0.307090 0.708420 0.185790 -0.539919
O6    O     O_R   0.692910 0.291580 0.814210 -0.539928
O7    O     O_R   0.192910 0.208420 0.314210 -0.537038
O8    O     O_R   0.807090 0.791580 0.685790 -0.537041
C1    C     C_R   0.326819 0.540625 0.170714 0.733426
C2    C     C_R   0.673180 0.459374 0.829286 0.733414
C3    C     C_R   0.173180 0.040890 0.329289 0.734571
C4    C     C_R   0.826820 0.959110 0.670711 0.734580
O9    O     O_R   0.188180 0.709480 0.181650 -0.537621
O10   O     O_R   0.811820 0.290520 0.818350 -0.537619
O11   O     O_R   0.311820 0.209480 0.318350 -0.545470
O12   O     O_R   0.688180 0.790520 0.681650 -0.545459
O13   O     O_R   0.192210 0.880960 0.306500 -0.536877
O14   O     O_R   0.807790 0.119040 0.693500 -0.536872
O15   O     O_R   0.307790 0.380960 0.193500 -0.534708
O16   O     O_R   0.692210 0.619040 0.806500 -0.534709
C5    C     C_R   0.166080 0.541757 0.167565 0.716952
C6    C     C_R   0.833916 0.458245 0.832438 0.716948
C7    C     C_R   0.334193 0.040346 0.332001 0.717520
C8    C     C_R   0.665806 0.959653 0.668001 0.717509
O17   O     O_3   0.251460 0.546730 0.290970 -0.367671
O18   O     O_3   0.748540 0.453270 0.709030 -0.367659
O19   O     O_3   0.248540 0.046730 0.209030 -0.368900
O20   O     O_3   0.751460 0.953270 0.790970 -0.368909
V1    V     V_3+5 0.249730 0.821120 0.242400 1.407873
V2    V     V_3+5 0.750270 0.178880 0.757600 1.407890
V3    V     V_3+5 0.250270 0.321120 0.257600 1.408400
V4    V     V_3+5 0.749730 0.678880 0.742400 1.408428
C9    C     C_R   0.572665 0.125103 0.622795 0.112814
C10   C     C_R   0.427323 0.874854 0.377218 0.112747
C11   C     C_R   0.929297 0.321771 0.883503 0.109573
C12   C     C_R   0.070699 0.678242 0.116499 0.109576
C13   C     C_R   0.614098 0.971705 0.621506 -0.094054
C14   C     C_R   0.385900 0.028287 0.378497 -0.094085
C15   C     C_R   0.885068 0.466602 0.879680 -0.090081
C16   C     C_R   0.114927 0.533399 0.120328 -0.090082
C17   C     C_R   0.606538 0.827149 0.574517 -0.271174
C18   C     C_R   0.393470 0.172867 0.425477 -0.271157
C19   C     C_R   0.889536 0.625179 0.921623 -0.271292
C20   C     C_R   0.110450 0.374802 0.078390 -0.271291
C21   C     C_R   0.560893 0.835889 0.527219 0.093463
C22   C     C_R   0.439114 0.164124 0.472776 0.093463
C23   C     C_R   0.935277 0.640345 0.968509 0.091996
C24   C     C_R   0.064711 0.359631 0.031506 0.091983
C25   C     C_R   0.522527 0.994665 0.524762 0.024629
C26   C     C_R   0.477480 0.005348 0.475233 0.024626
C27   C     C_R   0.977216 0.492586 0.975600 0.025434
C28   C     C_R   0.022772 0.507393 0.024413 0.025442
C29   C     C_R   0.528805 0.141862 0.571881 0.082559
C30   C     C_R   0.471193 0.858123 0.428123 0.082583
C31   C     C_R   0.973977 0.330992 0.933812 0.083832
C32   C     C_R   0.026015 0.668996 0.066198 0.083825
C33   C     C_R   0.553582 0.688192 0.481707 -0.178244
C34   C     C_R   0.446418 0.311800 0.518298 -0.178242
C35   C     C_R   0.939271 0.801616 0.008862 -0.185688
C36   C     C_R   0.060714 0.198353 0.991153 -0.185694
C37   C     C_R   0.509319 0.698239 0.433167 -0.186500
C38   C     C_R   0.490671 0.301725 0.566849 -0.186510
C39   C     C_R   0.983948 0.816421 0.056729 -0.181683
C40   C     C_R   0.016039 0.183557 0.943282 -0.181671
H1    H     H_    0.636941 0.707427 0.574203 0.139370
H2    H     H_    0.363070 0.292598 0.425788 0.139352
H3    H     H_    0.856675 0.737694 0.918136 0.139074
H4    H     H_    0.143311 0.262279 0.081880 0.139078
H5    H     H_    0.582162 0.563570 0.483716 0.130728
H6    H     H_    0.417833 0.436410 0.516297 0.130726
H7    H     H_    0.907763 0.917734 0.003264 0.130657
H8    H     H_    0.092220 0.082229 0.996754 0.130660
H9    H     H_    0.505047 0.577666 0.400329 0.143662
H10   H     H_    0.494928 0.422246 0.599710 0.143670
H11   H     H_    0.985322 0.946231 0.085500 0.146091
H12   H     H_    0.014662 0.053747 0.914510 0.146091
C41   C     C_3   0.049924 0.048444 0.532188 -0.137171
C42   C     C_3   0.950076 0.951555 0.467812 -0.137170
C43   C     C_3   0.453007 0.584201 0.970759 -0.137828
C44   C     C_3   0.546993 0.415799 0.029241 -0.137829
C45   C     C_3   0.013678 0.866007 0.545212 -0.138933
C46   C     C_3   0.986322 0.133993 0.454789 -0.138934
C47   C     C_3   0.482019 0.395558 0.948317 -0.139452
C48   C     C_3   0.517981 0.604441 0.051683 -0.139453
H13   H     H_    0.024720 0.755202 0.582677 0.108011
H14   H     H_    0.975280 0.244797 0.417323 0.108012
H15   H     H_    0.467427 0.309202 0.905473 0.108993
H16   H     H_    0.532573 0.690797 0.094527 0.108995
H17   H     H_    0.091317 0.088502 0.558540 0.109920
H18   H     H_    0.908683 0.911498 0.441460 0.109921
H19   H     H_    0.414029 0.653775 0.946848 0.109603
H20   H     H_    0.585971 0.346225 0.053152 0.109603
H21   H     H_    0.012065 0.686638 0.447767 0.109941
H22   H     H_    0.987935 0.313362 0.552233 0.109940
H23   H     H_    0.474764 0.174581 0.035094 0.111104
H24   H     H_    0.525236 0.825419 0.964906 0.111104
C49   C     C_1   0.872360 0.968532 0.624935 -0.193775
C50   C     C_1   0.127640 0.031468 0.375065 -0.193775
C51   C     C_1   0.627638 0.469236 0.875038 -0.193583
C52   C     C_1   0.372362 0.530764 0.124962 -0.193586
C53   C     C_3   0.993500 0.171630 0.528557 -0.138640
C54   C     C_3   0.006500 0.828370 0.471443 -0.138641
C55   C     C_3   0.513734 0.678253 0.980841 -0.140302
C56   C     C_3   0.486265 0.321746 0.019159 -0.140302
C57   C     C_3   0.957875 0.989334 0.540977 0.169039
C58   C     C_3   0.042125 0.010666 0.459024 0.169039
C59   C     C_3   0.542125 0.489750 0.959007 0.169953
C60   C     C_3   0.457875 0.510250 0.040993 0.169953
C61   C     C_1   0.910777 0.977545 0.586996 -0.063162
C62   C     C_1   0.089223 0.022455 0.413004 -0.063161
C63   C     C_1   0.589218 0.478243 0.912977 -0.064083
C64   C     C_1   0.410782 0.521757 0.087023 -0.064086
C65   C     C_3   0.571885 0.261218 0.680030 -0.764641
H25   H     H_    0.526635 0.285409 0.694234 0.189831
H26   H     H_    0.594242 0.200712 0.724247 0.205631
H27   H     H_    0.591708 0.401089 0.667548 0.209167
C66   C     C_3   0.428059 0.738625 0.320007 -0.764474
H28   H     H_    0.473300 0.714023 0.305841 0.189774
H29   H     H_    0.408114 0.598949 0.332489 0.209227
H30   H     H_    0.405782 0.799275 0.275765 0.205564
C67   C     C_3   0.931867 0.166532 0.832204 -0.772733
H31   H     H_    0.976953 0.150626 0.816438 0.193158
H32   H     H_    0.916972 0.027189 0.851734 0.210463
H33   H     H_    0.906078 0.202431 0.787151 0.208561
C68   C     C_3   0.068141 0.833542 0.167781 -0.772752
H34   H     H_    0.023061 0.849413 0.183567 0.193152
H35   H     H_    0.093952 0.797744 0.212828 0.208601
H36   H     H_    0.083006 0.972881 0.148217 0.210453

loop_
_geom_bond_atom_site_label_1
_geom_bond_atom_site_label_2
_ccdc_geom_bond_type
C34   C38   A    
C47   H15   S    
O1    C5    A    
C13   C17   A    
C50   C62   T    
O19   V1    S    
O13   V1    S    
C41   C53   S    
C12   C68   S    
C44   C48   S    
O15   V3    S    
C42   H18   S    
O7    C3    A    
C44   C59   S    
C41   H17   S    
C26   C30   A    
C44   C56   S    
C3    C50   S    
O9    V1    S    
C41   C58   S    
C14   C18   A    
C24   C28   A    
C66   H29   S    
C58   C62   S    
O4    C8    A    
C42   C54   S    
C36   H8    S    
O1    V3    S    
O2    V4    S    
C18   C22   A    
O3    V1    S    
C12   C16   A    
O3    C7    A    
C1    O15   A    
H22   C53   S    
C2    O16   A    
C67   H33   S    
O2    C6    A    
C68   H36   S    
O14   V2    S    
C41   C45   S    
C43   H19   S    
C65   H27   S    
C9    C65   S    
C10   C66   S    
O11   C7    A    
O12   C8    A    
C22   C34   A    
O17   V1    S    
C43   C55   S    
O10   V2    S    
C24   C36   A    
O5    V1    S    
C45   C54   S    
C9    C29   A    
C21   C33   A    
C45   C57   S    
C53   C57   S    
O7    V3    S    
C47   C56   S    
O19   V3    S    
C27   C28   A    
O8    V4    S    
O20   V4    S    
C66   H30   S    
O18   V4    S    
C34   H6    S    
C15   C19   A    
C37   H9    S    
C46   H14   S    
C11   C31   A    
C9    C13   A    
C60   C64   S    
C44   H20   S    
C11   C15   A    
O5    C1    A    
C12   C32   A    
C49   C61   T    
C29   C38   A    
C42   C46   S    
C21   C25   A    
O8    C4    A    
C51   C63   T    
C31   C40   A    
C8    C13   S    
C40   H12   S    
C32   C39   A    
O9    C5    A    
C33   C37   A    
C4    C49   S    
O6    V2    S    
C52   C64   T    
C1    C52   S    
C42   C57   S    
C68   H34   S    
C20   H4    S    
C56   C60   S    
H23   C56   S    
C68   H35   S    
C65   H25   S    
O16   V4    S    
C57   C61   S    
C3    O13   A    
C11   C67   S    
C10   C14   A    
C59   C63   S    
O17   V3    S    
C48   H16   S    
H21   C54   S    
O6    C2    A    
C23   C27   A    
C67   H31   S    
O11   V3    S    
C30   C37   A    
O12   V4    S    
C7    C14   S    
C22   C26   A    
C35   C39   A    
C36   C40   A    
O10   C6    A    
O20   V2    S    
C66   H28   S    
C43   C47   S    
C10   C30   A    
C5    C16   S    
C39   H11   S    
C25   C29   A    
C6    C15   S    
C48   C60   S    
C46   C53   S    
C47   C59   S    
C43   C60   S    
C54   C58   S    
C27   C31   A    
C46   C58   S    
C17   H1    S    
C2    C51   S    
O4    V2    S    
C67   H32   S    
C23   C35   A    
C28   C32   A    
C16   C20   A    
C19   H3    S    
C25   C26   A    
H24   C55   S    
C4    O14   A    
C18   H2    S    
C48   C55   S    
C17   C21   A    
C38   H10   S    
C55   C59   S    
C33   H5    S    
C19   C23   A    
C45   H13   S    
C20   C24   A    
C35   H7    S    
C65   H26   S    
O18   V2    S    
