data_mof_unit_61692.cif
_audit_creation_date              2012-12-10T19:46:10-0500
_audit_creation_method            fapswitch 2.2
_symmetry_space_group_name_H-M    P1
_symmetry_Int_Tables_number       1
_space_group_crystal_system       triclinic
_cell_length_a                    28.266542
_cell_length_b                    18.266369
_cell_length_c                    18.260375
_cell_angle_alpha                 89.910278
_cell_angle_beta                  129.377885
_cell_angle_gamma                 89.582574
_cell_volume                      7287.46659342

loop_
_atom_site_label
_atom_site_type_symbol
_atom_type_description
_atom_site_fract_x
_atom_site_fract_y
_atom_site_fract_z
_atom_type_partial_charge
C1    C     C_R   0.499667 0.000049 0.358432 0.932445
C2    C     C_R   0.500275 0.858937 0.000220 0.930748
C3    C     C_R   0.999737 0.641070 0.999769 0.930687
C4    C     C_R   0.000275 0.358937 0.000220 0.930748
C5    C     C_R   0.499586 0.000046 0.140657 0.931070
C6    C     C_R   0.500397 0.999979 0.859322 0.931099
C7    C     C_R   0.999586 0.500046 0.140657 0.931070
C8    C     C_R   0.000397 0.499979 0.859322 0.931099
C9    C     C_1   0.000620 0.217696 0.000473 -0.196139
C10   C     C_1   0.999566 0.782308 0.999655 -0.194288
C11   C     C_1   0.500620 0.717696 0.000473 -0.196139
C12   C     C_R   0.500168 0.999960 0.641406 0.931916
C13   C     C_1   0.499566 0.282308 0.999655 -0.194288
C14   C     C_1   0.500746 0.782472 0.000615 -0.188073
C15   C     C_1   0.499347 0.217537 0.999411 -0.195697
C16   C     C_1   0.000747 0.282472 0.000615 -0.188073
C17   C     C_1   0.999347 0.717537 0.999411 -0.195697
C18   C     C_R   0.618878 0.999252 0.619977 0.938306
C19   C     C_R   0.380921 0.000434 0.377698 0.942833
C20   C     C_R   0.118878 0.499252 0.619977 0.938306
C21   C     C_R   0.880921 0.500434 0.377698 0.942833
C22   C     C_2   0.782252 0.960716 0.835911 0.109285
C23   C     C_R   0.999667 0.500049 0.358432 0.932445
C24   C     C_2   0.219368 0.967701 0.159378 0.105924
C25   C     C_2   0.282252 0.460716 0.835911 0.109285
C26   C     C_2   0.719368 0.467701 0.159378 0.105924
C27   C     C_2   0.815097 0.000588 0.819713 -0.374854
C28   C     C_2   0.184132 0.980453 0.184017 -0.428007
C29   C     C_2   0.315097 0.500588 0.819713 -0.374854
C30   C     C_2   0.684132 0.480453 0.184017 -0.428007
C31   C     C_2   0.715622 0.975647 0.776839 0.101439
C32   C     C_2   0.283070 0.948499 0.238495 0.102320
C33   C     C_2   0.215622 0.475647 0.776839 0.101440
C34   C     C_R   0.000168 0.499960 0.641406 0.931916
C35   C     C_2   0.783070 0.448499 0.238495 0.102319
C36   C     C_2   0.684339 0.995241 0.685373 -0.352671
C37   C     C_2   0.316216 0.003904 0.298078 -0.428998
C38   C     C_2   0.184339 0.495241 0.685373 -0.352671
C39   C     C_2   0.816216 0.503904 0.298079 -0.428998
C40   C     C_1   0.499051 0.000133 0.281372 -0.196931
C41   C     C_1   0.500776 0.999904 0.718450 -0.190453
C42   C     C_1   0.999051 0.500133 0.281372 -0.196931
C43   C     C_1   0.000776 0.499904 0.718450 -0.190453
C44   C     C_1   0.498891 0.000115 0.216432 -0.189566
C45   C     C_R   0.880913 0.998040 0.881807 0.939811
C46   C     C_1   0.500997 0.999946 0.783450 -0.200680
C47   C     C_1   0.998891 0.500116 0.216432 -0.189566
C48   C     C_1   0.000997 0.499946 0.783450 -0.200680
C49   C     C_R   0.000200 0.141242 0.000147 0.942439
C50   C     C_R   0.999985 0.858754 0.000026 0.928064
C51   C     C_R   0.500200 0.641242 0.000147 0.942438
C52   C     C_R   0.499985 0.358754 0.000026 0.928064
C53   C     C_3   0.810858 0.898665 0.909300 -0.398654
C54   C     C_3   0.827777 0.832956 0.877447 -0.343705
C55   C     C_3   0.853793 0.769740 0.948478 -0.865920
C56   C     C_R   0.119256 0.997110 0.118690 0.939534
C57   C     C_3   0.198687 0.980963 0.060312 -0.355419
C58   C     C_3   0.251159 0.981203 0.055582 -0.373944
C59   C     C_3   0.227276 0.997576 0.955233 -0.880859
C60   C     C_3   0.310858 0.398663 0.909298 -0.398655
C61   C     C_3   0.327776 0.332955 0.877443 -0.343705
C62   C     C_3   0.353791 0.269737 0.948472 -0.865918
C63   C     C_3   0.698687 0.480964 0.060313 -0.355418
C64   C     C_3   0.751159 0.481206 0.055583 -0.373944
C65   C     C_3   0.727276 0.497580 0.955234 -0.880858
C66   C     C_3   0.685417 0.972468 0.822329 -0.411104
C67   C     C_R   0.380913 0.498040 0.881807 0.939811
C68   C     C_3   0.654489 0.898515 0.806723 -0.344902
C69   C     C_3   0.647509 0.884373 0.881826 -0.881806
C70   C     C_3   0.306750 0.870118 0.253635 -0.355595
C71   C     C_3   0.257399 0.814636 0.183688 -0.372879
C72   C     C_3   0.284088 0.737225 0.205461 -0.879949
C73   C     C_3   0.185417 0.472467 0.822329 -0.411104
C74   C     C_3   0.154489 0.398514 0.806723 -0.344901
C75   C     C_3   0.147509 0.384371 0.881825 -0.881805
C76   C     C_3   0.806750 0.370119 0.253633 -0.355595
C77   C     C_3   0.757400 0.314637 0.183686 -0.372879
C78   C     C_R   0.619256 0.497110 0.118690 0.939534
C79   C     C_3   0.784089 0.237226 0.205458 -0.879950
C80   C     C_R   0.499737 0.141070 0.999769 0.930687
H1    H     H_    0.794046 0.042222 0.764617 0.131806
H2    H     H_    0.851069 0.917379 0.980202 0.223658
H3    H     H_    0.778956 0.879308 0.920547 0.203281
H4    H     H_    0.194012 0.955292 0.905559 0.261337
H5    H     H_    0.204676 0.052320 0.931367 0.260491
H6    H     H_    0.266048 0.997294 0.953984 0.257572
H7    H     H_    0.284943 0.023724 0.103795 0.232020
H8    H     H_    0.274940 0.927244 0.077976 0.228208
H9    H     H_    0.165117 0.938353 0.011963 0.207215
H10   H     H_    0.176058 0.035690 0.035045 0.218680
H11   H     H_    0.396082 0.286926 0.018714 0.268367
H12   H     H_    0.203935 0.973545 0.257842 0.160092
H13   H     H_    0.319647 0.251348 0.955921 0.256240
H14   H     H_    0.365200 0.222982 0.923204 0.265475
H15   H     H_    0.286256 0.313897 0.807432 0.224391
H16   H     H_    0.362287 0.348912 0.869815 0.218722
H17   H     H_    0.351069 0.417376 0.980200 0.223658
H18   H     H_    0.278956 0.379306 0.920546 0.203281
H19   H     H_    0.694012 0.455296 0.905559 0.261336
H20   H     H_    0.704676 0.552324 0.931369 0.260491
H21   H     H_    0.766048 0.497298 0.953985 0.257571
H22   H     H_    0.784943 0.523726 0.103796 0.232021
H23   H     H_    0.294046 0.542223 0.764617 0.131806
H24   H     H_    0.774940 0.427247 0.077976 0.228208
H25   H     H_    0.665117 0.438355 0.011962 0.207215
H26   H     H_    0.676058 0.535691 0.035046 0.218679
H27   H     H_    0.693232 0.878464 0.952800 0.256036
H28   H     H_    0.622151 0.930240 0.883284 0.277572
H29   H     H_    0.621769 0.833022 0.865383 0.254200
H30   H     H_    0.608507 0.898235 0.736518 0.257621
H31   H     H_    0.680719 0.852408 0.807759 0.222414
H32   H     H_    0.720825 0.982885 0.899481 0.203714
H33   H     H_    0.651233 0.017607 0.794730 0.188069
H34   H     H_    0.703936 0.473545 0.257842 0.160092
H35   H     H_    0.247553 0.698461 0.153919 0.255869
H36   H     H_    0.320916 0.734610 0.199742 0.262165
H37   H     H_    0.303033 0.720231 0.278002 0.261726
H38   H     H_    0.220115 0.815306 0.188523 0.233193
H39   H     H_    0.237453 0.828859 0.109986 0.227353
H40   H     H_    0.343821 0.869056 0.248335 0.205415
H41   H     H_    0.325771 0.851969 0.325877 0.223166
H42   H     H_    0.193232 0.378462 0.952800 0.256036
H43   H     H_    0.122150 0.430237 0.883283 0.277571
H44   H     H_    0.121769 0.333020 0.865382 0.254200
H45   H     H_    0.896084 0.786930 0.018720 0.268368
H46   H     H_    0.108507 0.398234 0.736517 0.257621
H47   H     H_    0.180719 0.352407 0.807758 0.222414
H48   H     H_    0.220825 0.482883 0.899481 0.203714
H49   H     H_    0.151234 0.517606 0.794730 0.188069
H50   H     H_    0.747553 0.198462 0.153915 0.255868
H51   H     H_    0.820917 0.234611 0.199739 0.262166
H52   H     H_    0.803033 0.220231 0.277998 0.261726
H53   H     H_    0.720116 0.315306 0.188521 0.233194
H54   H     H_    0.737454 0.328860 0.109985 0.227354
H55   H     H_    0.843821 0.369058 0.248334 0.205415
H56   H     H_    0.819649 0.751351 0.955928 0.256241
H57   H     H_    0.825771 0.351968 0.325875 0.223166
H58   H     H_    0.705856 0.996445 0.652997 0.120792
H59   H     H_    0.295055 0.057985 0.282127 0.158329
H60   H     H_    0.205855 0.496446 0.652997 0.120791
H61   H     H_    0.795055 0.557985 0.282128 0.158329
H62   H     H_    0.865203 0.722984 0.923211 0.265475
H63   H     H_    0.786257 0.813896 0.807437 0.224390
H64   H     H_    0.862288 0.848913 0.869818 0.218722
O1    O     O_R   0.500010 0.939400 0.392680 -0.624204
O2    O     O_R   0.409540 0.060600 0.409520 -0.620136
O3    O     O_R   0.409540 0.939400 0.409520 -0.632532
O4    O     O_R   0.590460 0.060600 0.590480 -0.618290
O5    O     O_R   0.090460 0.439400 0.590480 -0.629391
O6    O     O_R   0.909540 0.560600 0.409520 -0.620136
O7    O     O_R   0.909540 0.439400 0.409520 -0.632532
O8    O     O_R   0.090460 0.560600 0.590480 -0.618290
O9    O     O_R   0.999970 0.107320 0.060560 -0.617924
O10   O     O_R   0.000030 0.892680 0.939440 -0.624787
O11   O     O_R   0.000030 0.107320 0.939440 -0.621117
O12   O     O_R   0.499990 0.060600 0.607320 -0.618957
O13   O     O_R   0.999970 0.892680 0.060560 -0.624403
O14   O     O_R   0.499970 0.607320 0.060560 -0.617924
O15   O     O_R   0.500030 0.392680 0.939440 -0.624787
O16   O     O_R   0.500030 0.607320 0.939440 -0.621117
O17   O     O_R   0.499970 0.392680 0.060560 -0.624403
O18   O     O_R   0.909520 0.000000 0.970100 -0.625934
O19   O     O_R   0.090480 0.000000 0.029900 -0.634912
O20   O     O_R   0.409520 0.500000 0.970100 -0.625934
O21   O     O_R   0.590480 0.500000 0.029900 -0.634912
O22   O     O_R   0.909530 0.000000 0.848930 -0.621338
O23   O     O_R   0.499990 0.939400 0.607320 -0.634520
O24   O     O_R   0.090470 0.000000 0.151070 -0.618266
O25   O     O_R   0.409530 0.500000 0.848930 -0.621338
O26   O     O_R   0.590470 0.500000 0.151070 -0.618266
O27   O     O_R   0.551060 0.107320 0.051070 -0.618972
O28   O     O_R   0.448940 0.892680 0.948930 -0.619671
O29   O     O_R   0.448940 0.107320 0.948930 -0.628456
O30   O     O_R   0.551060 0.892680 0.051070 -0.620718
O31   O     O_R   0.051060 0.607320 0.051070 -0.618972
O32   O     O_R   0.948940 0.392680 0.948930 -0.619671
O33   O     O_R   0.948940 0.607320 0.948930 -0.628456
O34   O     O_R   0.500010 0.060600 0.392680 -0.620023
O35   O     O_R   0.051060 0.392680 0.051070 -0.620718
O36   O     O_R   0.551050 0.000000 0.158390 -0.618557
O37   O     O_R   0.448950 1.000000 0.841610 -0.616180
O38   O     O_R   0.051050 0.500000 0.158390 -0.618557
O39   O     O_R   0.948950 0.500000 0.841610 -0.616180
O40   O     O_R   0.448910 0.000000 0.056230 -0.623919
O41   O     O_R   0.551090 0.000000 0.943770 -0.627999
O42   O     O_R   0.948910 0.500000 0.056230 -0.623919
O43   O     O_R   0.051090 0.500000 0.943770 -0.627999
O44   O     O_R   0.000010 0.439400 0.392680 -0.624204
O45   O     O_R   0.999990 0.560600 0.607320 -0.618957
O46   O     O_R   0.999990 0.439400 0.607320 -0.634520
O47   O     O_R   0.000010 0.560600 0.392680 -0.620023
O48   O     O_R   0.590460 0.939400 0.590480 -0.629390
Zn1   Zn    Zn3+2 0.500000 0.919080 0.500000 0.932085
Zn2   Zn    Zn3+2 0.431810 0.000000 0.931800 0.956585
Zn3   Zn    Zn3+2 0.068190 0.500000 0.068200 0.958737
Zn4   Zn    Zn3+2 0.931810 0.500000 0.931800 0.956585
Zn5   Zn    Zn3+2 0.500000 0.080920 0.500000 0.958762
Zn6   Zn    Zn3+2 0.000000 0.419080 0.500000 0.932085
Zn7   Zn    Zn3+2 0.000000 0.580920 0.500000 0.958762
Zn8   Zn    Zn3+2 0.999980 0.000000 0.080900 0.949027
Zn9   Zn    Zn3+2 0.000020 0.000000 0.919100 0.943993
Zn10  Zn    Zn3+2 0.499980 0.500000 0.080900 0.949027
Zn11  Zn    Zn3+2 0.500020 0.500000 0.919100 0.943993
Zn12  Zn    Zn3+2 0.568190 0.000000 0.068200 0.958737

loop_
_geom_bond_atom_site_label_1
_geom_bond_atom_site_label_2
_ccdc_geom_bond_type
O28   Zn2   S    
C31   C66   S    
C54   H64   S    
C66   H33   S    
C75   H42   S    
C73   C74   S    
C7    O42   A    
C66   C68   S    
O12   Zn5   S    
C15   C80   S    
C65   H21   S    
C45   O18   A    
C58   H7    S    
O16   Zn11  S    
C59   H5    S    
C28   C56   S    
C61   H16   S    
O9    Zn8   S    
O35   Zn3   S    
C53   C54   S    
C67   O25   A    
C64   H22   S    
C56   O19   A    
C18   O48   A    
C23   C42   S    
C57   H9    S    
C75   H43   S    
O41   Zn12  S    
O42   Zn4   S    
O33   Zn4   S    
C9    C16   T    
O47   Zn7   S    
C80   O29   A    
C18   O4    A    
C30   H34   S    
C23   O44   A    
C11   C14   T    
O4    Zn5   S    
C27   C45   S    
C10   C17   T    
C55   H56   S    
O18   Zn8   S    
C51   O16   A    
C78   O26   A    
C20   O5    A    
C29   H23   S    
O27   Zn12  S    
C19   C37   S    
C1    C40   S    
C29   C67   S    
C1    O1    A    
C67   O20   A    
C69   H28   S    
C55   H45   S    
C70   H40   S    
C24   C57   S    
C72   H37   S    
C68   H31   S    
C41   C46   T    
O3    Zn1   S    
C70   C71   S    
C25   C60   S    
O44   Zn6   S    
C63   H25   S    
C6    C46   S    
C45   O22   A    
C5    O40   A    
O1    Zn1   S    
C7    O38   A    
O5    Zn6   S    
O45   Zn7   S    
C52   O15   A    
C54   H63   S    
C50   O13   A    
C55   H62   S    
O23   Zn1   S    
O7    Zn6   S    
C77   H53   S    
C12   O23   A    
C69   H29   S    
O31   Zn3   S    
C76   H55   S    
C49   O11   A    
C22   C53   S    
C77   C79   S    
C8    O43   A    
C25   C29   D    
C73   H49   S    
C35   C76   S    
C19   O2    A    
C57   H10   S    
C6    O37   A    
C75   H44   S    
C39   H61   S    
O17   Zn10  S    
C34   O46   A    
C6    O41   A    
C76   C77   S    
C65   H19   S    
C60   H17   S    
C22   C31   S    
C68   C69   S    
C32   C70   S    
C58   C59   S    
C76   H57   S    
C79   H50   S    
C19   O3    A    
C20   O8    A    
O8    Zn7   S    
C53   H2    S    
O22   Zn9   S    
C7    C47   S    
C4    C16   S    
C35   C39   D    
C26   C63   S    
C24   C32   S    
C5    O36   A    
C12   C41   S    
O25   Zn11  S    
C13   C52   S    
C20   C38   S    
C1    O34   A    
O15   Zn11  S    
C74   H47   S    
C21   C39   S    
C27   H1    S    
C3    O31   A    
C79   H51   S    
C62   H11   S    
C56   O24   A    
C25   C33   S    
O30   Zn12  S    
O39   Zn4   S    
C9    C49   S    
C28   H12   S    
C68   H30   S    
C32   C37   D    
O32   Zn4   S    
C63   H26   S    
O37   Zn2   S    
C23   O47   A    
O20   Zn10  S    
C8    O39   A    
C33   C73   S    
O34   Zn5   S    
C26   C30   D    
C22   C27   D    
C62   H14   S    
C37   H59   S    
O14   Zn10  S    
C77   H54   S    
C12   O12   A    
C4    O35   A    
C10   C50   S    
O6    Zn7   S    
O10   Zn9   S    
O46   Zn6   S    
C43   C48   T    
C49   O9    A    
C64   H24   S    
C72   H36   S    
C54   C55   S    
O19   Zn9   S    
C78   O21   A    
O24   Zn8   S    
C71   H38   S    
O43   Zn3   S    
C5    C44   S    
C34   O45   A    
C34   C43   S    
C24   C28   D    
C65   H20   S    
O36   Zn12  S    
C58   H8    S    
C61   H15   S    
C73   H48   S    
C52   O17   A    
C51   O14   A    
C60   H18   S    
C59   H4    S    
C71   H39   S    
C53   H3    S    
O13   Zn8   S    
O48   Zn1   S    
O2    Zn5   S    
C13   C15   T    
C3    O33   A    
C59   H6    S    
C71   C72   S    
C8    C48   S    
C64   C65   S    
C70   H41   S    
C21   O6    A    
C57   C58   S    
C74   H46   S    
C36   H58   S    
C50   O10   A    
O40   Zn2   S    
C79   H52   S    
C3    C17   S    
C42   C47   T    
C21   O7    A    
O21   Zn11  S    
C61   C62   S    
C2    C14   S    
O26   Zn10  S    
C11   C51   S    
C63   C64   S    
C30   C78   S    
C26   C35   S    
C40   C44   T    
C74   C75   S    
C4    O32   A    
C62   H13   S    
C2    O28   A    
O29   Zn2   S    
C38   H60   S    
C31   C36   D    
C60   C61   S    
C33   C38   D    
O38   Zn3   S    
C80   O27   A    
C66   H32   S    
O11   Zn9   S    
C18   C36   S    
C69   H27   S    
C2    O30   A    
C72   H35   S    
