data_mof_unit_8675.cif
_audit_creation_date              2012-12-11T15:27:38-0500
_audit_creation_method            fapswitch 2.2
_symmetry_space_group_name_H-M    P1
_symmetry_Int_Tables_number       1
_space_group_crystal_system       triclinic
_cell_length_a                    23.267052
_cell_length_b                    7.301947
_cell_length_c                    15.141402
_cell_angle_alpha                 90.397479
_cell_angle_beta                  108.296557
_cell_angle_gamma                 89.527453
_cell_volume                      2442.28483748

loop_
_atom_site_label
_atom_site_type_symbol
_atom_type_description
_atom_site_fract_x
_atom_site_fract_y
_atom_site_fract_z
_atom_type_partial_charge
O1    O     O_R   0.711000 0.648610 0.341170 -0.535470
O2    O     O_R   0.289000 0.351390 0.658830 -0.535471
O3    O     O_R   0.789000 0.148610 0.158830 -0.535980
O4    O     O_R   0.211000 0.851390 0.841170 -0.535980
O5    O     O_R   0.829650 0.322030 0.336650 -0.537609
O6    O     O_R   0.170350 0.677970 0.663350 -0.537609
O7    O     O_R   0.670350 0.822030 0.163350 -0.536948
O8    O     O_R   0.329650 0.177970 0.836650 -0.536950
C1    C     C_R   0.854282 0.485542 0.356774 0.717335
C2    C     C_R   0.145717 0.514458 0.643226 0.717337
C3    C     C_R   0.645721 0.986047 0.143223 0.717907
C4    C     C_R   0.354279 0.013953 0.856777 0.717908
O9    O     O_R   0.713950 0.319280 0.352070 -0.539763
O10   O     O_R   0.286050 0.680720 0.647930 -0.539764
O11   O     O_R   0.786050 0.819280 0.147930 -0.539353
O12   O     O_R   0.213950 0.180720 0.852070 -0.539354
O13   O     O_R   0.672470 0.142870 0.174360 -0.533645
O14   O     O_R   0.327530 0.857130 0.825640 -0.533646
O15   O     O_R   0.827530 0.642870 0.325640 -0.533007
O16   O     O_R   0.172470 0.357130 0.674360 -0.533006
C5    C     C_R   0.701902 0.488412 0.375949 0.682227
C6    C     C_R   0.298101 0.511590 0.624055 0.682235
C7    C     C_R   0.798136 0.986601 0.124017 0.682364
C8    C     C_R   0.201864 0.013399 0.875982 0.682364
O17   O     O_3   0.736530 0.478650 0.191680 -0.378383
O18   O     O_3   0.263470 0.521350 0.808320 -0.378386
O19   O     O_3   0.763470 0.978650 0.308320 -0.378674
O20   O     O_3   0.236530 0.021350 0.691680 -0.378673
V1    V     V_3+5 0.752500 0.206170 0.260820 1.425743
V2    V     V_3+5 0.247500 0.793830 0.739180 1.425744
V3    V     V_3+5 0.747500 0.706170 0.239180 1.428318
V4    V     V_3+5 0.252500 0.293830 0.760820 1.428317
C9    C     C_R   0.827565 0.990226 0.052067 -0.025018
C10   C     C_R   0.172434 0.009771 0.947932 -0.025014
C11   C     C_R   0.672348 0.501121 0.447593 -0.025357
C12   C     C_R   0.327658 0.498888 0.552417 -0.025339
C13   C     C_R   0.823450 0.942952 0.892487 -0.161495
C14   C     C_R   0.176550 0.057010 0.107515 -0.161498
C15   C     C_R   0.675673 0.580890 0.603842 -0.161218
C16   C     C_R   0.324329 0.419198 0.396156 -0.161215
C17   C     C_R   0.794230 0.955057 0.959593 -0.171514
C18   C     C_R   0.205770 0.044914 0.040408 -0.171518
C19   C     C_R   0.705150 0.555159 0.537727 -0.171955
C20   C     C_R   0.294851 0.444953 0.462267 -0.171967
C21   C     C_R   0.890227 0.012695 0.077833 -0.210910
C22   C     C_R   0.109772 0.987318 0.922163 -0.210909
C23   C     C_R   0.609990 0.473304 0.423126 -0.210931
C24   C     C_R   0.390022 0.526621 0.576901 -0.210934
C25   C     C_R   0.921434 0.996577 0.011528 0.082422
C26   C     C_R   0.078565 0.003417 0.988470 0.082422
C27   C     C_R   0.578509 0.502399 0.488270 0.082169
C28   C     C_R   0.421500 0.497549 0.511753 0.082172
C29   C     C_R   0.886556 0.961736 0.917658 0.140226
C30   C     C_R   0.113444 0.038240 0.082343 0.140225
C31   C     C_R   0.612830 0.556498 0.579817 0.139803
C32   C     C_R   0.387177 0.443504 0.420196 0.139804
C33   C     C_R   0.985840 0.010546 0.035425 0.058358
C34   C     C_R   0.014159 0.989444 0.964573 0.058358
C35   C     C_R   0.514335 0.482585 0.465295 0.058155
C36   C     C_R   0.485675 0.517351 0.534730 0.058155
C37   C     C_R   0.977128 0.955999 0.872211 -0.186469
C38   C     C_R   0.022871 0.043977 0.127789 -0.186469
C39   C     C_R   0.522152 0.569935 0.624839 -0.186472
C40   C     C_R   0.477858 0.430010 0.375184 -0.186476
C41   C     C_R   0.914775 0.943000 0.849575 -0.200891
C42   C     C_R   0.085225 0.056966 0.150425 -0.200892
C43   C     C_R   0.584294 0.588488 0.646608 -0.200675
C44   C     C_R   0.415715 0.411490 0.353410 -0.200670
H1    H     H_    0.888349 0.916397 0.777810 0.123210
H2    H     H_    0.111652 0.083555 0.222193 0.123211
H3    H     H_    0.610287 0.629819 0.716601 0.123163
H4    H     H_    0.389721 0.370176 0.283414 0.123161
H5    H     H_    0.086967 0.963076 0.849387 0.097438
H6    H     H_    0.913031 0.036964 0.150608 0.097441
H7    H     H_    0.412418 0.565859 0.648015 0.097492
H8    H     H_    0.587597 0.433987 0.352025 0.097504
H9    H     H_    0.254281 0.064647 0.060350 0.104855
H10   H     H_    0.745720 0.935309 0.939653 0.104855
H11   H     H_    0.246577 0.421357 0.443440 0.105349
H12   H     H_    0.753419 0.578837 0.556540 0.105352
H13   H     H_    0.994697 0.938233 0.814926 0.124911
H14   H     H_    0.005303 0.061730 0.185076 0.124910
H15   H     H_    0.504296 0.598860 0.680940 0.125067
H16   H     H_    0.495713 0.401090 0.319082 0.125065
C45   C     C_1   0.416774 0.006375 0.918722 -0.191299
C46   C     C_1   0.583225 0.993625 0.081278 -0.191299
C47   C     C_1   0.083220 0.507590 0.581254 -0.191272
C48   C     C_1   0.916780 0.492409 0.418746 -0.191271
C49   C     C_1   0.469145 0.002102 0.969951 0.001363
C50   C     C_1   0.530855 0.997898 0.030049 0.001364
C51   C     C_1   0.030854 0.502707 0.530038 0.001286
C52   C     C_1   0.969146 0.497293 0.469962 0.001287
H17   H     H_    0.796795 0.915409 0.820963 0.112483
H18   H     H_    0.203206 0.084535 0.179040 0.112488
H19   H     H_    0.701898 0.622997 0.673557 0.112649
H20   H     H_    0.298101 0.377148 0.326430 0.112651

loop_
_geom_bond_atom_site_label_1
_geom_bond_atom_site_label_2
_ccdc_geom_bond_type
O17   V3    S    
O1    C5    A    
C47   C51   T    
O19   V1    S    
C9    C21   A    
O3    C7    A    
C10   C18   A    
O15   V3    S    
C25   C33   A    
C33   C38   A    
O18   V4    S    
C35   C40   A    
C26   C30   A    
C4    C45   S    
C36   C39   A    
C40   C44   A    
O9    V1    S    
O10   V2    S    
C23   H8    S    
C14   C18   A    
C1    C48   S    
O4    C8    A    
C25   C29   A    
C3    C46   S    
O1    V3    S    
O13   V1    S    
O2    V4    S    
O3    V1    S    
C40   H16   S    
C28   C36   A    
C1    O15   A    
C15   C31   A    
C48   C52   T    
C2    O16   A    
C7    C9    S    
O2    C6    A    
C10   C22   A    
C11   C19   A    
C16   C20   A    
C43   H3    S    
C44   H4    S    
C13   C29   A    
C34   C37   A    
O11   C7    A    
C38   H14   S    
C11   C23   A    
C35   C36   A    
O12   C8    A    
C24   H7    S    
C16   H20   S    
O5    V1    S    
C39   C43   A    
C2    C47   S    
O7    V3    S    
C38   C42   A    
C13   H17   S    
O8    V4    S    
C46   C50   T    
C17   H10   S    
C45   C49   T    
C23   C27   A    
C16   C32   A    
C19   H12   S    
C32   C44   A    
C8    C10   S    
C39   H15   S    
C21   H6    S    
C26   C34   A    
O7    C3    A    
O5    C1    A    
C31   C43   A    
C14   C30   A    
C21   C25   A    
O8    C4    A    
C14   H18   S    
O9    C5    A    
C15   H19   S    
O14   V2    S    
O6    V2    S    
C12   C20   A    
C27   C35   A    
C51   C52   S    
C29   C41   A    
O16   V4    S    
C3    O13   A    
C20   H11   S    
O6    C2    A    
C15   C19   A    
O11   V3    S    
C30   C42   A    
O12   V4    S    
C6    C12   S    
C22   C26   A    
C9    C17   A    
O10   C6    A    
O20   V2    S    
C5    C11   S    
C37   H13   S    
C33   C34   A    
C42   H2    S    
C41   H1    S    
C12   C24   A    
C27   C31   A    
C13   C17   A    
C37   C41   A    
C24   C28   A    
C18   H9    S    
C4    O14   A    
C49   C50   S    
C22   H5    S    
O4    V2    S    
C28   C32   A    
