data_mof_unit_17109.cif
_audit_creation_date              2012-12-10T21:14:40-0500
_audit_creation_method            fapswitch 2.2
_symmetry_space_group_name_H-M    P1
_symmetry_Int_Tables_number       1
_space_group_crystal_system       triclinic
_cell_length_a                    17.607002
_cell_length_b                    16.744991
_cell_length_c                    11.528672
_cell_angle_alpha                 90.113294
_cell_angle_beta                  91.018876
_cell_angle_gamma                 90.113557
_cell_volume                      3398.43690549

loop_
_atom_site_label
_atom_site_type_symbol
_atom_type_description
_atom_site_fract_x
_atom_site_fract_y
_atom_site_fract_z
_atom_type_partial_charge
C1    C     C_R   0.353238 0.499959 0.502893 0.946917
C2    C     C_R   0.646799 0.500099 0.499119 0.946317
C3    C     C_R   0.770295 0.562663 0.555158 0.396541
C4    C     C_R   0.234952 0.434059 0.567617 0.407678
C5    C     C_R   0.227346 0.564496 0.471418 0.403645
C6    C     C_R   0.768395 0.434719 0.450989 0.410228
C7    C     C_R   0.729525 0.499701 0.500921 -0.251010
C8    C     C_R   0.270840 0.499472 0.513304 -0.257294
C9    C     C_R   0.886580 0.492487 0.519528 0.027507
C10   C     C_R   0.113702 0.495118 0.525774 0.025177
C11   C     C_1   0.966473 0.491015 0.525204 -0.014410
C12   C     C_1   0.033851 0.491925 0.527263 -0.014367
C13   C     C_R   0.499733 0.499866 0.281448 0.919131
C14   C     C_R   0.499626 0.499983 0.718529 0.910598
C15   C     C_R   0.458166 0.832589 0.416388 -0.393259
C16   C     C_R   0.542821 0.167983 0.582048 -0.414307
C17   C     C_R   0.542828 0.833227 0.581469 -0.400828
C18   C     C_R   0.457652 0.167759 0.416809 -0.412335
C19   C     C_R   0.460492 0.747818 0.415153 0.531394
C20   C     C_R   0.543491 0.253323 0.581060 0.553915
C21   C     C_R   0.540085 0.748408 0.583969 0.513186
C22   C     C_R   0.456739 0.253085 0.418482 0.553281
C23   C     C_1   0.500335 0.963955 0.498824 -0.001058
C24   C     C_1   0.500332 0.037130 0.498953 -0.006663
C25   C     C_1   0.498897 0.499381 0.161217 -0.198919
C26   C     C_1   0.498453 0.499639 0.838689 -0.199138
C27   C     C_1   0.498210 0.499012 0.059145 -0.016557
C28   C     C_1   0.497957 0.499126 0.940729 -0.008697
C29   C     C_R   0.500281 0.876037 0.499038 0.053335
C30   C     C_R   0.500278 0.125097 0.499267 0.078164
C31   C     C_R   0.848771 0.556934 0.567469 -0.269721
C32   C     C_R   0.155885 0.433733 0.575569 -0.278391
C33   C     C_R   0.148548 0.560118 0.474178 -0.269382
C34   C     C_R   0.847668 0.432907 0.458777 -0.283261
H1    H     H_    0.424120 0.864268 0.352466 0.165177
H2    H     H_    0.574950 0.133576 0.644862 0.158033
H3    H     H_    0.578665 0.865709 0.642591 0.164068
H4    H     H_    0.425659 0.133182 0.353676 0.157967
H5    H     H_    0.880184 0.603898 0.612160 0.157242
H6    H     H_    0.127215 0.386393 0.621534 0.149874
H7    H     H_    0.114748 0.608165 0.437303 0.158880
H8    H     H_    0.879214 0.386447 0.415460 0.148656
N1    N     N_R   0.500000 0.707230 0.500000 -0.163137
N2    N     N_R   0.500000 0.292770 0.500000 -0.158357
O1    O     O_R   0.389110 0.566570 0.499990 -0.584875
O2    O     O_R   0.610890 0.433430 0.500010 -0.569226
O3    O     O_R   0.610890 0.566570 0.500010 -0.583266
O4    O     O_R   0.389110 0.433430 0.499990 -0.567084
O5    O     O_R   0.500000 0.566540 0.334450 -0.607465
O6    O     O_R   0.500000 0.433460 0.665550 -0.572895
O7    O     O_R   0.500000 0.566540 0.665550 -0.608402
O8    O     O_R   0.500000 0.433460 0.334450 -0.575764
Zn1   Zn    Zn3+2 0.500000 0.588860 0.500000 1.010121
Zn2   Zn    Zn3+2 0.500000 0.411140 0.500000 1.038748
O9    O     O_3   0.418473 0.704852 0.333629 -0.594231
C35   C     C_3   0.440081 0.724002 0.218900 0.099675
H9    H     H_    0.458295 0.667954 0.176373 0.181148
H10   H     H_    0.489026 0.766276 0.213009 0.107942
C36   C     C_3   0.371817 0.756933 0.150486 -0.359173
H11   H     H_    0.322888 0.715349 0.158429 0.249070
H12   H     H_    0.355335 0.815780 0.186590 0.201329
C37   C     C_3   0.389814 0.767074 0.022282 -0.980022
H13   H     H_    0.439557 0.807192 0.011920 0.265185
H14   H     H_    0.340161 0.793710 0.976092 0.267763
H15   H     H_    0.402058 0.708192 0.982289 0.263954
O10   O     O_3   0.587221 0.301260 0.655910 -0.615053
C38   C     C_3   0.625662 0.261890 0.747900 0.055897
H16   H     H_    0.668456 0.304716 0.783303 0.168579
H17   H     H_    0.659681 0.210210 0.718217 0.112357
C39   C     C_3   0.571385 0.241442 0.846404 -0.353553
H18   H     H_    0.543017 0.296915 0.876137 0.240739
H19   H     H_    0.526640 0.199355 0.815464 0.210193
C40   C     C_3   0.614050 0.203850 0.948838 -0.966187
H20   H     H_    0.642193 0.147780 0.921331 0.263249
H21   H     H_    0.573616 0.189528 0.018589 0.267436
H22   H     H_    0.657527 0.245925 0.984186 0.266405
O11   O     O_3   0.584791 0.705996 0.662102 -0.591902
C41   C     C_3   0.563775 0.723063 0.777339 0.074871
H23   H     H_    0.504518 0.702497 0.792079 0.150915
H24   H     H_    0.567949 0.787836 0.797796 0.111449
C42   C     C_3   0.617916 0.679198 0.860386 -0.259775
H25   H     H_    0.617531 0.614377 0.839963 0.239901
H26   H     H_    0.676674 0.701773 0.848762 0.217607
C43   C     C_3   0.595776 0.691324 0.986536 -1.015596
H27   H     H_    0.597519 0.755749 0.009590 0.261631
H28   H     H_    0.636041 0.658672 0.044399 0.272274
H29   H     H_    0.537753 0.667864 0.000549 0.270720
O12   O     O_3   0.413060 0.300777 0.343756 -0.615465
C44   C     C_3   0.374735 0.261181 0.251478 0.056242
H30   H     H_    0.331894 0.303748 0.216256 0.169620
H31   H     H_    0.340776 0.209297 0.280809 0.112021
C45   C     C_3   0.429100 0.241062 0.152927 -0.353664
H32   H     H_    0.457329 0.296721 0.123462 0.240774
H33   H     H_    0.473951 0.199317 0.183707 0.210136
C46   C     C_3   0.386568 0.203103 0.050294 -0.964547
H34   H     H_    0.358580 0.146838 0.077526 0.263522
H35   H     H_    0.427059 0.189044 0.980502 0.267289
H36   H     H_    0.342980 0.244838 0.015114 0.266823
O13   O     O_3   0.733641 0.627880 0.602079 -0.607591
C47   C     C_3   0.743870 0.695630 0.530180 0.166880
H37   H     H_    0.690221 0.706158 0.480376 0.173311
H38   H     H_    0.790204 0.689457 0.465680 0.093248
C48   C     C_3   0.761602 0.768647 0.605886 -0.339138
H39   H     H_    0.717430 0.775749 0.672529 0.249345
H40   H     H_    0.817210 0.759879 0.651154 0.206570
C49   C     C_3   0.764680 0.844781 0.533556 -0.987861
H41   H     H_    0.809697 0.840110 0.467608 0.264738
H42   H     H_    0.777711 0.896522 0.590962 0.266775
H43   H     H_    0.709057 0.855379 0.489272 0.272184
O14   O     O_3   0.277967 0.377769 0.627503 -0.628090
C50   C     C_3   0.265150 0.300875 0.580267 0.109199
H44   H     H_    0.280348 0.299664 0.486841 0.156734
H45   H     H_    0.204915 0.282141 0.589263 0.119193
C51   C     C_3   0.314854 0.240931 0.646338 -0.300024
H46   H     H_    0.375573 0.256851 0.636088 0.224046
H47   H     H_    0.301912 0.243701 0.740298 0.222553
C52   C     C_3   0.301316 0.155857 0.602808 -0.981734
H48   H     H_    0.242402 0.136660 0.621681 0.261953
H49   H     H_    0.341607 0.114626 0.647284 0.274618
H50   H     H_    0.310147 0.152119 0.507864 0.264310
O15   O     O_3   0.261001 0.630598 0.421802 -0.604244
C53   C     C_3   0.259614 0.695637 0.500846 0.152756
H51   H     H_    0.315609 0.699292 0.546622 0.167013
H52   H     H_    0.214968 0.690773 0.568245 0.097984
C54   C     C_3   0.245732 0.773053 0.433860 -0.337160
H53   H     H_    0.287664 0.778680 0.363837 0.250871
H54   H     H_    0.187992 0.771422 0.393351 0.209574
C55   C     C_3   0.252527 0.845935 0.513109 -0.987593
H55   H     H_    0.209789 0.842798 0.582680 0.264873
H56   H     H_    0.242433 0.901023 0.461693 0.268003
H57   H     H_    0.310341 0.849291 0.553057 0.272602
O16   O     O_3   0.729073 0.380523 0.381081 -0.631244
C56   C     C_3   0.739016 0.301999 0.423272 0.110144
H58   H     H_    0.723840 0.298329 0.516624 0.152368
H59   H     H_    0.798586 0.281811 0.412372 0.121987
C57   C     C_3   0.687131 0.245779 0.353436 -0.299017
H60   H     H_    0.627024 0.263440 0.365197 0.225383
H61   H     H_    0.700007 0.250852 0.259672 0.222578
C58   C     C_3   0.697700 0.159114 0.391043 -0.982927
H62   H     H_    0.755901 0.138526 0.370692 0.262329
H63   H     H_    0.655970 0.120613 0.343913 0.273781
H64   H     H_    0.688770 0.152900 0.485666 0.265456

loop_
_geom_bond_atom_site_label_1
_geom_bond_atom_site_label_2
_ccdc_geom_bond_type
O9    C35   S    
C1    C8    S    
C17   C29   A    
C40   H20   S    
C2    C7    S    
C34   H8    S    
C43   H29   S    
C4    C8    A    
C55   H55   S    
C42   H25   S    
C46   H36   S    
C14   O6    A    
O11   C41   S    
C2    O2    A    
O4    Zn2   S    
O6    Zn2   S    
C10   C32   A    
C23   C29   S    
C20   O10   S    
C43   H28   S    
C3    C7    A    
C52   H49   S    
C58   H64   S    
C41   H24   S    
C49   H41   S    
C16   C30   A    
C5    O15   S    
C35   H9    S    
O14   C50   S    
C45   H32   S    
C37   H14   S    
C48   H39   S    
C20   N2    A    
C21   N1    A    
N1    Zn1   S    
C22   N2    A    
C50   H44   S    
O8    Zn2   S    
O16   C56   S    
C5    C33   A    
C56   C57   S    
C23   C24   T    
C39   H18   S    
C18   C30   A    
C22   O12   S    
C44   H31   S    
O3    Zn1   S    
C32   H6    S    
O10   C38   S    
O1    Zn1   S    
C36   H11   S    
C40   H21   S    
C13   C25   S    
C50   C51   S    
C57   C58   S    
C15   H1    S    
C42   H26   S    
C19   N1    A    
C15   C29   A    
C35   H10   S    
C36   H12   S    
C38   H16   S    
C43   H27   S    
C50   H45   S    
C52   H50   S    
C41   H23   S    
C47   C48   S    
C17   C21   A    
C6    C34   A    
O7    Zn1   S    
C15   C19   A    
C37   H13   S    
N2    Zn2   S    
C54   C55   S    
C13   O8    A    
C14   O7    A    
C16   C20   A    
O2    Zn2   S    
C39   C40   S    
C45   H33   S    
C48   H40   S    
C17   H3    S    
C14   C26   S    
C44   C45   S    
C3    C31   A    
C9    C11   S    
O15   C53   S    
C4    C32   A    
C10   C12   S    
C13   O5    A    
C6    O16   S    
C56   H58   S    
C40   H22   S    
C53   H52   S    
C44   H30   S    
C55   H57   S    
C27   C28   S    
C42   C43   S    
C57   H61   S    
C54   H54   S    
C47   H38   S    
C19   O9    S    
C4    O14   S    
C46   H35   S    
C36   C37   S    
C37   H15   S    
C18   C22   A    
C57   H60   S    
C55   H56   S    
C5    C8    A    
C51   H47   S    
C58   H62   S    
C10   C33   A    
C1    O4    A    
C51   H46   S    
C6    C7    A    
C2    O3    A    
C25   C27   T    
C26   C28   T    
C35   C36   S    
C38   C39   S    
C33   H7    S    
C53   C54   S    
C18   H4    S    
O13   C47   S    
C16   H2    S    
C58   H63   S    
C41   C42   S    
C1    O1    A    
C54   H53   S    
C49   H42   S    
O5    Zn1   S    
C47   H37   S    
C31   H5    S    
C9    C34   A    
C48   C49   S    
C45   C46   S    
C24   C30   S    
C51   C52   S    
C9    C31   A    
C3    O13   S    
O12   C44   S    
C21   O11   S    
C46   H34   S    
C56   H59   S    
C39   H19   S    
C38   H17   S    
C53   H51   S    
C52   H48   S    
C11   C12   T    
C49   H43   S    
