data_mof_unit_32623.cif
_audit_creation_date              2012-12-10T17:49:33-0500
_audit_creation_method            fapswitch 2.2
_symmetry_space_group_name_H-M    P1
_symmetry_Int_Tables_number       1
_space_group_crystal_system       triclinic
_cell_length_a                    10.493125
_cell_length_b                    10.721904
_cell_length_c                    9.914523
_cell_angle_alpha                 89.447299
_cell_angle_beta                  89.81477
_cell_angle_gamma                 91.911144
_cell_volume                      1114.76670101

loop_
_atom_site_label
_atom_site_type_symbol
_atom_type_description
_atom_site_fract_x
_atom_site_fract_y
_atom_site_fract_z
_atom_type_partial_charge
Br1   Br    Br    0.696267 0.691522 0.839835 -0.533852
C1    C     C_R   0.507784 0.259971 0.501791 0.853381
C2    C     C_R   0.497767 0.058378 0.631090 0.094260
C3    C     C_R   0.512804 0.125948 0.507313 -0.122148
C4    C     C_R   0.257454 0.499329 0.500360 0.835363
C5    C     C_R   0.511859 0.064046 0.383897 -0.220760
C6    C     C_R   0.495736 0.937036 0.381244 -0.218526
C7    C     C_R   0.470854 0.871208 0.501006 -0.134229
C8    C     C_R   0.331428 0.336867 0.141929 -0.143610
C9    C     C_R   0.247882 0.257249 0.072621 -0.213190
C10   C     C_R   0.247573 0.257786 0.932996 -0.184921
C11   C     C_R   0.331131 0.337627 0.861830 -0.145094
C12   C     C_3   0.960267 0.500211 0.371280 -0.127706
C13   C     C_R   0.416850 0.419824 0.928615 0.088081
C14   C     C_R   0.416957 0.419686 0.073222 0.154482
C15   C     C_R   0.579008 0.576912 0.071268 -0.172829
C16   C     C_R   0.487146 0.738770 0.499888 0.894785
C17   C     C_R   0.579371 0.577260 0.928555 0.308657
C18   C     C_R   0.742596 0.500279 0.499661 0.889792
C19   C     C_3   0.039964 0.498723 0.628826 -0.128951
C20   C     C_3   0.953734 0.396525 0.564184 -0.182340
C21   C     C_3   0.877755 0.499837 0.498774 0.019774
C22   C     C_3   0.961323 0.602012 0.563220 -0.155511
C23   C     C_3   0.038952 0.396934 0.436866 -0.183944
C24   C     C_3   0.046462 0.602403 0.435920 -0.190465
C25   C     C_3   0.122410 0.499159 0.501321 0.028743
C26   C     C_R   0.523621 0.108165 0.760853 -0.158465
C27   C     C_R   0.481370 0.045356 0.877352 -0.125962
C28   C     C_R   0.413910 0.932245 0.866946 -0.124845
C29   C     C_R   0.400428 0.876296 0.741361 -0.127232
C30   C     C_R   0.454226 0.934106 0.624201 0.107755
H1    H     H_    0.911098 0.312902 0.616209 0.136047
H2    H     H_    0.076528 0.497945 0.733810 0.155050
H3    H     H_    0.925130 0.685532 0.614253 0.172962
H4    H     H_    0.089158 0.686039 0.383973 0.138606
H5    H     H_    0.923865 0.500856 0.266246 0.153550
H6    H     H_    0.075613 0.313712 0.385570 0.127276
H7    H     H_    0.525327 0.113417 0.288732 0.172995
H8    H     H_    0.580033 0.192913 0.775445 0.169600
H9    H     H_    0.498830 0.085829 0.975494 0.141382
H10   H     H_    0.375963 0.885757 0.956540 0.134997
H11   H     H_    0.347625 0.788030 0.736924 0.151061
H12   H     H_    0.505132 0.890502 0.285336 0.174842
H13   H     H_    0.643335 0.639593 0.125076 0.175314
H14   H     H_    0.326040 0.330634 0.248963 0.202265
H15   H     H_    0.183146 0.194563 0.127793 0.147113
H16   H     H_    0.182910 0.195251 0.879284 0.151771
H17   H     H_    0.326625 0.331325 0.754893 0.206956
N1    N     N_R   0.498800 0.498800 0.142780 -0.139360
N2    N     N_R   0.498760 0.498720 0.857170 -0.149352
O1    O     O_R   0.500000 0.316780 0.614690 -0.656386
O2    O     O_R   0.499990 0.316750 0.385360 -0.638794
O3    O     O_R   0.313960 0.499980 0.614650 -0.655130
O4    O     O_R   0.313940 0.499960 0.385310 -0.635369
O5    O     O_R   0.500010 0.683250 0.614640 -0.579981
O6    O     O_R   0.500000 0.683220 0.385310 -0.623492
O7    O     O_R   0.686060 0.500040 0.614690 -0.575276
O8    O     O_R   0.686040 0.500020 0.385350 -0.627448
Zn1   Zn    Zn3+2 0.500010 0.500020 0.653130 0.956728
Zn2   Zn    Zn3+2 0.499990 0.499980 0.346870 0.931580

loop_
_geom_bond_atom_site_label_1
_geom_bond_atom_site_label_2
_ccdc_geom_bond_type
C9    H15   S    
C1    C3    S    
C10   C11   A    
C5    H7    S    
C8    H14   S    
C28   C29   A    
C6    H12   S    
C8    C9    A    
C15   H13   S    
C10   H16   S    
C7    C16   S    
C19   C22   S    
C11   H17   S    
C22   H3    S    
C2    C26   A    
C23   H6    S    
O3    Zn1   S    
C6    C7    A    
O4    Zn2   S    
C20   C21   S    
C15   N1    A    
C14   N1    A    
C2    C30   A    
C16   O6    A    
C12   C24   S    
Br1   C17   S    
C13   N2    A    
N1    Zn2   S    
C1    O2    A    
C24   H4    S    
N2    Zn1   S    
C19   H2    S    
C4    O3    A    
C27   C28   A    
C23   C25   S    
C12   C21   S    
C5    C6    A    
O5    Zn1   S    
C22   C24   S    
C18   O8    A    
C8    C14   A    
C29   C30   A    
C20   H1    S    
O7    Zn1   S    
C3    C5    A    
O1    Zn1   S    
C9    C10   A    
C27   H9    S    
O8    Zn2   S    
C4    C25   S    
C4    O4    A    
C18   C21   S    
C19   C20   S    
C17   N2    A    
C12   H5    S    
C15   C17   A    
C1    O1    A    
C20   C23   S    
C26   H8    S    
C26   C27   A    
C16   O5    A    
C21   C22   S    
C29   H11   S    
O2    Zn2   S    
C28   H10   S    
C24   C25   S    
C13   C14   A    
C7    C30   A    
C18   O7    A    
C2    C3    A    
O6    Zn2   S    
C12   C23   S    
C11   C13   A    
C19   C25   S    
