data_mof_unit_14759.cif
_audit_creation_date              2012-12-11T17:15:03-0500
_audit_creation_method            fapswitch 2.2
_symmetry_space_group_name_H-M    P1
_symmetry_Int_Tables_number       1
_space_group_crystal_system       triclinic
_cell_length_a                    7.222604
_cell_length_b                    12.164213
_cell_length_c                    21.318002
_cell_angle_alpha                 90.004196
_cell_angle_beta                  91.016891
_cell_angle_gamma                 90.023221
_cell_volume                      1872.64682222

loop_
_atom_site_label
_atom_site_type_symbol
_atom_type_description
_atom_site_fract_x
_atom_site_fract_y
_atom_site_fract_z
_atom_type_partial_charge
O1    O     O_R   0.354460 0.152320 0.595720 -0.533354
O2    O     O_R   0.645540 0.847680 0.404280 -0.533353
O3    O     O_R   0.145540 0.652320 0.404280 -0.533335
O4    O     O_R   0.854460 0.347680 0.595720 -0.533336
O5    O     O_R   0.683670 0.140090 0.727290 -0.538913
O6    O     O_R   0.316330 0.859910 0.272710 -0.538912
O7    O     O_R   0.816330 0.640090 0.272710 -0.538893
O8    O     O_R   0.183670 0.359910 0.727290 -0.538895
O9    O     O_R   0.854010 0.349340 0.727750 -0.536489
O10   O     O_R   0.145990 0.650660 0.272250 -0.536488
O11   O     O_R   0.645990 0.849340 0.272250 -0.536300
O12   O     O_R   0.354010 0.150660 0.727750 -0.536295
C1    C     C_R   0.517068 0.112117 0.746833 0.686058
C2    C     C_R   0.482930 0.887883 0.253167 0.686062
C3    C     C_R   0.982840 0.612105 0.253152 0.686231
C4    C     C_R   0.017160 0.387895 0.746847 0.686232
O13   O     O_R   0.684170 0.139420 0.596190 -0.536062
O14   O     O_R   0.315830 0.860580 0.403810 -0.536064
O15   O     O_R   0.815830 0.639420 0.403810 -0.536134
O16   O     O_R   0.184170 0.360580 0.596190 -0.536135
C5    C     C_R   0.514758 0.113148 0.574446 0.712160
C6    C     C_R   0.485242 0.886852 0.425554 0.712161
C7    C     C_R   0.985212 0.613145 0.425555 0.712129
C8    C     C_R   0.014788 0.386855 0.574445 0.712128
O17   O     O_3   0.520730 0.319480 0.661730 -0.376011
O18   O     O_3   0.479270 0.680520 0.338270 -0.376009
O19   O     O_3   0.979270 0.819480 0.338270 -0.375872
O20   O     O_3   0.020730 0.180520 0.661730 -0.375870
V1    V     V_3+5 0.795560 0.238090 0.661730 1.427266
V2    V     V_3+5 0.204440 0.761910 0.338270 1.427261
V3    V     V_3+5 0.704440 0.738090 0.338270 1.427255
V4    V     V_3+5 0.295560 0.261910 0.661730 1.427257
C9    C     C_R   0.016602 0.466569 0.798399 -0.031686
C10   C     C_R   0.983397 0.533432 0.201600 -0.031681
C11   C     C_R   0.484064 0.966423 0.201585 -0.030647
C12   C     C_R   0.515920 0.033585 0.798419 -0.030608
C13   C     C_R   0.083351 0.647849 0.838616 -0.168755
C14   C     C_R   0.916616 0.352153 0.161382 -0.168768
C15   C     C_R   0.426248 0.148898 0.161687 -0.169115
C16   C     C_R   0.573463 0.851074 0.838310 -0.169115
C17   C     C_R   0.066296 0.575854 0.788156 -0.178410
C18   C     C_R   0.933702 0.424145 0.211844 -0.178408
C19   C     C_R   0.440495 0.076538 0.212061 -0.178848
C20   C     C_R   0.559254 0.923436 0.787935 -0.178878
C21   C     C_R   0.984649 0.428791 0.859055 -0.218193
C22   C     C_R   0.015327 0.571218 0.140943 -0.218197
C23   C     C_R   0.512561 0.928139 0.140821 -0.217854
C24   C     C_R   0.487579 0.071900 0.859187 -0.217836
C25   C     C_R   0.006808 0.499089 0.911497 0.080356
C26   C     C_R   0.993151 0.500920 0.088501 0.080359
C27   C     C_R   0.493499 0.998931 0.088499 0.080933
C28   C     C_R   0.506488 0.001086 0.911506 0.080943
C29   C     C_R   0.056040 0.610304 0.900017 0.130339
C30   C     C_R   0.943913 0.389704 0.099981 0.130335
C31   C     C_R   0.450592 0.110999 0.100188 0.129906
C32   C     C_R   0.549241 0.888995 0.899813 0.129903
C33   C     C_R   0.985789 0.462195 0.974668 0.052793
C34   C     C_R   0.014163 0.537816 0.025330 0.052797
C35   C     C_R   0.512065 0.961843 0.025263 0.053185
C36   C     C_R   0.487903 0.038172 0.974741 0.053182
C37   C     C_R   0.061382 0.647857 0.011121 -0.194691
C38   C     C_R   0.938567 0.352155 0.988877 -0.194698
C39   C     C_R   0.447017 0.149036 0.989144 -0.195402
C40   C     C_R   0.552845 0.850964 0.010858 -0.195398
C41   C     C_R   0.081277 0.682975 0.949785 -0.199306
C42   C     C_R   0.918663 0.317035 0.050213 -0.199316
C43   C     C_R   0.429117 0.184285 0.050543 -0.200467
C44   C     C_R   0.570662 0.815703 0.949457 -0.200471
H1    H     H_    0.050460 0.656856 0.136603 0.099300
H2    H     H_    0.949503 0.343155 0.863395 0.099300
H3    H     H_    0.457010 0.158123 0.863667 0.098591
H4    H     H_    0.543391 0.841950 0.136347 0.098626
H5    H     H_    0.906378 0.395042 0.258812 0.106794
H6    H     H_    0.093635 0.604954 0.741189 0.106793
H7    H     H_    0.583478 0.893869 0.740850 0.106441
H8    H     H_    0.416133 0.106082 0.259142 0.106454
H9    H     H_    0.122183 0.732478 0.829793 0.125822
H10   H     H_    0.877781 0.267524 0.170205 0.125822
H11   H     H_    0.392424 0.234220 0.170673 0.125563
H12   H     H_    0.607131 0.765731 0.829321 0.125559
H13   H     H_    0.085289 0.709881 0.046293 0.129729
H14   H     H_    0.914663 0.290130 0.953705 0.129728
H15   H     H_    0.426802 0.211659 0.954087 0.129926
H16   H     H_    0.572949 0.788327 0.045913 0.129918
C45   C     C_1   0.995782 0.533148 0.478084 -0.177806
C46   C     C_1   0.004218 0.466852 0.521916 -0.177806
C47   C     C_1   0.504179 0.033150 0.521917 -0.177811
C48   C     C_1   0.495821 0.966850 0.478083 -0.177811
H17   H     H_    0.118873 0.767956 0.941292 0.140054
H18   H     H_    0.881062 0.232055 0.058705 0.140052
H19   H     H_    0.396444 0.269928 0.059187 0.139500
H20   H     H_    0.603213 0.730043 0.940812 0.139495

loop_
_geom_bond_atom_site_label_1
_geom_bond_atom_site_label_2
_ccdc_geom_bond_type
C47   C48   T    
C5    C47   S    
O1    C5    A    
O3    V2    S    
C9    C21   A    
O3    C7    A    
C10   C18   A    
O15   V3    S    
C25   C33   A    
C33   C38   A    
C42   H18   S    
C45   C46   T    
C41   H17   S    
C35   C40   A    
C26   C30   A    
C36   C39   A    
C40   C44   A    
O20   V1    S    
O9    C4    A    
C14   C18   A    
O10   C3    A    
O4    C8    A    
O11   C2    A    
O13   V1    S    
C40   H16   S    
C22   H1    S    
C28   C36   A    
C17   H6    S    
C15   C31   A    
O16   C8    A    
C16   C32   A    
O2    C6    A    
C16   H12   S    
C10   C22   A    
C6    C48   S    
C11   C19   A    
C3    C10   S    
O5    C1    A    
O4    V1    S    
O9    V1    S    
C13   C29   A    
C34   C37   A    
O7    C3    A    
C38   H14   S    
C11   C23   A    
C35   C36   A    
O8    C4    A    
O12   V4    S    
O19   V2    S    
O5    V1    S    
C39   C43   A    
O7    V3    S    
C38   C42   A    
O8    V4    S    
C1    C12   S    
C2    C11   S    
C23   C27   A    
C14   H10   S    
C32   C44   A    
C13   H9    S    
O1    V4    S    
O13   C5    A    
C39   H15   S    
O2    V3    S    
C26   C34   A    
C20   H7    S    
O15   C7    A    
C4    C9    S    
O6    C2    A    
O10   V2    S    
C31   C43   A    
C14   C30   A    
C21   C25   A    
C43   H19   S    
O14   V2    S    
O6    V2    S    
C16   C20   A    
C12   C20   A    
C27   C35   A    
C24   H3    S    
C29   C41   A    
O16   V4    S    
C19   H8    S    
C18   H5    S    
C21   H2    S    
O14   C6    A    
O18   V3    S    
C15   C19   A    
C30   C42   A    
C22   C26   A    
C9    C17   A    
C37   H13   S    
C33   C34   A    
O17   V4    S    
C25   C29   A    
C44   H20   S    
C12   C24   A    
C27   C31   A    
C13   C17   A    
C23   H4    S    
O11   V3    S    
C37   C41   A    
C24   C28   A    
O12   C1    A    
C7    C45   S    
C8    C46   S    
C28   C32   A    
C15   H11   S    
