data_mof_unit_41171.cif
_audit_creation_date              2012-12-11T18:07:10-0500
_audit_creation_method            fapswitch 2.2
_symmetry_space_group_name_H-M    P1
_symmetry_Int_Tables_number       1
_space_group_crystal_system       triclinic
_cell_length_a                    8.20951
_cell_length_b                    12.704996
_cell_length_c                    26.966882
_cell_angle_alpha                 96.561244
_cell_angle_beta                  92.8193
_cell_angle_gamma                 81.353362
_cell_volume                      2761.04565946

loop_
_atom_site_label
_atom_site_type_symbol
_atom_type_description
_atom_site_fract_x
_atom_site_fract_y
_atom_site_fract_z
_atom_type_partial_charge
Ba1   Ba    Ba6+2 0.859560 0.448380 0.523550 1.656482
Ba2   Ba    Ba6+2 0.330270 0.551530 0.476440 1.665260
C1    C     C_3   0.638708 0.080623 0.662693 -0.377829
C2    C     C_3   0.658768 0.182148 0.640175 0.334342
C3    C     C_3   0.482211 0.719875 0.628136 0.297343
C4    C     C_3   0.446716 0.763008 0.682115 -0.369619
C5    C     C_3   0.948338 0.848429 0.343308 0.273111
C6    C     C_3   0.983642 0.866331 0.290411 -0.228584
C7    C     C_3   0.473693 0.829772 0.344447 0.370366
C8    C     C_3   0.458900 0.907956 0.305258 -0.354284
C9    C     C_R   0.016079 0.419173 0.177399 0.615482
C10   C     C_R   0.933320 0.608822 0.181010 0.583017
C11   C     C_2   0.761965 0.574775 0.272240 -0.083305
C12   C     C_3   0.166254 0.213770 0.660597 0.290562
C13   C     C_3   0.736760 0.606703 0.327348 -0.065375
C14   C     C_1   0.984562 0.479728 0.342896 0.046705
C15   C     C_2   0.026170 0.471201 0.295185 -0.030460
C16   C     C_2   0.908161 0.519607 0.256492 0.217049
C17   C     C_R   0.032412 0.509932 0.102624 -0.079670
C18   C     C_R   0.058132 0.415593 0.126629 -0.046340
C19   C     C_R   0.123629 0.319432 0.099166 -0.043739
C20   C     C_R   0.969062 0.606935 0.130176 -0.025440
C21   C     C_2   0.847240 0.536946 0.360185 -0.292355
C22   C     C_2   0.352744 0.475483 0.641414 -0.281718
C23   C     C_3   0.133129 0.188362 0.712546 -0.329350
C24   C     C_R   0.186226 0.409251 0.973407 0.019997
C25   C     C_R   0.066475 0.599494 0.975075 0.020606
C26   C     C_R   0.145108 0.503456 0.948778 0.050845
C27   C     C_R   0.272122 0.317467 0.946161 -0.098242
C28   C     C_R   0.312576 0.317593 0.896506 -0.059872
C29   C     C_R   0.268327 0.408844 0.871346 -0.031612
C30   C     C_R   0.183367 0.501797 0.897331 -0.077980
C31   C     C_R   0.137372 0.593340 0.871956 -0.034207
C32   C     C_R   0.175944 0.590726 0.821160 0.590252
C33   C     C_R   0.308164 0.409092 0.820790 0.579767
C34   C     C_3   0.212494 0.223445 0.418896 0.305875
C35   C     C_2   0.460269 0.477613 0.729528 -0.070491
C36   C     C_3   0.501644 0.485005 0.675798 -0.053337
C37   C     C_1   0.208172 0.523052 0.657053 0.040856
C38   C     C_2   0.168864 0.525034 0.704521 -0.107207
C39   C     C_2   0.301248 0.498758 0.743774 0.204651
C40   C     C_R   0.141633 0.410102 0.024215 0.018882
C41   C     C_R   0.070352 0.507549 0.051104 0.052099
C42   C     C_R   0.036750 0.602867 0.027064 0.019231
C43   C     C_R   0.164998 0.316631 0.049341 -0.095114
C44   C     C_R   0.943569 0.700971 0.106557 -0.055147
C45   C     C_3   0.226696 0.102793 0.406870 -0.330597
C46   C     C_R   0.019008 0.689111 0.948100 -0.100063
C47   C     C_R   0.053588 0.685896 0.897857 -0.061089
C48   C     C_R   0.976016 0.699134 0.056296 -0.100454
C49   C     C_R   0.755796 0.820097 0.478046 -0.273001
C50   C     C_R   0.434513 0.189178 0.520908 -0.289681
C51   C     C_R   0.411073 0.009919 0.537087 -0.098346
C52   C     C_R   0.348624 0.118022 0.540484 -0.007031
C53   C     C_R   0.576167 0.152325 0.493846 0.061326
C54   C     C_R   0.638509 0.041076 0.487841 -0.055393
C55   C     C_R   0.555251 0.969592 0.510653 -0.061268
C56   C     C_3   0.982174 0.776838 0.580528 0.276581
C57   C     C_R   0.616630 0.859231 0.505592 0.052333
C58   C     C_R   0.843567 0.889306 0.457950 -0.041850
C59   C     C_R   0.782664 0.998822 0.461018 -0.085956
C60   C     C_3   0.979714 0.896964 0.591480 -0.336891
C61   C     C_3   0.698825 0.311992 0.375085 0.294166
C62   C     C_3   0.654437 0.299893 0.319209 0.372233
H1    H     H_    0.766534 0.164657 0.615569 0.083858
H2    H     H_    0.311629 0.076144 0.375775 0.109084
H3    H     H_    0.275471 0.062149 0.439783 0.074345
H4    H     H_    0.103641 0.079964 0.395730 0.153075
H5    H     H_    0.856206 0.759605 0.571297 0.001623
H6    H     H_    0.061836 0.748120 0.548262 0.076514
H7    H     H_    0.908354 0.927233 0.625261 0.122108
H8    H     H_    0.922117 0.938307 0.559669 0.085411
H9    H     H_    0.107581 0.915078 0.598137 0.134966
H10   H     H_    0.832002 0.314757 0.380741 0.011024
H11   H     H_    0.628810 0.389074 0.391021 -0.010335
H12   H     H_    0.617756 0.016563 0.632482 0.085967
H13   H     H_    0.521791 0.291581 0.313578 0.045176
H14   H     H_    0.675944 0.372408 0.302703 -0.047433
H15   H     H_    0.545100 0.206372 0.617852 -0.040968
H16   H     H_    0.531774 0.095754 0.687474 0.136697
H17   H     H_    0.367339 0.695343 0.610164 0.030247
H18   H     H_    0.580749 0.649564 0.627328 0.034015
H19   H     H_    0.353477 0.836257 0.683294 0.139461
H20   H     H_    0.397583 0.702655 0.701460 0.078901
H21   H     H_    0.561586 0.783017 0.702034 0.125162
H22   H     H_    0.751336 0.053577 0.685024 0.129713
H23   H     H_    0.160112 0.254868 0.740555 0.125130
H24   H     H_    0.917326 0.766260 0.342732 -0.001548
H25   H     H_    0.842194 0.908572 0.356317 0.033313
H26   H     H_    0.079887 0.801878 0.274699 0.143979
H27   H     H_    0.869057 0.866419 0.266803 0.143691
H28   H     H_    0.027388 0.944785 0.290299 0.135668
H29   H     H_    0.606615 0.812423 0.355352 -0.126599
H30   H     H_    0.407375 0.868618 0.378167 0.080841
H31   H     H_    0.524372 0.869501 0.271292 0.137910
H32   H     H_    0.515295 0.979626 0.320122 0.132432
H33   H     H_    0.096338 0.293430 0.655226 0.094245
H34   H     H_    0.327399 0.933350 0.295183 0.121103
H35   H     H_    0.147421 0.431383 0.284180 0.118487
H36   H     H_    0.143740 0.245170 0.116226 0.131620
H37   H     H_    0.559570 0.462775 0.757097 0.101331
H38   H     H_    0.379067 0.244997 0.877731 0.122273
H39   H     H_    0.313457 0.244188 0.962474 0.071460
H40   H     H_    0.212253 0.238844 0.031201 0.071823
H41   H     H_    0.671865 0.609891 0.245741 0.107374
H42   H     H_    0.897216 0.777265 0.126943 0.130596
H43   H     H_    0.951254 0.763074 0.964454 0.070820
H44   H     H_    0.299687 0.216986 0.658087 -0.021021
H45   H     H_    0.014289 0.757152 0.879290 0.122793
H46   H     H_    0.041700 0.546838 0.715314 0.124899
H47   H     H_    0.955461 0.775698 0.041778 0.073867
H48   H     H_    0.825904 0.550398 0.399958 0.077779
H49   H     H_    0.363356 0.428443 0.605148 0.069465
H50   H     H_    0.341914 0.958445 0.553927 0.105479
H51   H     H_    0.851746 0.049242 0.443454 0.109398
H52   H     H_    0.803455 0.735533 0.475568 0.057540
H53   H     H_    0.384930 0.273448 0.524123 0.067268
H54   H     H_    0.001600 0.178788 0.714953 0.146448
H55   H     H_    0.212068 0.113170 0.720990 0.118852
H56   H     H_    0.335566 0.245456 0.429023 -0.012878
H57   H     H_    0.129287 0.248099 0.450657 0.064756
N1    N     N_R   0.953363 0.515308 0.204205 -0.427584
N2    N     N_R   0.260494 0.499192 0.795979 -0.425169
O1    O     O_2   0.907040 0.557650 0.617910 -0.464129
O2    O     O_3   0.658740 0.224461 0.396879 -0.619069
O3    O     O_3   0.115610 0.134178 0.625294 -0.610869
O4    O     O_2   0.282660 0.442310 0.382060 -0.461233
O5    O     O_3   0.050670 0.442340 0.442260 -0.509156
O6    O     O_3   0.504750 0.639360 0.411530 -0.463639
O7    O     O_3   0.151526 0.270794 0.376238 -0.584386
O8    O     O_3   0.618400 0.630290 0.524520 -0.476968
O9    O     O_3   0.090070 0.694820 0.435810 -0.466615
O10   O     O_2   0.182531 0.883562 0.467017 -0.482317
O11   O     O_3   0.088354 0.860875 0.373965 -0.584730
O12   O     O_3   0.139040 0.557570 0.557730 -0.495674
O13   O     O_3   0.571310 0.369620 0.475470 -0.487171
O14   O     O_2   0.348200 0.764910 0.523260 -0.468765
O15   O     O_3   0.534966 0.800662 0.604473 -0.649719
O16   O     O_2   0.429432 0.530981 0.324115 -0.495744
O17   O     O_3   0.402294 0.738789 0.324875 -0.564238
O18   O     O_2   0.033437 0.336435 0.197380 -0.541457
O19   O     O_2   0.384770 0.328763 0.798832 -0.600200
O20   O     O_2   0.885151 0.694572 0.204788 -0.627800
O21   O     O_2   0.136465 0.670744 0.799596 -0.597112
O22   O     O_3   0.684960 0.360550 0.588460 -0.486787
O23   O     O_2   0.843586 0.420637 0.672690 -0.500113
O24   O     O_3   0.040265 0.729304 0.623448 -0.627099
O25   O     O_3   0.683798 0.262481 0.678818 -0.587032
O26   O     O_2   0.841490 0.235060 0.476710 -0.474301
O27   O     O_3   0.099640 0.305100 0.564190 -0.492384
O28   O     O_2   0.012258 0.115762 0.532449 -0.484731
P1    P     P_3+3 0.072810 0.589830 0.610360 0.992737
P2    P     P_3+3 0.661990 0.251250 0.462170 0.983939
P3    P     P_3+3 0.144600 0.167071 0.565442 0.933643
P4    P     P_3+3 0.116900 0.410080 0.389630 1.016976
P5    P     P_3+3 0.048927 0.833867 0.433922 0.962007
P6    P     P_3+3 0.678279 0.384238 0.653644 0.971166
P7    P     P_3+3 0.533505 0.764428 0.539941 0.936220
P8    P     P_3+3 0.518342 0.625271 0.346485 0.981357
S1    S     S_3+6 0.775226 0.186990 0.286676 -0.068426
O29   O     O_2   0.758888 0.087927 0.310335 -0.342633
O30   O     O_2   0.714140 0.174765 0.233180 -0.262999
O31   O     O_3   0.973861 0.205622 0.288793 -0.497777
H58   H     H_    0.032969 0.139583 0.270881 0.364249

loop_
_geom_bond_atom_site_label_1
_geom_bond_atom_site_label_2
_ccdc_geom_bond_type
C25   C46   A    
C56   C60   S    
C53   C54   A    
Ba2   P4    S    
O13   P2    S    
C7    H29   S    
O10   P5    D    
C62   H13   S    
Ba1   O22   S    
C17   C18   A    
Ba1   O5    S    
C23   H54   S    
Ba2   O6    S    
C3    O15   S    
O23   P6    D    
C51   C52   A    
C21   H48   S    
C32   O21   D    
C32   N2    Am   
C4    H21   S    
O14   P7    D    
C34   C45   S    
O17   P8    S    
C28   C29   A    
C57   P7    S    
C55   C57   A    
C46   H43   S    
C31   C47   A    
O12   P1    S    
C5    H25   S    
C10   C20   A    
C23   H23   S    
C22   C37   D    
O22   P6    S    
C54   C55   A    
C27   H39   S    
Ba1   P1    S    
Ba1   Ba2   S    
O28   P3    D    
C8    H34   S    
O26   P2    D    
C2    H1    S    
O5    P4    S    
O9    P5    S    
C25   C42   A    
O11   P5    S    
O31   H58   S    
C50   C52   A    
C14   C15   D    
C59   H51   S    
C22   C36   S    
C60   H9    S    
Ba1   O26   S    
O7    P4    S    
C6    H28   S    
Ba1   O13   S    
C7    C8    S    
C45   H2    S    
C50   C53   A    
Ba2   O4    S    
C12   H44   S    
O1    P1    D    
O16   P8    D    
C22   H49   S    
C1    H22   S    
C28   H38   S    
C1    H16   S    
C23   H55   S    
C26   C30   A    
C45   H3    S    
C17   C41   A    
Ba2   O8    S    
C19   C43   A    
C9    C18   A    
C4    H20   S    
S1    O31   S    
C5    C6    S    
C17   C20   A    
C5    O11   S    
C11   H41   S    
O4    P4    D    
C37   C38   D    
C9    O18   D    
C19   H36   S    
C51   C55   A    
C56   O24   S    
C56   H6    S    
C38   H46   S    
C37   P1    S    
Ba2   O13   S    
C58   C59   A    
C40   C43   A    
S1    O30   D    
O8    P7    S    
C41   C42   A    
C58   P5    S    
C13   P8    S    
C35   C36   S    
C43   H40   S    
C34   O7    S    
C3    H17   S    
O15   P7    S    
Ba2   O9    S    
C5    H24   S    
C8    H32   S    
C62   S1    S    
C14   P4    S    
C15   C16   S    
C60   H8    S    
Ba1   O27   S    
C6    H27   S    
Ba1   P2    S    
C1    H12   S    
C15   H35   S    
C61   O2    S    
C2    H15   S    
C11   C16   D    
C46   C47   A    
C20   C44   A    
C16   N1    S    
C14   C21   D    
C11   C13   S    
C29   C33   A    
C9    N1    Am   
C49   C57   A    
C40   C41   A    
C1    C2    S    
O3    P3    S    
C45   H4    S    
O6    P8    S    
C51   H50   S    
C24   C40   A    
C12   H33   S    
C47   H45   S    
C42   C48   A    
C53   P2    S    
C38   C39   S    
C4    H19   S    
Ba2   O14   S    
C62   H14   S    
C29   C30   A    
C10   N1    Am   
Ba2   O12   S    
C36   P6    S    
Ba1   O8    S    
C52   P3    S    
C56   H5    S    
C61   H10   S    
C44   C48   A    
C24   C26   A    
C49   H52   S    
C12   O3    S    
C10   O20   D    
C30   C31   A    
O2    P2    S    
C33   N2    Am   
O24   P1    S    
Ba1   O1    S    
C50   H53   S    
C35   H37   S    
C3    H18   S    
C39   N2    S    
C3    C4    S    
C61   H11   S    
C8    H31   S    
C44   H42   S    
C13   C21   S    
C48   H47   S    
C7    O17   S    
C31   C32   A    
C60   H7    S    
C34   H57   S    
O25   P6    S    
C12   C23   S    
C35   C39   D    
C34   H56   S    
S1    O29   D    
C33   O19   D    
C27   C28   A    
C61   C62   S    
C6    H26   S    
C18   C19   A    
C24   C27   A    
O27   P3    S    
C25   C26   A    
C54   C59   A    
C49   C58   A    
Ba1   O12   S    
C7    H30   S    
Ba2   O5    S    
C2    O25   S    
