data_mof_unit_11789.cif
_audit_creation_date              2013-03-05T15:47:26-0500
_audit_creation_method            fapswitch 2.2
_symmetry_space_group_name_H-M    P1
_symmetry_Int_Tables_number       1
_space_group_crystal_system       triclinic
_cell_length_a                    18.260546
_cell_length_b                    18.660988
_cell_length_c                    11.688139
_cell_angle_alpha                 89.651515
_cell_angle_beta                  75.848243
_cell_angle_gamma                 90.060967
_cell_volume                      3861.89020441

loop_
_atom_site_label
_atom_site_type_symbol
_atom_site_description
_atom_site_fract_x
_atom_site_fract_y
_atom_site_fract_z
_atom_type_partial_charge
O1    O     O_R   0.430030 0.075530 0.417420 -0.574712
O2    O     O_R   0.569970 0.924470 0.582580 -0.563520
O3    O     O_R   0.569970 0.075530 0.582580 -0.564835
O4    O     O_R   0.430030 0.924470 0.417420 -0.552055
O5    O     O_R   0.930030 0.575530 0.417420 -0.574759
O6    O     O_R   0.069970 0.424470 0.582580 -0.563486
O7    O     O_R   0.069970 0.575530 0.582580 -0.564869
O8    O     O_R   0.930030 0.424470 0.417420 -0.551914
O9    O     O_R   0.416860 0.075510 0.614610 -0.565223
O10   O     O_R   0.583140 0.924490 0.385390 -0.566643
O11   O     O_R   0.583140 0.075510 0.385390 -0.559353
O12   O     O_R   0.416860 0.924490 0.614610 -0.566697
O13   O     O_R   0.916860 0.575510 0.614610 -0.565175
O14   O     O_R   0.083140 0.424490 0.385390 -0.566353
O15   O     O_R   0.083140 0.575510 0.385390 -0.559325
O16   O     O_R   0.916860 0.424490 0.614610 -0.566690
C1    C     C_R   0.401600 0.102048 0.520044 0.821302
C2    C     C_R   0.598772 0.898247 0.479857 0.831886
C3    C     C_R   0.598570 0.101999 0.479137 0.823890
C4    C     C_R   0.400342 0.898797 0.521113 0.833157
C5    C     C_R   0.901595 0.602044 0.520044 0.821284
C6    C     C_R   0.098782 0.398254 0.479851 0.831674
C7    C     C_R   0.098567 0.602001 0.479137 0.823833
C8    C     C_R   0.900334 0.398805 0.521117 0.832886
C9    C     C_R   0.410523 0.010278 0.868483 0.512953
C10   C     C_R   0.589573 0.990222 0.131494 0.508835
C11   C     C_R   0.910527 0.510306 0.868482 0.512867
C12   C     C_R   0.089573 0.490219 0.131492 0.509081
Cu1   Cu    Cu3+1 0.507800 0.000000 0.383250 0.993778
Cu2   Cu    Cu3+1 0.492200 0.000000 0.616750 0.992186
Cu3   Cu    Cu3+1 0.007800 0.500000 0.383250 0.994036
Cu4   Cu    Cu3+1 0.992200 0.500000 0.616750 0.992221
C13   C     C_R   0.402087 0.012632 0.991368 -0.327307
C14   C     C_R   0.597900 0.987064 0.008677 -0.330757
C15   C     C_R   0.902091 0.512653 0.991368 -0.327268
C16   C     C_R   0.097896 0.487046 0.008678 -0.330943
C17   C     C_R   0.542392 0.992484 0.837626 0.004226
C18   C     C_R   0.457514 0.006782 0.162430 -0.012389
C19   C     C_R   0.042388 0.492458 0.837628 0.004455
C20   C     C_R   0.957515 0.506782 0.162430 -0.012620
C21   C     C_R   0.651238 0.162231 0.468641 -0.166684
C22   C     C_R   0.344335 0.841299 0.532291 -0.149303
C23   C     C_R   0.349398 0.162381 0.528315 -0.165498
C24   C     C_R   0.651771 0.838570 0.471317 -0.143331
C25   C     C_R   0.151227 0.662239 0.468643 -0.166653
C26   C     C_R   0.844316 0.341317 0.532309 -0.149408
C27   C     C_R   0.849385 0.662370 0.528314 -0.165457
C28   C     C_R   0.151808 0.338598 0.471287 -0.143412
C29   C     C_R   0.245877 0.769625 0.657367 -0.189773
C30   C     C_R   0.747494 0.236099 0.343782 -0.190502
C31   C     C_R   0.735554 0.754352 0.348411 -0.187588
C32   C     C_R   0.266346 0.247249 0.650918 -0.191365
C33   C     C_R   0.745800 0.269701 0.657385 -0.189833
C34   C     C_R   0.247416 0.736174 0.343777 -0.190706
C35   C     C_R   0.235681 0.254461 0.348338 -0.187566
C36   C     C_R   0.766396 0.747292 0.650894 -0.191353
C37   C     C_R   0.304574 0.818410 0.644647 -0.246205
C38   C     C_R   0.690263 0.185841 0.356320 -0.238688
C39   C     C_R   0.679914 0.806070 0.361913 -0.251024
C40   C     C_R   0.322241 0.195719 0.637288 -0.231105
C41   C     C_R   0.804505 0.318478 0.644669 -0.246160
C42   C     C_R   0.190197 0.685902 0.356323 -0.238546
C43   C     C_R   0.180029 0.306166 0.361846 -0.251153
C44   C     C_R   0.822280 0.695750 0.637262 -0.231048
C45   C     C_R   0.328866 0.810034 0.430844 0.391058
C46   C     C_R   0.664478 0.195506 0.570402 0.411436
C47   C     C_R   0.674579 0.813469 0.571726 0.416864
C48   C     C_R   0.325900 0.187139 0.428051 0.413238
C49   C     C_R   0.828881 0.310015 0.430869 0.390846
C50   C     C_R   0.164507 0.695479 0.570405 0.411461
C51   C     C_R   0.174571 0.313452 0.571703 0.416891
C52   C     C_R   0.825837 0.687086 0.428070 0.413271
C53   C     C_R   0.267514 0.763051 0.443528 0.008708
C54   C     C_R   0.725507 0.242862 0.557703 0.024577
C55   C     C_R   0.735247 0.765329 0.556160 -0.006731
C56   C     C_R   0.265871 0.235582 0.443567 0.026051
C57   C     C_R   0.767528 0.263035 0.443545 0.008787
C58   C     C_R   0.225541 0.742830 0.557691 0.024550
C59   C     C_R   0.235255 0.265331 0.556146 -0.006738
C60   C     C_R   0.765802 0.735524 0.443604 0.025988
N1    N     N_R   0.519530 0.000000 0.207810 -0.264501
N2    N     N_R   0.480470 0.000000 0.792190 -0.264583
N3    N     N_R   0.019530 0.500000 0.207810 -0.264294
N4    N     N_R   0.980470 0.500000 0.792190 -0.264526
H1    H     H_    0.402528 0.013632 0.222274 0.186041
H2    H     H_    0.597341 0.985373 0.777806 0.184580
H3    H     H_    0.902529 0.513640 0.222274 0.186064
H4    H     H_    0.097335 0.485330 0.777810 0.184523
H5    H     H_    0.677594 0.164665 0.277438 0.219079
H6    H     H_    0.318237 0.838598 0.723386 0.219345
H7    H     H_    0.344124 0.181911 0.712523 0.214723
H8    H     H_    0.658855 0.820573 0.286250 0.222702
H9    H     H_    0.177485 0.664762 0.277446 0.219009
H10   H     H_    0.818133 0.338700 0.723411 0.219373
H11   H     H_    0.844202 0.681974 0.712472 0.214665
H12   H     H_    0.159017 0.320711 0.286159 0.222688
H13   H     H_    0.716050 0.253678 0.745741 0.192555
H14   H     H_    0.276904 0.752579 0.255459 0.190886
H15   H     H_    0.255825 0.230412 0.262335 0.195639
H16   H     H_    0.746785 0.771867 0.736600 0.187344
H17   H     H_    0.216163 0.753565 0.745722 0.192580
H18   H     H_    0.777047 0.252443 0.255463 0.191033
H19   H     H_    0.755647 0.730255 0.262435 0.195654
H20   H     H_    0.246682 0.271780 0.736650 0.187391
H21   H     H_    0.346552 0.020811 0.049242 0.183430
H22   H     H_    0.653467 0.979073 0.950797 0.183015
H23   H     H_    0.846559 0.520853 0.049241 0.183434
H24   H     H_    0.153463 0.479055 0.950795 0.183088
C61   C     C_R   0.535455 0.994553 0.961182 -0.010056
C62   C     C_R   0.464459 0.004671 0.038890 -0.012313
C63   C     C_R   0.035452 0.494534 0.961183 -0.010115
C64   C     C_R   0.964459 0.504669 0.038891 -0.012244
N5    N     N_R   0.655995 0.981173 0.173918 0.140762
O17   O     O_R   0.695754 0.923359 0.145111 -0.405333
O18   O     O_R   0.689854 0.037673 0.200342 -0.374934
N6    N     N_R   0.344303 0.020629 0.826009 0.140015
O19   O     O_R   0.305375 0.078885 0.855216 -0.404901
O20   O     O_R   0.309853 0.964930 0.798175 -0.376388
N7    N     N_R   0.156005 0.481214 0.173906 0.140790
O21   O     O_R   0.195822 0.423440 0.145033 -0.405236
O22   O     O_R   0.189820 0.537737 0.200345 -0.374951
N8    N     N_R   0.844314 0.520709 0.826009 0.139993
O23   O     O_R   0.805405 0.578971 0.855265 -0.404907
O24   O     O_R   0.809855 0.465045 0.798078 -0.376364
O25   O     O_3   0.622078 0.178346 0.682987 -0.609745
C65   C     C_3   0.549971 0.211146 0.704108 0.095987
H25   H     H_    0.509444 0.175677 0.765629 0.184486
H26   H     H_    0.528004 0.216854 0.623380 0.101090
C66   C     C_3   0.550755 0.284280 0.762353 -0.392465
H27   H     H_    0.573462 0.278445 0.841849 0.231570
H28   H     H_    0.587876 0.321681 0.699591 0.227861
C67   C     C_3   0.471435 0.315895 0.798518 -0.880650
H29   H     H_    0.447665 0.322402 0.720183 0.257578
H30   H     H_    0.473804 0.369259 0.838966 0.267476
H31   H     H_    0.433716 0.280444 0.864124 0.259665
O26   O     O_3   0.372123 0.827053 0.319094 -0.601462
C68   C     C_3   0.432115 0.777408 0.288596 0.057503
H32   H     H_    0.409962 0.723947 0.271449 0.151209
H33   H     H_    0.462785 0.771950 0.359971 0.119748
C69   C     C_3   0.488455 0.803652 0.176982 -0.306599
H34   H     H_    0.458508 0.815021 0.106720 0.221324
H35   H     H_    0.515058 0.854005 0.196923 0.239457
C70   C     C_3   0.550205 0.748427 0.132216 -0.915643
H36   H     H_    0.579130 0.734273 0.202518 0.258536
H37   H     H_    0.592629 0.771007 0.055775 0.260654
H38   H     H_    0.525588 0.699199 0.103595 0.262380
O27   O     O_3   0.358408 0.161851 0.315647 -0.616946
C71   C     C_3   0.428013 0.197630 0.268212 0.084600
H39   H     H_    0.468172 0.157543 0.218444 0.186316
H40   H     H_    0.455067 0.220013 0.336373 0.109188
C72   C     C_3   0.418088 0.256982 0.182354 -0.375904
H41   H     H_    0.389621 0.234829 0.116340 0.233950
H42   H     H_    0.382471 0.300327 0.231703 0.233730
C73   C     C_3   0.494115 0.288792 0.117909 -0.886236
H43   H     H_    0.523656 0.311417 0.182132 0.259315
H44   H     H_    0.485072 0.332399 0.057854 0.271086
H45   H     H_    0.530119 0.246992 0.064733 0.253799
O28   O     O_3   0.640938 0.839468 0.683319 -0.610259
C74   C     C_3   0.593082 0.786451 0.750934 0.026279
H46   H     H_    0.594718 0.793621 0.844508 0.169831
H47   H     H_    0.611783 0.730377 0.727392 0.145818
C75   C     C_3   0.511335 0.795799 0.741880 -0.316408
H48   H     H_    0.491496 0.850427 0.771092 0.250458
H49   H     H_    0.508236 0.788935 0.648810 0.197492
C76   C     C_3   0.459032 0.741169 0.818876 -0.908256
H50   H     H_    0.476610 0.685848 0.790142 0.264280
H51   H     H_    0.400300 0.749506 0.810883 0.259258
H52   H     H_    0.460167 0.747541 0.912842 0.258738
O29   O     O_3   0.122136 0.678298 0.682999 -0.609753
C77   C     C_3   0.050031 0.711109 0.704190 0.095968
H53   H     H_    0.009524 0.675660 0.765783 0.184444
H54   H     H_    0.028016 0.716791 0.623504 0.101174
C78   C     C_3   0.050856 0.784262 0.762358 -0.392454
H55   H     H_    0.073589 0.778450 0.841834 0.231557
H56   H     H_    0.087973 0.821638 0.699542 0.227880
C79   C     C_3   0.971548 0.815902 0.798543 -0.880722
H57   H     H_    0.947758 0.822392 0.720225 0.257569
H58   H     H_    0.973945 0.869276 0.838943 0.267482
H59   H     H_    0.933830 0.780474 0.864193 0.259694
O30   O     O_3   0.872163 0.326977 0.319115 -0.601447
C80   C     C_3   0.932272 0.277446 0.288924 0.057672
H60   H     H_    0.910208 0.223685 0.273200 0.150733
H61   H     H_    0.963355 0.272846 0.359891 0.120250
C81   C     C_3   0.988038 0.303063 0.176291 -0.306736
H62   H     H_    0.957641 0.313380 0.106257 0.220913
H63   H     H_    0.014438 0.353889 0.194627 0.239171
C82   C     C_3   0.050039 0.247966 0.132277 -0.914735
H64   H     H_    0.079433 0.234860 0.202434 0.258379
H65   H     H_    0.092037 0.270115 0.054941 0.260242
H66   H     H_    0.025561 0.198194 0.105257 0.262460
O31   O     O_3   0.858311 0.661775 0.315670 -0.616969
C83   C     C_3   0.927898 0.697568 0.268154 0.084602
H67   H     H_    0.968029 0.657500 0.218272 0.186252
H68   H     H_    0.955013 0.719908 0.336274 0.109260
C84   C     C_3   0.917902 0.756967 0.182418 -0.375949
H69   H     H_    0.889383 0.734852 0.116440 0.233955
H70   H     H_    0.882309 0.800291 0.231875 0.233763
C85   C     C_3   0.993903 0.788801 0.117906 -0.886232
H71   H     H_    0.023498 0.811382 0.182094 0.259300
H72   H     H_    0.984813 0.832446 0.057951 0.271118
H73   H     H_    0.029880 0.747026 0.064616 0.253807
O32   O     O_3   0.140840 0.339359 0.683319 -0.610247
C86   C     C_3   0.092948 0.286288 0.750712 0.026431
H74   H     H_    0.094475 0.293383 0.844342 0.169606
H75   H     H_    0.111692 0.230235 0.727090 0.145831
C87   C     C_3   0.011241 0.295646 0.741459 -0.316467
H76   H     H_    0.991328 0.350219 0.770910 0.250373
H77   H     H_    0.008259 0.288954 0.648305 0.197432
C88   C     C_3   0.958924 0.240859 0.818043 -0.908225
H78   H     H_    0.976551 0.185601 0.788985 0.264293
H79   H     H_    0.900210 0.249236 0.809992 0.259245
H80   H     H_    0.959986 0.247002 0.912076 0.258678

loop_
_geom_bond_atom_site_label_1
_geom_bond_atom_site_label_2
_geom_bond_distance
_ccdc_geom_bond_type
C70   H38   1.110989 S    
O6    Cu4   1.973986 S    
C86   H74   1.110232 S    
C76   H50   1.110756 S    
C7    C25   1.463448 S    
C16   H24   1.084148 S    
O29   C77   1.419134 S    
O13   Cu4   1.974683 S    
C49   C57   1.400303 A    
C33   C54   1.401234 A    
O10   Cu1   1.974683 S    
C56   C59   1.414928 A    
O14   Cu3   1.974683 S    
C51   C59   1.404612 A    
C47   C55   1.404623 A    
C45   C53   1.400335 A    
C20   C64   1.419072 A    
C78   H55   1.111025 S    
C29   C58   1.401236 A    
C66   H28   1.111021 S    
C68   H33   1.116938 S    
O11   C3    1.296766 A    
C65   H25   1.111652 S    
C20   H3    1.082457 S    
C11   N4    1.381696 A    
C50   O29   1.389158 S    
C71   H40   1.117702 S    
C19   N4    1.368687 A    
N5    O17   1.300383 A    
C49   O30   1.385878 S    
C29   H17   1.082865 S    
C87   H77   1.111161 S    
C78   C79   1.526489 S    
O2    C2    1.287062 A    
C77   H53   1.111653 S    
C24   C39   1.398517 A    
C31   H19   1.082687 S    
C70   H36   1.110775 S    
C46   C54   1.400126 A    
C25   C42   1.400107 A    
C88   H80   1.110605 S    
Cu3   N3    2.008963 S    
C81   H62   1.111617 S    
C72   C73   1.525976 S    
C31   C60   1.400943 A    
C26   C49   1.413466 A    
C32   C40   1.384297 A    
O8    C8    1.289749 A    
C33   C41   1.384960 A    
C10   C14   1.407674 A    
C79   H59   1.111163 S    
O27   C71   1.420494 S    
C81   H63   1.109021 S    
C67   H29   1.111102 S    
C82   H66   1.110813 S    
C54   C57   1.415435 A    
C35   C43   1.383524 A    
C22   C45   1.413494 A    
C72   H41   1.111747 S    
C69   C70   1.525708 S    
O3    C3    1.289176 A    
C85   H71   1.110893 S    
C18   C62   1.419073 A    
C32   C59   1.402356 A    
C55   C60   1.414930 A    
C52   O31   1.388488 S    
C73   H44   1.110031 S    
O4    Cu1   1.968351 S    
O7    C7    1.289179 A    
C66   C67   1.526488 S    
C19   C63   1.419265 A    
O25   C65   1.419128 S    
O16   C8    1.297006 A    
C36   C55   1.402376 A    
C12   N3    1.381838 A    
C20   N3    1.368561 A    
C19   H4    1.082416 S    
C85   H73   1.110936 S    
C22   C37   1.400169 A    
C68   C69   1.528077 S    
C11   N8    1.427895 S    
C75   H49   1.111177 S    
C78   H56   1.111018 S    
Cu4   N4    2.008965 S    
C86   C87   1.532157 S    
O32   C86   1.420527 S    
C26   C41   1.400183 A    
O31   C83   1.420500 S    
C14   H22   1.084149 S    
C83   C84   1.530524 S    
C17   H2    1.082417 S    
C71   C72   1.530514 S    
C13   H21   1.084173 S    
C71   H39   1.110666 S    
C73   H45   1.110934 S    
C37   H6    1.080478 S    
C80   H61   1.116688 S    
C27   C44   1.398800 A    
C41   H10   1.080471 S    
C23   C48   1.417969 A    
C28   C43   1.398511 A    
C34   C42   1.383702 A    
C65   C66   1.530426 S    
C11   C15   1.407554 A    
C80   H60   1.113633 S    
C43   H12   1.080157 S    
C50   C58   1.400112 A    
C30   C38   1.383682 A    
Cu2   N2    2.008965 S    
O3    Cu2   1.968350 S    
C1    C23   1.464282 S    
Cu1   N1    2.008963 S    
Cu1   Cu2   2.673839 S    
C2    C24   1.463945 S    
C75   C76   1.525732 S    
C86   H75   1.116068 S    
C34   C53   1.400539 A    
C74   H46   1.110284 S    
C9    C13   1.407559 A    
C18   H1    1.082456 S    
C53   C58   1.415452 A    
O12   C4    1.297045 A    
C16   C63   1.391696 A    
O1    Cu1   1.973984 S    
C88   H78   1.110752 S    
C74   C75   1.532153 S    
O13   C5    1.299562 A    
C48   C56   1.399488 A    
C69   H34   1.111850 S    
C48   O27   1.388488 S    
O11   Cu1   1.972809 S    
C73   H43   1.110890 S    
N7    O22   1.298167 A    
O9    Cu2   1.974683 S    
C67   H30   1.110247 S    
C35   C56   1.400928 A    
C23   C40   1.398813 A    
O9    C1    1.299554 A    
C79   H57   1.111103 S    
C6    C28   1.463950 S    
C30   H18   1.083178 S    
C10   N1    1.381825 A    
C18   N1    1.368564 A    
O28   C74   1.420553 S    
C84   H70   1.110546 S    
C17   N2    1.368693 A    
C9    N6    1.427888 S    
C31   C39   1.383530 A    
C36   H16   1.082852 S    
C28   C51   1.415185 A    
N8    O24   1.297961 A    
C30   C57   1.400532 A    
O30   C80   1.414329 S    
C75   H48   1.109755 S    
C40   H7    1.081024 S    
C70   H37   1.110047 S    
C32   H20   1.082855 S    
C65   H26   1.116473 S    
O7    Cu4   1.968350 S    
C80   C81   1.527862 S    
C63   C64   1.402907 A    
O12   Cu2   1.972812 S    
C25   C50   1.417019 A    
C87   H76   1.109802 S    
O8    Cu3   1.968351 S    
C17   C61   1.419265 A    
Cu3   Cu4   2.673839 S    
C44   H11   1.081036 S    
C69   H35   1.109196 S    
O26   C68   1.414434 S    
C12   N7    1.427968 S    
C21   C38   1.400099 A    
C29   C37   1.384940 A    
C4    C22   1.464555 S    
N7    O21   1.300377 A    
C46   O25   1.389153 S    
O15   Cu3   1.972809 S    
C21   C46   1.417029 A    
C76   H52   1.110641 S    
C68   H32   1.113674 S    
C42   H9    1.080887 S    
O1    C1    1.287020 A    
C81   C82   1.525685 S    
O2    Cu2   1.973986 S    
C33   H13   1.082862 S    
C83   H67   1.110659 S    
O14   C6    1.299309 A    
C74   H47   1.116058 S    
C66   H27   1.111024 S    
C10   N5    1.427956 S    
C8    C26   1.464536 S    
C82   H64   1.110572 S    
C52   C60   1.399492 A    
C61   C62   1.402909 A    
C87   C88   1.525721 S    
C36   C44   1.384298 A    
C9    N2    1.381677 A    
C77   H54   1.116469 S    
O10   C2    1.299347 A    
C67   H31   1.111164 S    
O16   Cu4   1.972812 S    
O15   C7    1.296767 A    
C88   H79   1.110085 S    
N6    O20   1.297964 A    
N6    O19   1.300440 A    
C47   O28   1.389434 S    
C39   H8    1.080202 S    
C72   H42   1.110545 S    
C38   H5    1.080875 S    
C5    C27   1.464282 S    
C27   C52   1.417973 A    
C82   H65   1.109895 S    
C45   O26   1.385908 S    
C15   H23   1.084173 S    
C84   H69   1.111747 S    
O4    C4    1.289727 A    
C84   C85   1.525976 S    
O5    C5    1.287010 A    
C12   C16   1.407679 A    
C76   H51   1.110094 S    
C51   O32   1.389401 S    
C35   H15   1.082685 S    
C14   C61   1.391707 A    
C34   H14   1.083167 S    
C24   C47   1.415243 A    
C85   H72   1.110030 S    
C13   C62   1.391576 A    
N5    O18   1.298171 A    
N8    O23   1.300446 A    
C15   C64   1.391562 A    
C3    C21   1.463444 S    
C83   H68   1.117700 S    
C79   H58   1.110249 S    
O5    Cu3   1.973984 S    
C77   C78   1.530436 S    
O6    C6    1.287101 A    
