data_mof_unit_28676.cif
_audit_creation_date              2012-12-10T16:45:48-0500
_audit_creation_method            fapswitch 2.2
_symmetry_space_group_name_H-M    P1
_symmetry_Int_Tables_number       1
_space_group_crystal_system       triclinic
_cell_length_a                    13.988067
_cell_length_b                    8.676187
_cell_length_c                    7.72276
_cell_angle_alpha                 102.613554
_cell_angle_beta                  93.684232
_cell_angle_gamma                 95.392127
_cell_volume                      907.11650609

loop_
_atom_site_label
_atom_site_type_symbol
_atom_type_description
_atom_site_fract_x
_atom_site_fract_y
_atom_site_fract_z
_atom_type_partial_charge
C1    C     C_R   0.496444 0.200661 0.454249 0.858756
C2    C     C_1   0.865889 0.502213 0.464893 0.030253
C3    C     C_2   0.492931 0.031883 0.429880 -0.350309
C4    C     C_2   0.507306 0.968101 0.570001 -0.352931
C5    C     C_3   0.418015 0.310502 0.942457 -0.078428
C6    C     C_3   0.322170 0.275538 0.019848 -0.378242
C7    C     C_3   0.257262 0.140435 0.893351 -0.859904
C8    C     C_3   0.583262 0.688388 0.057311 -0.095042
C9    C     C_3   0.680008 0.718797 0.980918 -0.361444
C10   C     C_3   0.747671 0.848273 0.109691 -0.805228
C11   C     C_R   0.503643 0.799337 0.545728 0.862483
C12   C     C_R   0.320118 0.502338 0.523814 0.798566
C13   C     C_R   0.679882 0.498590 0.476259 0.796096
C14   C     C_1   0.780897 0.500255 0.473308 -0.119890
C15   C     C_1   0.219221 0.504471 0.526892 -0.111321
C16   C     C_2   0.965586 0.504258 0.435566 0.243136
C17   C     C_2   0.034653 0.506500 0.564543 0.244495
C18   C     C_1   0.134324 0.505890 0.535095 0.033074
Cu1   Cu    Cu3+1 0.510540 0.517220 0.682700 0.936125
Cu2   Cu    Cu3+1 0.489460 0.482780 0.317300 0.937465
H1    H     H_    0.477573 0.959792 0.295412 0.170104
H2    H     H_    0.396276 0.317559 0.807895 0.219750
H3    H     H_    0.461712 0.209948 0.940384 0.147880
H4    H     H_    0.713384 0.960384 0.141270 0.237757
H5    H     H_    0.765905 0.810115 0.234985 0.263664
H6    H     H_    0.815509 0.870990 0.047655 0.298374
H7    H     H_    0.715828 0.607938 0.955308 0.274072
H8    H     H_    0.668852 0.759626 0.855804 0.247862
H9    H     H_    0.541197 0.790640 0.057471 0.148946
H10   H     H_    0.603556 0.682323 0.192632 0.221756
H11   H     H_    0.522775 0.040165 0.704404 0.166984
H12   H     H_    0.135671 0.406302 0.863300 0.347092
H13   H     H_    0.852314 0.391685 0.085556 0.350598
H14   H     H_    0.238933 0.173254 0.764942 0.246185
H15   H     H_    0.293925 0.030484 0.867460 0.264518
H16   H     H_    0.189299 0.116341 0.954439 0.296527
H17   H     H_    0.334436 0.238044 0.146554 0.258336
H18   H     H_    0.283745 0.383628 0.043068 0.261060
N1    N     N_2   0.473570 0.456830 0.042740 -0.097906
N2    N     N_2   0.526430 0.543170 0.957260 -0.099832
O1    O     O_R   0.506850 0.286020 0.618680 -0.606060
O2    O     O_2   0.945423 0.356577 0.780359 -0.270563
O3    O     O_3   0.114318 0.513055 0.902678 -0.440751
O4    O     O_2   0.055146 0.652030 0.219169 -0.190940
O5    O     O_2   0.039576 0.359103 0.146352 -0.275809
O6    O     O_3   0.885430 0.500132 0.098095 -0.455106
O7    O     O_R   0.493150 0.713980 0.381320 -0.603018
O8    O     O_R   0.489050 0.256940 0.310110 -0.602047
O9    O     O_R   0.510950 0.743060 0.689890 -0.599494
O10   O     O_R   0.372320 0.516630 0.676100 -0.591627
O11   O     O_R   0.627680 0.483370 0.323900 -0.596735
O12   O     O_R   0.354510 0.487550 0.367530 -0.581151
O13   O     O_R   0.645490 0.512450 0.632470 -0.584994
O14   O     O_2   0.959125 0.649388 0.852611 -0.204951
S1    S     S_3+6 0.009280 0.506054 0.780736 0.077376
S2    S     S_3+6 0.990459 0.503513 0.218923 0.074430

loop_
_geom_bond_atom_site_label_1
_geom_bond_atom_site_label_2
_ccdc_geom_bond_type
C15   C18   T    
C12   O10   A    
C16   S2    S    
C1    O8    A    
C6    C7    S    
C11   O9    A    
O2    S1    D    
C2    C16   S    
C9    C10   S    
Cu1   O9    S    
C11   O7    A    
Cu1   Cu2   S    
C5    H3    S    
C12   C15   S    
C8    H10   S    
Cu1   O13   S    
C6    H18   S    
C17   C18   S    
C6    H17   S    
Cu2   O12   S    
C13   C14   S    
C4    C11   S    
H13   O6    S    
Cu1   O10   S    
C10   H6    S    
Cu2   O8    S    
C8    H9    S    
C10   H5    S    
O3    S1    S    
O5    S2    D    
C12   O12   A    
H12   O3    S    
Cu2   O11   S    
C13   O13   A    
C5    N1    S    
C5    C6    S    
C2    C14   T    
C7    H14   S    
C3    H1    S    
C4    H11   S    
Cu1   N2    S    
O6    S2    S    
C3    C4    D    
Cu2   O7    S    
C9    H7    S    
C7    H16   S    
C1    O1    A    
N1    N2    D    
Cu2   N1    S    
C17   S1    S    
O14   S1    D    
C8    C9    S    
O4    S2    D    
C8    N2    S    
C10   H4    S    
C13   O11   A    
C7    H15   S    
C5    H2    S    
Cu1   O1    S    
C9    H8    S    
C16   C17   D    
C1    C3    S    
