data_mof_unit_26062.cif
_audit_creation_date              2012-12-10T17:18:59-0500
_audit_creation_method            fapswitch 2.2
_symmetry_space_group_name_H-M    P1
_symmetry_Int_Tables_number       1
_space_group_crystal_system       triclinic
_cell_length_a                    10.309059
_cell_length_b                    10.658039
_cell_length_c                    13.428577
_cell_angle_alpha                 93.230395
_cell_angle_beta                  100.73157
_cell_angle_gamma                 96.447699
_cell_volume                      1435.96385161

loop_
_atom_site_label
_atom_site_type_symbol
_atom_type_description
_atom_site_fract_x
_atom_site_fract_y
_atom_site_fract_z
_atom_type_partial_charge
C1    C     C_R   0.051440 0.732814 0.489487 0.884118
C2    C     C_R   0.945178 0.266574 0.503113 0.887847
C3    C     C_R   0.463809 0.541750 0.126260 -0.189212
C4    C     C_R   0.530626 0.443646 0.874652 -0.189267
C5    C     C_R   0.336409 0.577432 0.102738 0.179240
C6    C     C_R   0.659220 0.410491 0.898320 0.181478
C7    C     C_2   0.074126 0.865003 0.468525 0.027714
C8    C     C_2   0.907821 0.130840 0.493684 0.027554
C9    C     C_2   0.966502 0.925799 0.446478 -0.156326
C10   C     C_2   0.977714 0.060851 0.442579 -0.178472
C11   C     C_2   0.432499 0.512735 0.509320 0.169692
C12   C     C_2   0.567757 0.485468 0.492290 0.166784
C13   C     C_R   0.092465 0.511014 0.686215 0.928943
C14   C     C_R   0.907280 0.488393 0.313670 0.905634
C15   C     C_R   0.140187 0.518360 0.795555 -0.131841
C16   C     C_R   0.858278 0.477805 0.204246 -0.120669
C17   C     C_R   0.149963 0.620407 0.963430 0.204089
C18   C     C_R   0.847745 0.371858 0.037521 0.202584
C19   C     C_R   0.091408 0.600086 0.860365 -0.228057
C20   C     C_R   0.907987 0.395763 0.140141 -0.234887
C21   C     C_R   0.245919 0.453963 0.833594 0.109557
C22   C     C_R   0.749165 0.537719 0.165865 0.112945
C23   C     C_R   0.325632 0.497702 0.927959 0.004937
C24   C     C_R   0.669002 0.490070 0.072685 0.006293
C25   C     C_R   0.269208 0.567088 0.999907 0.007887
C26   C     C_R   0.726576 0.421922 0.001061 0.006323
C27   C     C_R   0.461262 0.478521 0.950661 0.057607
C28   C     C_R   0.532815 0.506869 0.050146 0.060496
H1    H     H_    0.992598 0.348249 0.170578 0.192448
H2    H     H_    0.008635 0.650057 0.830106 0.196589
H3    H     H_    0.509013 0.541365 0.205589 0.193078
H4    H     H_    0.485963 0.444335 0.795283 0.192619
H5    H     H_    0.053999 0.104741 0.405147 0.196684
H6    H     H_    0.866844 0.877198 0.441351 0.213077
H7    H     H_    0.672372 0.629500 0.588168 0.193275
H8    H     H_    0.327406 0.373636 0.408820 0.189589
N1    N     N_2   0.322180 0.446120 0.460900 -0.184675
N2    N     N_2   0.677820 0.553880 0.539100 -0.185743
O1    O     O_R   0.935190 0.693030 0.507870 -0.618682
O2    O     O_R   0.064810 0.306970 0.492130 -0.613768
O3    O     O_R   0.142080 0.658430 0.482770 -0.549627
O4    O     O_R   0.857920 0.341570 0.517230 -0.551143
O5    O     O_R   0.969700 0.527180 0.651960 -0.590568
O6    O     O_R   0.030300 0.472820 0.348040 -0.599177
O7    O     O_R   0.176600 0.492580 0.626860 -0.571767
O8    O     O_R   0.823400 0.507420 0.373140 -0.577384
Zn1   Zn    Zn3+2 0.861850 0.523100 0.516760 1.024500
Zn2   Zn    Zn3+2 0.138150 0.476900 0.483240 1.024838
I1    I     I_    0.257686 0.621895 0.234052 -0.257669
I2    I     I_    0.742399 0.374231 0.767807 -0.240297
I3    I     I_    0.736453 0.723634 0.231491 -0.279511
I4    I     I_    0.253796 0.268928 0.763358 -0.226250
I5    I     I_    0.062465 0.758247 0.041066 -0.217580
I6    I     I_    0.934697 0.232969 0.960626 -0.213667
I7    I     I_    0.755883 0.053256 0.568866 -0.168142
I8    I     I_    0.272285 0.953922 0.477191 -0.170081
I9    I     I_    0.575958 0.327773 0.388776 -0.259233
I10   I     I_    0.425260 0.666098 0.617133 -0.244723

loop_
_geom_bond_atom_site_label_1
_geom_bond_atom_site_label_2
_ccdc_geom_bond_type
C15   C19   A    
C11   C12   S    
C2    O2    A    
C14   C16   S    
C23   C27   A    
C11   I10   S    
C24   C28   A    
C9    C10   S    
C18   C26   A    
C13   C15   S    
C13   O5    A    
C16   C20   A    
C17   C25   A    
C7    C9    D    
C4    C27   A    
C23   C25   A    
C14   O8    A    
C6    C26   A    
C6    I2    S    
N1    Zn2   S    
C3    H3    S    
C5    I1    S    
N2    Zn1   S    
C4    H4    S    
C7    I8    S    
C2    O4    A    
C5    C25   A    
C12   I9    S    
C8    I7    S    
O1    Zn1   S    
H8    N1    S    
C17   C19   A    
O3    Zn2   S    
C24   C26   A    
C10   H5    S    
C18   C20   A    
O4    Zn1   S    
C21   C23   A    
C12   N2    D    
C9    H6    S    
C8    C10   D    
C22   C24   A    
C4    C6    A    
C18   I6    S    
C17   I5    S    
C15   C21   A    
H7    N2    S    
C13   O7    A    
C20   H1    S    
C14   O6    A    
O7    Zn2   S    
C1    O3    A    
C27   C28   A    
C11   N1    D    
C1    O1    A    
O2    Zn2   S    
C3    C28   A    
C16   C22   A    
C1    C7    S    
O8    Zn1   S    
C19   H2    S    
O5    Zn1   S    
C21   I4    S    
C2    C8    S    
O6    Zn2   S    
C22   I3    S    
C3    C5    A    
