data_mof_unit_63840.cif
_audit_creation_date              2012-12-10T20:03:58-0500
_audit_creation_method            fapswitch 2.2
_symmetry_space_group_name_H-M    P1
_symmetry_Int_Tables_number       1
_space_group_crystal_system       triclinic
_cell_length_a                    19.279345
_cell_length_b                    18.486396
_cell_length_c                    10.780268
_cell_angle_alpha                 89.999821
_cell_angle_beta                  90.681777
_cell_angle_gamma                 90.002472
_cell_volume                      3841.87594298

loop_
_atom_site_label
_atom_site_type_symbol
_atom_type_description
_atom_site_fract_x
_atom_site_fract_y
_atom_site_fract_z
_atom_type_partial_charge
C1    C     C_R   0.365571 0.500031 0.500578 0.887786
C2    C     C_R   0.964792 0.476064 0.637223 0.312749
C3    C     C_R   0.538946 0.725939 0.585645 0.006151
C4    C     C_R   0.461064 0.725949 0.414359 0.007019
C5    C     C_R   0.539577 0.801860 0.587452 -0.173730
C6    C     C_R   0.460444 0.801870 0.412572 -0.173385
C7    C     C_R   0.500012 0.841117 0.500019 0.200133
C8    C     C_R   0.437383 0.961539 0.490711 0.585024
C9    C     C_R   0.562640 0.961547 0.509355 0.585411
C10   C     C_R   0.437571 0.037524 0.490390 -0.237856
C11   C     C_R   0.562450 0.037533 0.509670 -0.238470
C12   C     C_R   0.634436 0.500037 0.501076 0.886290
C13   C     C_R   0.500010 0.076684 0.500023 -0.012337
C14   C     C_R   0.499042 0.499797 0.262342 1.030479
C15   C     C_R   0.500628 0.499794 0.737642 1.028790
C16   C     C_R   0.500012 0.922310 0.500030 -0.185972
C17   C     C_R   0.545092 0.197156 0.577752 -0.276214
C18   C     C_R   0.454889 0.197144 0.422326 -0.276529
C19   C     C_R   0.544315 0.273150 0.577017 0.490811
C20   C     C_R   0.455631 0.273137 0.423099 0.492619
C21   C     C_R   0.500008 0.157892 0.500013 0.057836
C22   C     C_2   0.494003 0.438518 0.933497 0.634249
C23   C     C_R   0.709756 0.500185 0.507983 -0.051458
C24   C     C_2   0.502117 0.438218 0.066196 0.635687
C25   C     C_2   0.506532 0.498966 0.869111 -0.579941
C26   C     C_2   0.492151 0.499070 0.130945 -0.581653
C27   C     C_R   0.746271 0.434521 0.510212 -0.142970
C28   C     C_R   0.254397 0.566082 0.511895 -0.194533
C29   C     C_R   0.818008 0.434861 0.520132 -0.066657
C30   C     C_R   0.182834 0.566274 0.521636 -0.044278
C31   C     C_R   0.853293 0.500713 0.528074 0.260145
C32   C     C_R   0.147013 0.500698 0.526443 0.259579
C33   C     C_R   0.817354 0.566278 0.525607 -0.044712
C34   C     C_R   0.290321 0.500154 0.506780 -0.051502
C35   C     C_R   0.182308 0.434820 0.520686 -0.066901
C36   C     C_R   0.745666 0.566092 0.515749 -0.194538
C37   C     C_R   0.253930 0.434473 0.511097 -0.144672
C38   C     C_R   0.963467 0.526767 0.428048 0.549747
C39   C     C_R   0.035126 0.526718 0.427604 0.551317
C40   C     C_R   0.072014 0.501174 0.531172 -0.360471
C41   C     C_R   0.928337 0.501233 0.532021 -0.362084
C42   C     C_R   0.037297 0.476071 0.636837 0.310148
Cl1   Cl    Cl    0.601453 0.318298 0.678404 -0.508322
Cl2   Cl    Cl    0.398207 0.318267 0.322216 -0.504905
Cl3   Cl    Cl    0.084333 0.446713 0.769335 -0.445022
Cl4   Cl    Cl    0.919901 0.446500 0.770006 -0.438705
F1    F     F_    0.475060 0.375227 0.877935 -0.564469
F2    F     F_    0.518885 0.374124 0.121199 -0.563231
F3    F     F_    0.375560 0.926479 0.485474 -0.638857
F4    F     F_    0.624463 0.926494 0.514599 -0.638818
F5    F     F_    0.928041 0.550437 0.326176 -0.576529
F6    F     F_    0.068814 0.550310 0.325265 -0.575583
H1    H     H_    0.570158 0.829618 0.657597 0.185181
H2    H     H_    0.281451 0.617390 0.508827 0.177234
H3    H     H_    0.846116 0.384102 0.520528 0.168771
H4    H     H_    0.155275 0.617305 0.525226 0.163034
H5    H     H_    0.844923 0.617289 0.530909 0.162301
H6    H     H_    0.154298 0.384026 0.522866 0.169769
H7    H     H_    0.718514 0.617386 0.514516 0.176475
H8    H     H_    0.280648 0.383001 0.507351 0.197785
H9    H     H_    0.569500 0.696069 0.653082 0.139533
H10   H     H_    0.430512 0.696088 0.346906 0.141377
H11   H     H_    0.429868 0.829635 0.342431 0.185727
H12   H     H_    0.388438 0.065782 0.484966 0.195687
H13   H     H_    0.611580 0.065800 0.515100 0.195531
H14   H     H_    0.580140 0.169082 0.640511 0.197304
H15   H     H_    0.419802 0.169062 0.359642 0.197258
H16   H     H_    0.524490 0.548639 0.912380 0.130212
H17   H     H_    0.475627 0.549360 0.087968 0.130767
H18   H     H_    0.719580 0.383072 0.504220 0.197704
N1    N     N_R   0.500000 0.689440 0.500000 -0.100302
N2    N     N_R   0.500000 0.310560 0.500000 -0.168447
O1    O     O_R   0.398180 0.560840 0.499970 -0.637084
O2    O     O_R   0.601820 0.560840 0.500030 -0.636061
O3    O     O_R   0.398180 0.439210 0.499910 -0.591594
O4    O     O_R   0.601820 0.439210 0.500090 -0.592839
O5    O     O_R   0.500000 0.560800 0.319070 -0.640256
O6    O     O_R   0.500000 0.560800 0.680930 -0.642171
O7    O     O_R   0.499990 0.439170 0.319010 -0.514425
O8    O     O_R   0.500010 0.439170 0.680990 -0.513954
Zn1   Zn    Zn3+2 0.500000 0.581210 0.500000 0.964873
Zn2   Zn    Zn3+2 0.500000 0.418790 0.500000 1.103944

loop_
_geom_bond_atom_site_label_1
_geom_bond_atom_site_label_2
_ccdc_geom_bond_type
C12   O2    A    
C27   C29   A    
C18   C21   A    
C36   H7    S    
C2    Cl4   S    
C12   C23   S    
C17   H14   S    
C35   H6    S    
C5    H1    S    
C35   C37   A    
C9    C16   A    
C24   C26   D    
C38   C39   A    
C15   C25   S    
C15   O6    A    
C2    C41   A    
C34   C37   A    
C4    H10   S    
C33   C36   A    
C14   O5    A    
C22   C25   D    
C31   C33   A    
C23   C27   A    
C40   C42   A    
C22   F1    S    
C28   C34   A    
C8    C16   A    
C19   N2    A    
C25   H16   S    
O1    Zn1   S    
C20   Cl2   S    
C19   Cl1   S    
C1    C34   S    
C3    H9    S    
C24   F2    S    
C32   C35   A    
C38   C41   A    
O8    Zn2   S    
O4    Zn2   S    
C39   C40   A    
C5    C7    A    
C28   H2    S    
C38   F5    S    
C29   H3    S    
C18   H15   S    
C30   H4    S    
C17   C21   A    
C42   Cl3   S    
C1    O3    A    
C6    H11   S    
C3    N1    A    
C15   O8    A    
O5    Zn1   S    
C13   C21   S    
C14   O7    A    
C14   C26   S    
C9    C11   A    
C27   H18   S    
C4    C6    A    
C7    C16   S    
C12   O4    A    
C22   C24   S    
O2    Zn1   S    
C33   H5    S    
C31   C41   S    
C10   H12   S    
C9    F4    S    
C3    C5    A    
C10   C13   A    
O7    Zn2   S    
O3    Zn2   S    
C6    C7    A    
C1    O1    A    
C28   C30   A    
C29   C31   A    
C30   C32   A    
C11   C13   A    
O6    Zn1   S    
C2    C42   A    
C17   C19   A    
C39   F6    S    
C18   C20   A    
C32   C40   S    
C37   H8    S    
C8    C10   A    
C23   C36   A    
C26   H17   S    
C20   N2    A    
C8    F3    S    
C4    N1    A    
N2    Zn2   S    
C11   H13   S    
N1    Zn1   S    
