data_mof_unit_11366.cif
_audit_creation_date              2012-12-10T18:58:44-0500
_audit_creation_method            fapswitch 2.2
_symmetry_space_group_name_H-M    P1
_symmetry_Int_Tables_number       1
_space_group_crystal_system       triclinic
_cell_length_a                    12.989644
_cell_length_b                    10.79687
_cell_length_c                    9.557413
_cell_angle_alpha                 89.758493
_cell_angle_beta                  95.784558
_cell_angle_gamma                 89.671439
_cell_volume                      1333.54039863

loop_
_atom_site_label
_atom_site_type_symbol
_atom_type_description
_atom_site_fract_x
_atom_site_fract_y
_atom_site_fract_z
_atom_type_partial_charge
C1    C     C_R   0.495172 0.262557 0.499670 0.827882
C2    C     C_R   0.025795 0.539923 0.560188 0.074873
C3    C     C_R   0.973898 0.472951 0.447078 0.127425
C4    C     C_R   0.867296 0.457577 0.439585 -0.233127
C5    C     C_R   0.860996 0.580267 0.650226 -0.191562
C6    C     C_R   0.967548 0.595270 0.659878 -0.205035
C7    C     C_R   0.517358 0.062576 0.619461 0.019523
C8    C     C_R   0.479877 0.129748 0.500290 -0.290270
C9    C     C_R   0.423531 0.066140 0.387501 0.410536
C10   C     C_R   0.423651 0.935911 0.387202 0.414228
C11   C     C_R   0.480342 0.870463 0.499438 -0.340368
C12   C     C_R   0.300691 0.501720 0.474332 0.819411
C13   C     C_R   0.517674 0.935686 0.618969 0.086560
C14   C     C_3   0.619918 0.928037 0.705828 0.238312
C15   C     C_3   0.618980 0.068841 0.707443 -0.385138
C16   C     C_R   0.549527 0.409814 0.081142 0.280464
C17   C     C_R   0.442634 0.585192 0.066065 -0.055008
C18   C     C_R   0.442416 0.584974 0.917207 -0.026653
C19   C     C_R   0.551284 0.411272 0.934050 0.191875
C20   C     C_3   0.664851 0.382817 0.947289 0.092632
C21   C     C_3   0.661495 0.377828 0.105539 0.085410
C22   C     C_R   0.495150 0.737468 0.499211 0.814371
C23   C     C_R   0.699080 0.501611 0.525924 0.801649
C24   C     C_R   0.810946 0.511021 0.540650 -0.038375
C25   C     C_R   0.187985 0.500225 0.461384 -0.081217
C26   C     C_R   0.028645 0.423641 0.341481 -0.199448
C27   C     C_R   0.134923 0.438499 0.347762 -0.273484
C28   C     C_R   0.134189 0.551536 0.568457 0.337990
Cu1   Cu    Cu3+1 0.499990 0.499980 0.640670 0.995857
Cu2   Cu    Cu3+1 0.500010 0.500020 0.359330 0.981110
H1    H     H_    0.683354 0.886443 0.650744 0.083276
H2    H     H_    0.610576 0.108468 0.812783 0.227039
H3    H     H_    0.684520 0.294142 0.897336 0.123552
H4    H     H_    0.817289 0.625994 0.725995 0.184763
H5    H     H_    0.989195 0.373408 0.254073 0.147291
H6    H     H_    0.002510 0.652592 0.743939 0.159182
H7    H     H_    0.176289 0.397738 0.266234 0.179544
N1    N     N_R   0.500660 0.500930 0.148010 -0.221817
N2    N     N_R   0.500660 0.500890 0.852110 -0.180751
O1    O     O_R   0.500000 0.319640 0.618810 -0.583872
O2    O     O_R   0.500010 0.319680 0.381230 -0.542449
O3    O     O_R   0.348990 0.499960 0.599490 -0.539156
O4    O     O_R   0.349000 0.500000 0.361910 -0.615114
O5    O     O_R   0.499990 0.680320 0.618770 -0.576651
O6    O     O_R   0.500000 0.680360 0.381190 -0.570326
O7    O     O_R   0.651000 0.500000 0.638090 -0.535192
O8    O     O_R   0.651010 0.500040 0.400510 -0.586633
H8    H     H_    0.828147 0.403921 0.355078 0.136931
H9    H     H_    0.680764 0.110871 0.650456 0.142980
H10   H     H_    0.397516 0.653953 0.115151 0.173305
H11   H     H_    0.397129 0.653595 0.854938 0.180977
O9    O     O_3   0.723012 0.483873 0.908616 -0.717713
H12   H     H_    0.796376 0.456449 0.922756 0.317120
O10   O     O_3   0.675875 0.257653 0.159968 -0.707604
H13   H     H_    0.751697 0.242772 0.169387 0.316897
H14   H     H_    0.708851 0.449401 0.164708 0.153040
O11   O     O_3   0.189093 0.614339 0.677099 -0.730580
H15   H     H_    0.161234 0.590757 0.766066 0.314967
O12   O     O_3   0.367221 0.126632 0.277189 -0.655505
H16   H     H_    0.344006 0.207770 0.310724 0.313478
O13   O     O_3   0.367084 0.877219 0.277036 -0.666909
H17   H     H_    0.343817 0.796257 0.310798 0.315448
O14   O     O_3   0.610374 0.877978 0.839428 -0.669822
H18   H     H_    0.620625 0.787312 0.830866 0.349879

loop_
_geom_bond_atom_site_label_1
_geom_bond_atom_site_label_2
_ccdc_geom_bond_type
C17   H10   S    
C21   H14   S    
C12   O3    A    
C18   N2    A    
Cu2   O2    S    
C16   C21   S    
Cu1   O3    S    
C25   C27   A    
C1    C8    S    
C9    C10   A    
C12   C25   S    
C11   C22   S    
C19   C20   S    
Cu1   O7    S    
C23   C24   S    
C5    H4    S    
Cu1   N2    S    
C7    C15   S    
C2    C3    A    
C26   C27   A    
O12   H16   S    
C20   O9    S    
C23   O7    A    
C2    C6    A    
C13   C14   S    
C20   C21   S    
C25   C28   A    
C11   C13   A    
O11   H15   S    
Cu1   Cu2   S    
C5    C24   A    
C19   N2    A    
C27   H7    S    
C16   C19   A    
C5    C6    A    
Cu1   O1    S    
C1    O2    A    
C6    H6    S    
C18   H11   S    
C17   C18   A    
C12   O4    A    
C17   N1    A    
C15   H9    S    
Cu1   O5    S    
O13   H17   S    
C4    C24   A    
Cu2   O4    S    
C10   O13   S    
C23   O8    A    
C10   C11   A    
C14   O14   S    
C3    C4    A    
C26   H5    S    
C7    C13   A    
C22   O6    A    
O9    H12   S    
Cu2   N1    S    
C21   O10   S    
C7    C8    A    
C4    H8    S    
O10   H13   S    
C14   H1    S    
C14   C15   S    
C2    C28   A    
Cu2   O6    S    
C1    O1    A    
C9    O12   S    
C28   O11   S    
Cu2   O8    S    
C3    C26   A    
C22   O5    A    
O14   H18   S    
C16   N1    A    
C8    C9    A    
C20   H3    S    
C15   H2    S    
