data_mof_unit_26195.cif
_audit_creation_date              2012-12-10T19:00:00-0500
_audit_creation_method            fapswitch 2.2
_symmetry_space_group_name_H-M    P1
_symmetry_Int_Tables_number       1
_space_group_crystal_system       triclinic
_cell_length_a                    10.781092
_cell_length_b                    10.597291
_cell_length_c                    9.967051
_cell_angle_alpha                 89.189174
_cell_angle_beta                  90.522596
_cell_angle_gamma                 92.611406
_cell_volume                      1137.40183873

loop_
_atom_site_label
_atom_site_type_symbol
_atom_type_description
_atom_site_fract_x
_atom_site_fract_y
_atom_site_fract_z
_atom_type_partial_charge
C1    C     C_R   0.496712 0.260576 0.500902 0.876003
C2    C     C_R   0.400740 0.057599 0.433329 0.484542
C3    C     C_R   0.506868 0.872206 0.496536 -0.244422
C4    C     C_R   0.493652 0.127841 0.503531 -0.238560
C5    C     C_R   0.551650 0.600130 0.070532 -0.123092
C6    C     C_R   0.449687 0.399167 0.930314 -0.118342
C7    C     C_R   0.552593 0.599648 0.927463 0.505424
C8    C     C_R   0.446597 0.400906 0.073043 0.511650
C9    C     C_R   0.259793 0.495497 0.498693 0.881702
C10   C     C_R   0.739728 0.495333 0.500447 0.881934
C11   C     C_R   0.189504 0.753051 0.142045 -0.207695
C12   C     C_R   0.503525 0.739429 0.499117 0.894020
C13   C     C_R   0.860500 0.602272 0.967190 -0.275646
C14   C     C_R   0.133867 0.692315 0.253117 0.465485
C15   C     C_R   0.863696 0.519703 0.858512 0.554310
C16   C     C_R   0.109874 0.559179 0.252145 -0.006683
C17   C     C_R   0.910591 0.566053 0.733814 0.011763
C18   C     C_R   0.140327 0.491959 0.137543 -0.225835
C19   C     C_R   0.946396 0.694747 0.720785 -0.240523
C20   C     C_R   0.190536 0.555166 0.025127 -0.102989
C21   C     C_R   0.940645 0.775815 0.828996 -0.022151
C22   C     C_R   0.215866 0.685991 0.026769 -0.083730
C23   C     C_R   0.871475 0.477485 0.500191 -0.142074
C24   C     C_R   0.899786 0.729728 0.953861 -0.032580
C25   C     C_R   0.932472 0.456935 0.377390 -0.113179
C26   C     C_R   0.062778 0.449385 0.613684 -0.005855
C27   C     C_2   0.267541 0.754748 0.908443 0.444832
C28   C     C_2   0.898669 0.813240 0.071305 0.528110
C29   C     C_2   0.873314 0.388532 0.262250 0.483920
C30   C     C_2   0.106839 0.350003 0.705245 0.422960
C31   C     C_2   0.613043 0.707120 0.141229 0.516956
C32   C     C_2   0.390057 0.290459 0.861458 0.598016
C33   C     C_R   0.126100 0.479838 0.494565 -0.174818
C34   C     C_R   0.940791 0.482759 0.620950 -0.028238
C35   C     C_R   0.058505 0.490718 0.372885 -0.080170
C36   C     C_R   0.590662 0.071148 0.571208 -0.135994
C37   C     C_R   0.410106 0.928976 0.428660 -0.145705
C38   C     C_R   0.599788 0.942421 0.566794 0.491156
H1    H     H_    0.207867 0.854420 0.144174 0.202344
H2    H     H_    0.875795 0.774132 0.169628 0.026835
H3    H     H_    0.651463 0.663565 0.781772 0.361405
H4    H     H_    0.345959 0.340553 0.219496 0.361124
H5    H     H_    0.041242 0.720257 0.414839 0.324966
H6    H     H_    0.817330 0.351952 0.792044 0.361649
H7    H     H_    0.910080 0.400039 0.162244 0.098839
H8    H     H_    0.168158 0.281485 0.666242 0.037404
H9    H     H_    0.711889 0.804795 0.593122 0.310987
H10   H     H_    0.288241 0.194998 0.407349 0.307679
H11   H     H_    0.669517 0.690174 0.229314 0.052138
H12   H     H_    0.824454 0.567677 0.062122 0.109990
H13   H     H_    0.342278 0.305167 0.768656 0.047293
H14   H     H_    0.125786 0.390240 0.135294 0.201540
H15   H     H_    0.983143 0.732191 0.627413 0.175691
H16   H     H_    0.211628 0.501715 0.937458 0.198736
H17   H     H_    0.971283 0.873900 0.815676 0.198322
H18   H     H_    0.662026 0.127717 0.623082 0.190448
H19   H     H_    0.339130 0.872509 0.376427 0.212014
H20   H     H_    0.292543 0.854909 0.914492 0.124249
N1    N     N_R   0.499970 0.499970 0.857200 -0.203730
N2    N     N_R   0.500030 0.500030 0.142800 -0.213262
O1    O     O_R   0.499990 0.316750 0.614620 -0.659239
O2    O     O_2   0.924442 0.926298 0.060277 -0.498577
O3    O     O_3   0.612831 0.698807 0.861411 -0.677558
O4    O     O_3   0.382177 0.304280 0.139109 -0.669145
O5    O     O_3   0.103193 0.767061 0.358828 -0.763853
O6    O     O_3   0.820128 0.396421 0.878759 -0.717242
O7    O     O_2   0.788582 0.309764 0.279925 -0.490830
O8    O     O_2   0.069721 0.338157 0.820156 -0.558658
O9    O     O_3   0.701163 0.890384 0.628429 -0.718942
O10   O     O_3   0.299240 0.109542 0.371801 -0.700954
O11   O     O_2   0.601695 0.815562 0.101535 -0.490128
O12   O     O_R   0.500010 0.683250 0.385380 -0.645224
O13   O     O_2   0.393803 0.183400 0.907851 -0.493686
O14   O     O_R   0.499990 0.316780 0.385290 -0.553157
O15   O     O_R   0.500010 0.683220 0.614710 -0.550574
O16   O     O_R   0.316760 0.500000 0.614660 -0.604886
O17   O     O_R   0.683240 0.500000 0.385340 -0.612627
O18   O     O_R   0.316760 0.500020 0.385330 -0.642066
O19   O     O_R   0.683240 0.499980 0.614670 -0.660716
O20   O     O_2   0.281416 0.701164 0.802440 -0.539113
Zn1   Zn    Zn3+2 0.500000 0.499980 0.653120 0.978325
Zn2   Zn    Zn3+2 0.500000 0.500020 0.346880 0.977682

loop_
_geom_bond_atom_site_label_1
_geom_bond_atom_site_label_2
_ccdc_geom_bond_type
C6    C32   S    
C4    C36   A    
H6    O6    S    
C18   H14   S    
C1    O14   A    
C19   C21   A    
C31   H11   S    
C16   C35   S    
C11   C14   A    
C28   H2    S    
H9    O9    S    
C3    C12   S    
C17   C19   A    
C29   O7    D    
N2    Zn2   S    
C26   C34   A    
C3    C38   A    
C9    O16   A    
C19   H15   S    
C31   O11   D    
C12   O12   A    
C38   O9    S    
C9    C33   S    
O14   Zn2   S    
C7    N1    A    
C10   O17   A    
C25   C29   S    
C25   C35   A    
N1    Zn1   S    
C20   H16   S    
C27   O20   D    
C32   O13   D    
O19   Zn1   S    
O15   Zn1   S    
C6    C8    A    
C15   O6    S    
C13   C24   A    
C29   H7    S    
C2    C4    A    
C32   H13   S    
C36   H18   S    
O18   Zn2   S    
C26   C33   A    
H5    O5    S    
C23   C34   A    
C11   H1    S    
C7    O3    S    
C8    O4    S    
C20   C22   A    
C26   C30   S    
C22   C27   S    
C13   C15   A    
C14   C16   A    
C12   O15   A    
C17   C34   S    
H3    O3    S    
H4    O4    S    
C5    C7    A    
C15   C17   A    
C21   H17   S    
C5    N2    A    
C6    N1    A    
C30   H8    S    
C24   C28   S    
H10   O10   S    
C27   H20   S    
C1    O1    A    
O16   Zn1   S    
C10   O19   A    
C37   H19   S    
C10   C23   S    
C11   C22   A    
C1    C4    S    
C36   C38   A    
O1    Zn1   S    
C8    N2    A    
C2    C37   A    
O17   Zn2   S    
C33   C35   A    
C14   O5    S    
C18   C20   A    
C9    O18   A    
C23   C25   A    
C30   O8    D    
C13   H12   S    
C3    C37   A    
C16   C18   A    
C21   C24   A    
C2    O10   S    
O12   Zn2   S    
C5    C31   S    
C28   O2    D    
