data_mof_unit_60454.cif
_audit_creation_date              2012-12-11T19:58:10-0500
_audit_creation_method            fapswitch 2.2
_symmetry_space_group_name_H-M    P1
_symmetry_Int_Tables_number       1
_space_group_crystal_system       triclinic
_cell_length_a                    8.270766
_cell_length_b                    16.337818
_cell_length_c                    22.916181
_cell_angle_alpha                 108.446962
_cell_angle_beta                  88.564753
_cell_angle_gamma                 84.359304
_cell_volume                      2918.06754618

loop_
_atom_site_label
_atom_site_type_symbol
_atom_type_description
_atom_site_fract_x
_atom_site_fract_y
_atom_site_fract_z
_atom_type_partial_charge
Ba1   Ba    Ba6+2 0.335320 0.541410 0.478120 1.739783
Ba2   Ba    Ba6+2 0.854470 0.458670 0.521900 1.759624
C1    C     C_3   0.081609 0.852933 0.364657 0.178490
C2    C     C_3   0.075693 0.766162 0.375896 0.306055
C3    C     C_3   0.059649 0.329303 0.325404 0.272170
C4    C     C_3   0.054967 0.303997 0.255680 -0.315689
C5    C     C_3   0.638634 0.259203 0.654288 0.321734
C6    C     C_3   0.670486 0.232618 0.711247 -0.336969
C7    C     C_3   0.120520 0.230034 0.627184 0.302061
C8    C     C_3   0.117234 0.147069 0.643714 -0.285672
C9    C     C_R   0.836825 0.518784 0.334590 -0.306955
C10   C     C_R   0.680173 0.519369 0.929205 -0.024809
C11   C     C_R   0.641269 0.509674 0.867568 0.660583
C12   C     C_3   0.568532 0.724512 0.345426 0.317694
C13   C     C_R   0.383365 0.464522 0.886422 0.620026
C14   C     C_R   0.431312 0.459933 0.944436 -0.089042
C15   C     C_R   0.577751 0.490509 0.966738 -0.054135
C16   C     C_R   0.819887 0.556670 0.954186 -0.028894
C17   C     C_R   0.853171 0.567452 0.015686 -0.049499
C18   C     C_R   0.755275 0.534902 0.052604 0.003109
C19   C     C_R   0.621635 0.492810 0.026980 -0.097991
C20   C     C_R   0.334163 0.427188 0.981315 -0.078899
C21   C     C_R   0.384678 0.421267 0.038069 0.415587
C22   C     C_R   0.531551 0.453624 0.061555 -0.076998
C23   C     C_3   0.568534 0.749355 0.286884 -0.351368
C24   C     C_R   0.594495 0.446226 0.117284 0.654128
C25   C     C_R   0.784971 0.546157 0.115152 0.613386
C26   C     C_2   0.356216 0.418798 0.750019 -0.175470
C27   C     C_3   0.317123 0.410471 0.684161 -0.045029
C28   C     C_1   0.482883 0.528922 0.692076 -0.034570
C29   C     C_2   0.502334 0.543724 0.752133 0.344105
C30   C     C_2   0.447184 0.480871 0.783329 0.178489
C31   C     C_R   0.907286 0.531432 0.234888 -0.076740
C32   C     C_R   0.939690 0.544912 0.297006 -0.024028
C33   C     C_R   0.700584 0.479727 0.311696 0.014277
C34   C     C_3   0.613391 0.725012 0.627726 0.356453
C35   C     C_R   0.655150 0.476330 0.252024 -0.116844
C36   C     C_R   0.757939 0.501731 0.210928 0.178633
C37   C     C_2   0.370690 0.482360 0.663749 -0.246420
C38   C     C_2   0.385546 0.240845 0.492563 0.078299
C39   C     C_R   0.807061 0.750506 0.510042 -0.361685
C40   C     C_2   0.265693 0.122050 0.417725 -0.140385
C41   C     C_2   0.263020 0.207587 0.447370 0.005280
C42   C     C_2   0.504164 0.186660 0.503958 -0.040690
C43   C     C_3   0.473685 0.092737 0.488915 -0.086699
C44   C     C_3   0.396637 0.057344 0.427182 0.116636
C45   C     C_3   0.612930 0.822399 0.659449 0.286057
C46   C     C_2   0.611067 0.031411 0.496513 -0.081953
C47   C     C_2   0.576325 0.964332 0.514124 -0.046845
C48   C     C_R   0.837621 0.927621 0.554800 0.118097
C49   C     C_R   0.703632 0.899301 0.521179 -0.074437
C50   C     C_R   0.953039 0.868830 0.567925 0.322844
C51   C     C_R   0.937024 0.779308 0.546144 0.003294
C52   C     C_R   0.685845 0.810074 0.500102 -0.010240
C53   C     C_3   0.589834 0.275114 0.373292 0.299508
C54   C     C_3   0.626108 0.177095 0.345264 -0.382131
C55   C     C_3   0.129684 0.659007 0.670516 0.301654
C56   C     C_3   0.107245 0.680434 0.740005 -0.264090
H1    H     H_    0.161375 0.762554 0.411656 0.121813
H2    H     H_    0.714889 0.834533 0.690607 0.080191
H3    H     H_    0.627812 0.855801 0.624997 -0.053861
H4    H     H_    0.462481 0.291963 0.391959 0.017738
H5    H     H_    0.672215 0.297241 0.411090 0.094714
H6    H     H_    0.534933 0.151412 0.311366 0.129076
H7    H     H_    0.622292 0.146156 0.381759 0.056847
H8    H     H_    0.749737 0.160237 0.321781 0.139936
H9    H     H_    0.261338 0.650034 0.657269 0.006836
H10   H     H_    0.073360 0.598504 0.648719 0.043335
H11   H     H_    0.160834 0.624973 0.753940 0.079017
H12   H     H_    0.975509 0.693293 0.754494 0.155705
H13   H     H_    0.950012 0.762352 0.392365 -0.034221
H14   H     H_    0.982540 0.862843 0.334923 0.064712
H15   H     H_    0.932765 0.344638 0.345675 0.007614
H16   H     H_    0.125877 0.387596 0.341925 0.050617
H17   H     H_    0.990940 0.357723 0.242498 0.074317
H18   H     H_    0.180832 0.289537 0.234223 0.158525
H19   H     H_    0.200365 0.853877 0.341321 0.106326
H20   H     H_    0.642695 0.698039 0.249437 0.108384
H21   H     H_    0.660446 0.328362 0.664668 0.052713
H22   H     H_    0.510015 0.251274 0.643716 -0.034522
H23   H     H_    0.796031 0.243446 0.725330 0.160823
H24   H     H_    0.583886 0.271874 0.749997 0.070708
H25   H     H_    0.654675 0.162903 0.701470 0.138857
H26   H     H_    0.250302 0.237878 0.619472 -0.056247
H27   H     H_    0.059654 0.222418 0.583425 0.104515
H28   H     H_    0.990287 0.132753 0.648663 0.165227
H29   H     H_    0.514204 0.662334 0.335904 0.071626
H30   H     H_    0.219334 0.404248 0.965546 0.155214
H31   H     H_    0.958757 0.599155 0.033752 0.127063
H32   H     H_    0.001592 0.544042 0.206677 0.170986
H33   H     H_    0.901069 0.580260 0.926874 0.150193
H34   H     H_    0.538884 0.454124 0.239584 0.172110
H35   H     H_    0.867346 0.525329 0.381378 0.075137
H36   H     H_    0.309980 0.497569 0.626533 0.101844
H37   H     H_    0.182736 0.099106 0.381636 0.112601
H38   H     H_    0.793374 0.681887 0.493796 0.084937
H39   H     H_    0.735526 0.038087 0.484334 0.162990
H40   H     H_    0.449779 0.956483 0.522271 0.155191
H41   H     H_    0.442242 0.756395 0.272358 0.134805
H42   H     H_    0.621332 0.811671 0.294953 0.127991
H43   H     H_    0.734768 0.697437 0.605079 -0.124392
H44   H     H_    0.520431 0.713856 0.592894 0.043712
N1    N     N_R   0.490603 0.485507 0.846611 -0.416177
N2    N     N_R   0.712439 0.497872 0.147379 -0.424755
O1    O     O_2   0.414630 0.451750 0.353890 -0.452211
O2    O     O_3   0.055003 0.728218 0.653924 -0.585137
O3    O     O_3   0.475739 0.790235 0.392764 -0.593001
O4    O     O_2   0.775060 0.548280 0.646150 -0.451724
O5    O     O_3   0.534950 0.547420 0.574950 -0.479248
O6    O     O_3   0.073530 0.388570 0.588510 -0.430586
O7    O     O_3   0.579102 0.687268 0.672613 -0.568527
O8    O     O_3   0.168220 0.394330 0.455930 -0.408989
O9    O     O_3   0.678190 0.343400 0.553390 -0.420390
O10   O     O_2   0.840113 0.188855 0.492692 -0.470148
O11   O     O_3   0.743459 0.205985 0.604981 -0.599063
O12   O     O_3   0.654720 0.452660 0.425060 -0.492280
O13   O     O_3   0.021450 0.605740 0.544090 -0.499071
O14   O     O_2   0.953100 0.285520 0.441860 -0.465496
O15   O     O_3   0.139473 0.259456 0.340305 -0.643806
O16   O     O_2   0.976556 0.471487 0.705907 -0.436466
O17   O     O_3   0.039524 0.300963 0.674720 -0.588278
O18   O     O_2   0.743205 0.521602 0.832521 -0.527245
O19   O     O_2   0.244812 0.451110 0.872106 -0.579266
O20   O     O_2   0.549646 0.390397 0.136696 -0.524965
O21   O     O_2   0.872027 0.601194 0.140756 -0.599499
O22   O     O_3   0.116150 0.611500 0.411510 -0.505127
O23   O     O_2   0.275411 0.545845 0.300236 -0.474375
O24   O     O_3   0.613423 0.312544 0.327115 -0.626251
O25   O     O_3   0.121958 0.699100 0.320532 -0.625899
O26   O     O_2   0.236590 0.714510 0.558180 -0.424827
O27   O     O_3   0.511480 0.656670 0.446630 -0.505084
O28   O     O_2   0.346074 0.810145 0.502321 -0.420334
P1    P     P_3+3 0.594550 0.425840 0.359090 1.009484
P2    P     P_3+3 0.065650 0.701630 0.573510 1.074664
P3    P     P_3+3 0.503732 0.768170 0.461947 0.978009
P4    P     P_3+3 0.595130 0.574230 0.640920 1.077905
P5    P     P_3+3 0.691565 0.230425 0.538401 1.001785
P6    P     P_3+3 0.114396 0.598690 0.332311 0.958059
P7    P     P_3+3 0.134456 0.285303 0.420506 1.003747
P8    P     P_3+3 0.099819 0.396005 0.665504 1.031859
Cl1   Cl    Cl    0.425819 0.867916 0.703280 -0.519491
Cl2   Cl    Cl    0.059383 0.939948 0.435532 -0.745864
H45   H     H_    0.168135 0.738684 0.763569 0.186980
H46   H     H_    0.989463 0.245684 0.237981 0.137327
H47   H     H_    0.184175 0.091893 0.606663 0.133915
H48   H     H_    0.176744 0.153767 0.687644 0.134647
Cl3   Cl    Cl    0.249624 0.380587 0.080138 -0.618369
Cl4   Cl    Cl    0.521842 0.651103 0.798346 -0.599663
H49   H     H_    0.321499 0.368260 0.767460 0.135739
H50   H     H_    0.697017 0.715349 0.357469 -0.048950
Cl5   Cl    Cl    0.106916 0.911784 0.615944 -0.583249
Cl6   Cl    Cl    0.378512 0.352868 0.527645 -0.704891

loop_
_geom_bond_atom_site_label_1
_geom_bond_atom_site_label_2
_ccdc_geom_bond_type
C53   C54   S    
Ba2   O5    S    
C42   P5    S    
C53   O24   S    
C6    H25   S    
C17   C18   A    
C33   P1    S    
Ba2   O14   S    
C5    C6    S    
C43   C44   S    
C42   C43   S    
C46   H39   S    
Ba2   O8    S    
C13   O19   D    
C3    O15   S    
C6    H24   S    
C16   H33   S    
O17   P8    S    
C5    H21   S    
C26   C27   S    
C33   C35   A    
C22   C24   A    
C12   H29   S    
O4    P4    D    
O27   P3    S    
O28   P3    D    
Ba1   O8    S    
C28   C29   D    
Ba2   O9    S    
O7    P4    S    
C39   H38   S    
C13   C14   A    
C53   H4    S    
C25   N2    Am   
Ba2   O6    S    
C38   Cl6   S    
C34   C45   S    
C34   H44   S    
Ba1   Ba2   S    
C40   C44   S    
O10   P5    D    
C5    O11   S    
C3    H16   S    
O3    P3    S    
Ba1   O5    S    
C47   H40   S    
Ba2   O12   S    
C56   H45   S    
C23   H41   S    
C38   C41   S    
C8    H28   S    
O25   P6    S    
O11   P5    S    
C14   C15   A    
C47   C49   S    
C53   H5    S    
C10   C15   A    
C7    O17   S    
C21   C22   A    
C54   H6    S    
C41   P7    S    
O16   P8    D    
O23   P6    D    
C20   H30   S    
C11   N1    Am   
C7    C8    S    
C24   N2    Am   
C9    H35   S    
C55   O2    S    
C45   H2    S    
C26   H49   S    
O5    P4    S    
O8    P7    S    
C27   C37   S    
O26   P2    D    
C1    Cl2   S    
C24   O20   D    
C55   H9    S    
Ba1   P1    S    
O13   P2    S    
Ba2   O4    S    
Ba2   O13   S    
C48   C49   A    
C6    H23   S    
C26   C30   D    
Ba1   O22   S    
Ba1   O26   S    
C16   C17   A    
O12   P1    S    
C7    H26   S    
C21   Cl3   S    
C32   P6    S    
Ba2   P4    S    
C23   H20   S    
C34   H43   S    
C37   H36   S    
C35   C36   A    
C17   H31   S    
C23   H42   S    
C48   C50   A    
C29   C30   S    
C38   C42   D    
C12   H50   S    
C34   O7    S    
C31   C32   A    
C30   N1    S    
Ba1   O13   S    
C18   C19   A    
C39   C51   A    
C8    H48   S    
C29   Cl4   S    
C46   C47   D    
Ba1   O12   S    
C40   H37   S    
C28   P4    S    
O9    P5    S    
C7    H27   S    
C40   C41   D    
C55   H10   S    
C4    H46   S    
C1    C2    S    
C1    H19   S    
C12   O3    S    
Ba1   P2    S    
C50   C51   A    
O1    P1    D    
C43   C46   S    
C27   P8    S    
O22   P6    S    
O14   P7    D    
C14   C20   A    
C35   H34   S    
C9    C32   A    
C56   H12   S    
C51   P2    S    
Ba1   O27   S    
C45   H3    S    
C36   N2    S    
C56   H11   S    
C4    H18   S    
C2    O25   S    
C18   C25   A    
C45   Cl1   S    
C31   C36   A    
C49   C52   A    
O15   P7    S    
O6    P8    S    
C1    H14   S    
O24   P1    S    
C11   O18   D    
C25   O21   D    
C55   C56   S    
C3    C4    S    
C50   Cl5   S    
C54   H8    S    
C52   P3    S    
C2    H1    S    
C9    C33   A    
C28   C37   D    
C12   C23   S    
C3    H15   S    
C15   C19   A    
C39   C52   A    
C8    H47   S    
O2    P2    S    
C10   C11   A    
C19   C22   A    
C10   C16   A    
C20   C21   A    
C13   N1    Am   
C31   H32   S    
C2    H13   S    
C54   H7    S    
Ba1   O1    S    
C5    H22   S    
C4    H17   S    
