data_mof_unit_55774.cif
_audit_creation_date              2012-12-10T17:15:55-0500
_audit_creation_method            fapswitch 2.2
_symmetry_space_group_name_H-M    P1
_symmetry_Int_Tables_number       1
_space_group_crystal_system       triclinic
_cell_length_a                    10.099797
_cell_length_b                    10.605017
_cell_length_c                    10.649711
_cell_angle_alpha                 89.875171
_cell_angle_beta                  96.077402
_cell_angle_gamma                 83.060907
_cell_volume                      1125.82612093

loop_
_atom_site_label
_atom_site_type_symbol
_atom_type_description
_atom_site_fract_x
_atom_site_fract_y
_atom_site_fract_z
_atom_type_partial_charge
C1    C     C_R   0.443462 0.513944 0.266433 0.905967
C2    C     C_2   0.495118 0.569206 0.933606 -0.192994
C3    C     C_2   0.076144 0.491746 0.476885 -0.135662
C4    C     C_R   0.497287 0.261007 0.497306 0.872680
C5    C     C_2   0.927104 0.532859 0.454300 0.076672
C6    C     C_R   0.557103 0.495480 0.734145 0.885757
C7    C     C_R   0.501559 0.739292 0.498504 0.865239
C8    C     C_R   0.527999 0.128883 0.262778 -0.179267
C9    C     C_R   0.546173 0.061102 0.152532 -0.140104
C10   C     C_R   0.550303 0.929460 0.153608 -0.152684
C11   C     C_R   0.537262 0.865169 0.265153 -0.195381
C12   C     C_R   0.514089 0.064877 0.376512 0.093200
C13   C     C_R   0.519553 0.932317 0.377812 0.096799
C14   C     C_3   0.876365 0.670662 0.421548 -0.322837
C15   C     C_3   0.974396 0.740597 0.353999 -0.400052
C16   C     C_3   0.907123 0.868858 0.300193 -0.872204
C17   C     C_3   0.727616 0.450099 0.932093 -0.404160
C18   C     C_3   0.717311 0.324850 0.000967 -0.325311
C19   C     C_3   0.852076 0.270663 0.070554 -0.882303
C20   C     C_R   0.491476 0.129555 0.489223 -0.098559
C21   C     C_R   0.470917 0.067669 0.599299 -0.214485
C22   C     C_R   0.476929 0.938203 0.600677 -0.214747
C23   C     C_R   0.503019 0.871559 0.491887 -0.096725
C24   C     C_2   0.411638 0.540121 0.132656 -0.383750
C25   C     C_2   0.508893 0.574359 0.069125 -0.178313
C26   C     C_2   0.591329 0.508120 0.869568 -0.081377
H1    H     H_    0.453653 0.119588 0.684884 0.142842
H2    H     H_    0.784386 0.672158 0.354316 0.236191
H3    H     H_    0.852524 0.721849 0.508810 0.201393
H4    H     H_    0.117852 0.412825 0.422887 0.159556
H5    H     H_    0.886122 0.356086 0.465375 0.163896
H6    H     H_    0.114911 0.626689 0.600290 0.165757
H7    H     H_    0.522648 0.231241 0.257533 0.136092
H8    H     H_    0.563671 0.876959 0.067870 0.138303
H9    H     H_    0.462092 0.889483 0.686841 0.141828
H10   H     H_    0.397633 0.607105 0.886306 0.175000
H11   H     H_    0.605831 0.589830 0.117119 0.183388
H12   H     H_    0.313886 0.525571 0.085643 0.156253
H13   H     H_    0.928601 0.252169 0.003077 0.260044
H14   H     H_    0.886228 0.338137 0.143183 0.260812
H15   H     H_    0.841417 0.179781 0.118330 0.254452
H16   H     H_    0.642966 0.339339 0.070807 0.242688
H17   H     H_    0.683474 0.254512 0.931145 0.206722
H18   H     H_    0.798974 0.430186 0.859993 0.210768
H19   H     H_    0.771465 0.518867 0.997916 0.198373
H20   H     H_    0.555759 0.110850 0.065778 0.129460
H21   H     H_    0.540111 0.763249 0.262161 0.137499
H22   H     H_    0.827398 0.854624 0.223400 0.265848
H23   H     H_    0.862701 0.927240 0.375259 0.273164
H24   H     H_    0.982496 0.920874 0.260317 0.254037
H25   H     H_    0.061920 0.758177 0.420860 0.241199
H26   H     H_    0.011080 0.682118 0.275286 0.231889
N1    N     N_2   0.157290 0.551390 0.551110 -0.202487
N2    N     N_2   0.842740 0.448550 0.448960 -0.214426
O1    O     O_R   0.568950 0.489660 0.307530 -0.615166
O2    O     O_R   0.348880 0.522640 0.340350 -0.606796
O3    O     O_R   0.610060 0.300270 0.483590 -0.611040
O4    O     O_R   0.389990 0.333260 0.516410 -0.609065
O5    O     O_R   0.651120 0.477360 0.659650 -0.606287
O6    O     O_R   0.431050 0.510340 0.692470 -0.612629
O7    O     O_R   0.610010 0.666740 0.483590 -0.642490
O8    O     O_R   0.389940 0.699730 0.516410 -0.607871
Zn1   Zn    Zn3+2 0.646940 0.477980 0.478090 0.912775
Zn2   Zn    Zn3+2 0.353060 0.522020 0.521910 0.922631

loop_
_geom_bond_atom_site_label_1
_geom_bond_atom_site_label_2
_ccdc_geom_bond_type
C4    O3    A    
C15   C16   S    
C3    H4    S    
C24   H12   S    
C24   C25   D    
O2    Zn2   S    
C7    O8    A    
C14   H2    S    
C15   H25   S    
C11   C13   A    
C9    C10   A    
H6    N1    S    
C11   H21   S    
O6    Zn2   S    
C8    C12   A    
C10   C11   A    
C12   C20   A    
C17   C18   S    
C21   H1    S    
C17   H18   S    
C9    H20   S    
C2    C26   D    
C15   H26   S    
C20   C21   A    
C18   H17   S    
C22   H9    S    
C3    N1    D    
C16   H22   S    
C5    C14   S    
C6    C26   S    
C19   H13   S    
C7    C23   S    
C17   C26   S    
C1    O2    A    
C17   H19   S    
O3    Zn1   S    
C2    C25   S    
C8    H7    S    
C18   H16   S    
H5    N2    S    
O4    Zn2   S    
N1    Zn2   S    
C1    O1    A    
C19   H14   S    
C14   H3    S    
C2    H10   S    
C16   H23   S    
C4    C20   S    
C6    O6    A    
C5    N2    D    
C12   C13   A    
C13   C23   A    
C1    C24   S    
C10   H8    S    
C18   C19   S    
N2    Zn1   S    
C4    O4    A    
O7    Zn1   S    
C14   C15   S    
C7    O7    A    
O8    Zn2   S    
C25   H11   S    
C21   C22   A    
O5    Zn1   S    
C6    O5    A    
C22   C23   A    
C19   H15   S    
C16   H24   S    
C8    C9    A    
C3    C5    S    
O1    Zn1   S    
