data_mof_unit_48171.cif
_audit_creation_date              2012-12-10T17:59:18-0500
_audit_creation_method            fapswitch 2.2
_symmetry_space_group_name_H-M    P1
_symmetry_Int_Tables_number       1
_space_group_crystal_system       triclinic
_cell_length_a                    10.829346
_cell_length_b                    9.50252
_cell_length_c                    10.780979
_cell_angle_alpha                 90.242143
_cell_angle_beta                  90.264817
_cell_angle_gamma                 89.988607
_cell_volume                      1109.40647938

loop_
_atom_site_label
_atom_site_type_symbol
_atom_type_description
_atom_site_fract_x
_atom_site_fract_y
_atom_site_fract_z
_atom_type_partial_charge
C1    C     C_R   0.262049 0.500008 0.500349 0.786886
C2    C     C_R   0.423326 0.925163 0.422589 -0.015384
C3    C     C_R   0.576872 0.925913 0.577268 -0.016847
C4    C     C_R   0.576652 0.074842 0.577534 0.023409
C5    C     C_R   0.499919 0.500113 0.259915 0.787042
C6    C     C_R   0.737976 0.499996 0.500575 0.789110
C7    C     C_R   0.499304 0.500935 0.740333 0.718675
C8    C     C_3   0.513902 0.655225 0.075751 -0.297110
C9    C     C_3   0.373672 0.443436 0.073541 -0.407637
C10   C     C_3   0.502018 0.663191 0.932106 0.003276
C11   C     C_3   0.376236 0.424673 0.929243 -0.040406
C12   C     C_3   0.612574 0.425288 0.929042 -0.416239
C13   C     C_3   0.606817 0.412995 0.071355 -0.381563
C14   C     C_3   0.498436 0.501994 0.122444 0.019964
C15   C     C_3   0.495869 0.504659 0.878890 -0.116785
C16   C     C_2   0.389129 0.750379 0.893460 0.370161
C17   C     C_2   0.256739 0.481028 0.872409 0.514017
C18   C     C_2   0.614361 0.744063 0.885018 0.302293
C19   C     C_2   0.381669 0.266754 0.900033 0.418043
C20   C     C_R   0.063936 0.372115 0.501492 -0.142409
C21   C     C_R   0.063888 0.627906 0.502190 -0.163783
C22   C     C_R   0.936206 0.372106 0.501545 -0.167448
C23   C     C_R   0.936157 0.627902 0.502274 -0.166553
C24   C     C_R   0.871819 0.499998 0.501517 -0.030230
C25   C     C_R   0.128252 0.500014 0.501383 -0.029341
C26   C     C_R   0.423395 0.074130 0.422520 -0.003541
Cu1   Cu    Cu3+1 0.500020 0.640660 0.500000 0.937363
Cu2   Cu    Cu3+1 0.500020 0.359340 0.500000 0.971565
H1    H     H_    0.606029 0.693484 0.108124 0.177539
H2    H     H_    0.111939 0.727885 0.502473 0.155794
H3    H     H_    0.888171 0.272118 0.501320 0.152152
H4    H     H_    0.888082 0.727886 0.502657 0.153081
H5    H     H_    0.362079 0.130129 0.360469 0.120166
H6    H     H_    0.361948 0.868607 0.360594 0.129613
H7    H     H_    0.638874 0.870014 0.638522 0.132954
H8    H     H_    0.638038 0.131374 0.639540 0.125620
H9    H     H_    0.382978 0.792780 0.800349 0.116737
H10   H     H_    0.257815 0.537529 0.785214 0.028199
H11   H     H_    0.679710 0.696123 0.821723 0.087294
H12   H     H_    0.351619 0.342255 0.120381 0.154897
H13   H     H_    0.442501 0.198744 0.953029 0.085899
H14   H     H_    0.446764 0.726154 0.122300 0.207052
H15   H     H_    0.299526 0.517848 0.102268 0.209746
H16   H     H_    0.695812 0.449330 0.112485 0.175048
H17   H     H_    0.594822 0.300756 0.097693 0.190031
H18   H     H_    0.698970 0.480198 0.902882 0.173460
H19   H     H_    0.621173 0.318480 0.887496 0.187195
H20   H     H_    0.112021 0.272137 0.501215 0.160517
N1    N     N_R   0.500030 0.852070 0.500030 -0.170867
N2    N     N_R   0.500030 0.147930 0.500030 -0.161027
O1    O     O_R   0.319660 0.618740 0.499990 -0.592895
O2    O     O_2   0.156909 0.455623 0.919709 -0.521597
O3    O     O_2   0.632450 0.865755 0.917551 -0.557295
O4    O     O_2   0.318680 0.213518 0.817917 -0.516545
O5    O     O_R   0.319660 0.381260 0.499990 -0.572574
O6    O     O_R   0.499990 0.618790 0.317690 -0.591729
O7    O     O_R   0.499990 0.381210 0.317690 -0.586401
O8    O     O_R   0.680370 0.618830 0.500010 -0.588799
O9    O     O_R   0.680370 0.381170 0.500010 -0.591052
O10   O     O_R   0.500030 0.618780 0.682310 -0.624371
O11   O     O_R   0.500030 0.381220 0.682310 -0.544644
O12   O     O_2   0.304102 0.775225 0.964407 -0.549724

loop_
_geom_bond_atom_site_label_1
_geom_bond_atom_site_label_2
_ccdc_geom_bond_type
C1    C25   S    
C9    C14   S    
C4    H8    S    
C2    N1    A    
C5    O7    A    
C9    C11   S    
C21   H2    S    
C6    O8    A    
C5    O6    A    
C12   C15   S    
C3    H7    S    
C16   H9    S    
C17   H10   S    
C6    C24   S    
C23   H4    S    
C2    H6    S    
C21   C23   A    
C1    O5    A    
C2    C26   A    
C10   C16   S    
Cu2   O7    S    
Cu2   O11   S    
C13   H17   S    
C1    O1    A    
C11   C19   S    
C5    C14   S    
C20   H20   S    
C16   O12   D    
C10   C18   S    
C12   H19   S    
C8    H1    S    
C17   O2    D    
C12   H18   S    
Cu2   O5    S    
C8    H14   S    
C11   C15   S    
Cu1   O10   S    
C26   N2    A    
C13   H16   S    
C3    N1    A    
C22   C24   A    
C9    H15   S    
C20   C25   A    
C20   C22   A    
C23   C24   A    
C3    C4    A    
Cu1   N1    S    
C7    O10   A    
C12   C13   S    
C19   O4    D    
C8    C10   S    
C22   H3    S    
Cu2   O9    S    
C4    N2    A    
Cu1   Cu2   S    
C18   H11   S    
C21   C25   A    
Cu1   O6    S    
C11   C17   S    
C8    C14   S    
C7    C15   S    
C26   H5    S    
C18   O3    D    
C10   C15   S    
C13   C14   S    
Cu2   N2    S    
C6    O9    A    
C9    H12   S    
C7    O11   A    
C19   H13   S    
Cu1   O1    S    
Cu1   O8    S    
