data_mof_unit_51546.cif
_audit_creation_date              2012-12-10T20:36:34-0500
_audit_creation_method            fapswitch 2.2
_symmetry_space_group_name_H-M    P1
_symmetry_Int_Tables_number       1
_space_group_crystal_system       triclinic
_cell_length_a                    10.510189
_cell_length_b                    10.701675
_cell_length_c                    9.888026
_cell_angle_alpha                 89.204044
_cell_angle_beta                  91.247909
_cell_angle_gamma                 90.461827
_cell_volume                      1111.76725876

loop_
_atom_site_label
_atom_site_type_symbol
_atom_type_description
_atom_site_fract_x
_atom_site_fract_y
_atom_site_fract_z
_atom_type_partial_charge
C1    C     C_R   0.504338 0.259913 0.500681 0.874398
C2    C     C_3   0.955276 0.600465 0.426252 -0.290453
C3    C     C_3   0.032557 0.491106 0.373641 0.565802
C4    C     C_3   0.122098 0.500846 0.496127 -0.038675
C5    C     C_R   0.532741 0.061396 0.622587 0.096227
C6    C     C_R   0.525448 0.128499 0.501106 -0.089880
C7    C     C_R   0.543041 0.066572 0.378460 -0.229281
C8    C     C_R   0.542667 0.937214 0.377354 -0.238191
C9    C     C_R   0.524434 0.871165 0.498820 -0.100881
C10   C     C_R   0.530759 0.933826 0.621100 0.102759
C11   C     C_3   0.449762 0.924062 0.743703 -0.074089
C12   C     C_R   0.257276 0.499885 0.498506 0.883064
C13   C     C_3   0.452703 0.066013 0.745529 -0.553953
C14   C     C_R   0.393908 0.464385 0.069516 0.272600
C15   C     C_R   0.600882 0.545632 0.073441 -0.156581
C16   C     C_R   0.601126 0.545159 0.929688 -0.147196
C17   C     C_R   0.393118 0.466131 0.926996 0.234799
C18   C     C_3   0.328102 0.342364 0.921410 -0.556856
C19   C     C_3   0.331758 0.339047 0.074784 -0.497996
C20   C     C_R   0.504155 0.739863 0.499240 0.889120
C21   C     C_R   0.742485 0.501796 0.501518 0.878864
C22   C     C_3   0.043154 0.404772 0.575200 -0.225535
C23   C     C_3   0.953076 0.393766 0.450198 -0.274074
C24   C     C_3   0.877210 0.503154 0.504327 -0.032798
C25   C     C_3   0.964154 0.513608 0.629862 -0.103101
C26   C     C_3   0.045718 0.609730 0.551303 -0.224943
H1    H     H_    0.911114 0.306312 0.408890 0.138479
H2    H     H_    0.499022 0.878411 0.831753 0.164906
H3    H     H_    0.358873 0.110544 0.724817 0.199872
H4    H     H_    0.507860 0.102207 0.833958 0.190408
H5    H     H_    0.683077 0.581099 0.128626 0.138577
H6    H     H_    0.683741 0.579685 0.877144 0.143775
H7    H     H_    0.230634 0.348520 0.876304 0.207604
H8    H     H_    0.389165 0.271483 0.876878 0.220370
H9    H     H_    0.236497 0.341513 0.120168 0.257487
H10   H     H_    0.395762 0.265846 0.118157 0.203760
H11   H     H_    0.083134 0.325786 0.636003 0.143714
H12   H     H_    0.930092 0.525339 0.733987 0.140344
H13   H     H_    0.088060 0.696938 0.592773 0.151656
H14   H     H_    0.914861 0.679941 0.366594 0.131857
H15   H     H_    0.548001 0.116841 0.282850 0.167646
H16   H     H_    0.547506 0.890115 0.281349 0.171377
N1    N     N_R   0.499140 0.499140 0.142800 -0.113764
N2    N     N_R   0.499140 0.499180 0.857150 -0.106367
O1    O     O_R   0.500020 0.316790 0.614690 -0.615181
O2    O     O_R   0.500000 0.316760 0.385350 -0.628189
O3    O     O_R   0.313960 0.499990 0.614650 -0.618534
O4    O     O_R   0.313940 0.499950 0.385310 -0.584953
O5    O     O_R   0.500000 0.683240 0.614650 -0.603859
O6    O     O_R   0.499980 0.683210 0.385310 -0.628258
O7    O     O_R   0.686060 0.500050 0.614690 -0.631297
O8    O     O_R   0.686040 0.500010 0.385350 -0.644305
Zn1   Zn    Zn3+2 0.500010 0.500020 0.653130 0.946001
Zn2   Zn    Zn3+2 0.499990 0.499980 0.346870 0.946913
O9    O     O_3   0.071483 0.477219 0.239070 -0.620108
C27   C     C_3   0.963448 0.485851 0.151720 0.097951
H17   H     H_    0.934219 0.585128 0.139917 0.138520
H18   H     H_    0.881442 0.429513 0.189188 0.149633
C28   C     C_3   0.994728 0.436746 0.013218 -0.885691
H19   H     H_    0.026024 0.338086 0.021799 0.255118
H20   H     H_    0.907924 0.440007 0.947457 0.208126
H21   H     H_    0.070698 0.494941 0.967089 0.260187
N3    N     N_3   0.322835 0.871701 0.714881 -0.432444
H22   H     H_    0.266883 0.887038 0.799093 0.187078
H23   H     H_    0.279819 0.918782 0.632618 0.188440

loop_
_geom_bond_atom_site_label_1
_geom_bond_atom_site_label_2
_ccdc_geom_bond_type
C8    C9    A    
C4    C26   S    
C23   C24   S    
N3    H23   S    
C15   H5    S    
C6    C7    A    
C23   H1    S    
C25   H12   S    
C16   H6    S    
C20   O5    A    
C4    C22   S    
C9    C10   A    
C16   N2    A    
N1    Zn2   S    
C5    C13   S    
C27   C28   S    
O3    Zn1   S    
C12   O4    A    
O2    Zn2   S    
O9    C27   S    
C7    H15   S    
C17   C18   S    
C17   N2    A    
C15   N1    A    
C28   H19   S    
C2    C26   S    
C19   H9    S    
C27   H17   S    
O4    Zn2   S    
C11   C13   S    
C14   C17   A    
C1    O1    A    
O6    Zn2   S    
C3    O9    S    
C11   H2    S    
C12   O3    A    
O5    Zn1   S    
N2    Zn1   S    
C13   H3    S    
C27   H18   S    
C8    H16   S    
C2    C3    S    
C11   N3    S    
C19   H10   S    
C18   H8    S    
C2    C24   S    
C5    C6    A    
C1    O2    A    
C18   H7    S    
C26   H13   S    
C28   H20   S    
C4    C12   S    
C10   C11   S    
O1    Zn1   S    
C15   C16   A    
C2    H14   S    
C13   H4    S    
C21   O7    A    
C24   C25   S    
C7    C8    A    
C21   C24   S    
C1    C6    S    
C22   C23   S    
C18   C19   S    
C28   H21   S    
C20   O6    A    
C9    C20   S    
C5    C10   A    
C25   C26   S    
C22   H11   S    
C3    C23   S    
C14   C19   S    
C21   O8    A    
C3    C4    S    
N3    H22   S    
O8    Zn2   S    
C14   N1    A    
O7    Zn1   S    
C22   C25   S    
