data_mof_unit_15507.cif
_audit_creation_date              2012-12-11T17:07:32-0500
_audit_creation_method            fapswitch 2.2
_symmetry_space_group_name_H-M    P1
_symmetry_Int_Tables_number       1
_space_group_crystal_system       triclinic
_cell_length_a                    6.965498
_cell_length_b                    14.511099
_cell_length_c                    16.07856
_cell_angle_alpha                 89.949696
_cell_angle_beta                  89.974968
_cell_angle_gamma                 89.985895
_cell_volume                      1625.172278

loop_
_atom_site_label
_atom_site_type_symbol
_atom_type_description
_atom_site_fract_x
_atom_site_fract_y
_atom_site_fract_z
_atom_type_partial_charge
O1    O     O_R   0.505720 0.583900 0.413310 -0.530602
O2    O     O_R   0.175940 0.594920 0.586080 -0.547014
O3    O     O_R   0.005640 0.416100 0.586690 -0.536589
C1    C     C_R   0.344622 0.616827 0.614909 0.693072
O4    O     O_R   0.176000 0.594930 0.413930 -0.541941
O5    O     O_R   0.005700 0.416110 0.413310 -0.545784
C2    C     C_R   0.344377 0.614897 0.383647 0.710786
O6    O     O_R   0.505660 0.583890 0.586690 -0.539134
O7    O     O_3   0.339200 0.441330 0.500000 -0.365255
V1    V     V_3+5 0.064350 0.510880 0.500000 1.410793
O8    O     O_R   0.675980 0.405080 0.413920 -0.524414
C3    C     C_R   0.844957 0.383443 0.384894 0.714360
O9    O     O_R   0.675920 0.405070 0.586070 -0.540854
C4    C     C_R   0.844723 0.383360 0.614706 0.686965
V2    V     V_3+5 0.564340 0.489120 0.500000 1.444281
O10   O     O_3   0.839360 0.558670 0.500000 -0.375669
H1    H     H_    0.638879 0.078463 0.517181 0.108409
C5    C     C_R   0.971263 0.436007 0.779439 -0.188917
C6    C     C_R   0.033613 0.463878 0.857770 -0.221660
C7    C     C_R   0.045731 0.400248 0.923123 0.408530
C8    C     C_R   0.994872 0.308565 0.908966 -0.138428
C9    C     C_R   0.932923 0.278170 0.829735 -0.006019
C10   C     C_R   0.920790 0.343240 0.763600 0.073396
C11   C     C_R   0.879082 0.185055 0.816334 -0.164495
C12   C     C_R   0.812141 0.157327 0.736790 0.074344
C13   C     C_R   0.800868 0.222352 0.670535 0.068468
C14   C     C_R   0.855097 0.315361 0.683895 -0.165853
C15   C     C_R   0.759089 0.064760 0.721184 -0.144774
C16   C     C_R   0.696294 0.037095 0.642840 -0.125888
C17   C     C_R   0.686369 0.100417 0.578131 -0.122152
C18   C     C_R   0.738619 0.191914 0.591348 -0.138110
H2    H     H_    0.961510 0.488406 0.731781 0.115557
H3    H     H_    0.071155 0.535487 0.867533 0.112430
H4    H     H_    0.003095 0.261860 0.961329 0.120326
H5    H     H_    0.766596 0.012585 0.769039 0.105890
H6    H     H_    0.656384 0.965974 0.632169 0.115664
H7    H     H_    0.730877 0.238036 0.538578 0.098337
C19   C     C_R   0.722475 0.185699 0.238623 0.032526
C20   C     C_R   0.881184 0.182965 0.185031 -0.099336
C21   C     C_R   0.032996 0.244412 0.201126 -0.150916
H8    H     H_    0.156058 0.246290 0.160268 0.158804
C22   C     C_R   0.021165 0.308717 0.266483 -0.163587
H9    H     H_    0.134305 0.358546 0.274218 0.189888
C23   C     C_R   0.858105 0.313653 0.317811 -0.109893
C24   C     C_R   0.710631 0.250397 0.302959 0.017380
C25   C     C_3   0.504961 0.270026 0.283501 0.194972
C26   C     C_3   0.516535 0.197239 0.215656 -0.443696
H10   H     H_    0.497599 0.224160 0.151378 0.184911
H11   H     H_    0.431207 0.134488 0.230059 0.143518
C27   C     C_R   0.511259 0.745776 0.690651 0.098309
C28   C     C_R   0.352795 0.687307 0.681535 -0.104158
C29   C     C_R   0.199643 0.698755 0.737742 -0.178207
H12   H     H_    0.075466 0.654586 0.733637 0.129460
C30   C     C_R   0.211509 0.762524 0.803615 -0.182211
H13   H     H_    0.094920 0.766412 0.847859 0.129839
C31   C     C_R   0.377556 0.816309 0.815596 -0.101904
C32   C     C_R   0.523630 0.808608 0.756112 0.096512
C33   C     C_3   0.731491 0.788792 0.768656 -0.422182
C34   C     C_3   0.718013 0.721140 0.696989 -0.398377
H14   H     H_    0.759586 0.754980 0.829519 0.174077
H15   H     H_    0.823730 0.849179 0.754406 0.169934
H16   H     H_    0.739478 0.648206 0.716165 0.168061
H17   H     H_    0.800557 0.743110 0.641201 0.172200
C35   C     C_R   0.491722 0.751619 0.313914 0.037563
C36   C     C_R   0.351790 0.682163 0.314162 -0.193110
C37   C     C_R   0.212631 0.683763 0.248907 0.348250
C38   C     C_R   0.222817 0.752138 0.186511 -0.178913
H18   H     H_    0.117633 0.751267 0.136888 0.140401
C39   C     C_R   0.376189 0.815302 0.183159 -0.170209
C40   C     C_R   0.504995 0.815523 0.249750 0.084658
C41   C     C_3   0.719002 0.814282 0.250858 -0.381722
C42   C     C_3   0.704833 0.744776 0.321498 -0.348224
H19   H     H_    0.780378 0.881520 0.270517 0.156684
H20   H     H_    0.781136 0.784909 0.192968 0.190422
H21   H     H_    0.757560 0.772092 0.381880 0.157151
H22   H     H_    0.758905 0.675202 0.304915 0.220800
O11   O     O_R   0.229140 0.916090 0.913340 -0.540603
O12   O     O_R   0.558860 0.905090 0.086080 -0.539145
O13   O     O_R   0.729100 0.083920 0.086690 -0.534310
C43   C     C_R   0.389816 0.882945 0.114585 0.713083
O14   O     O_R   0.558860 0.905090 0.913930 -0.542326
O15   O     O_R   0.729100 0.083920 0.913310 -0.534590
C44   C     C_R   0.389925 0.882743 0.885445 0.695914
O16   O     O_R   0.229140 0.916080 0.086720 -0.542417
O17   O     O_3   0.395570 0.058660 0.000020 -0.365653
V3    V     V_3+5 0.670450 0.989140 0.000000 1.408077
O18   O     O_R   0.058810 0.094980 0.913910 -0.537291
C45   C     C_R   0.889911 0.116865 0.885409 0.695834
O19   O     O_R   0.058810 0.094980 0.086060 -0.547061
C46   C     C_R   0.889918 0.117157 0.114641 0.695897
V4    V     V_3+5 0.170450 0.010950 0.999970 1.409784
O20   O     O_3   0.895460 0.941370 0.999990 -0.374954
O21   O     O_3   0.476924 0.360106 0.252752 -0.642652
H23   H     H_    0.567452 0.371198 0.206019 0.314182
H24   H     H_    0.406302 0.252246 0.335422 0.112624
O22   O     O_3   0.073543 0.616841 0.239655 -0.652301
H25   H     H_    0.114206 0.560309 0.269205 0.292424
O23   O     O_3   0.105260 0.425488 0.001697 -0.643402
H26   H     H_    0.135557 0.492275 0.001623 0.291157

loop_
_geom_bond_atom_site_label_1
_geom_bond_atom_site_label_2
_ccdc_geom_bond_type
O18   C45   A    
O21   H23   S    
O18   V4    S    
C6    C7    A    
C42   H22   S    
O17   V4    S    
C26   H11   S    
O17   V3    S    
C29   H12   S    
C12   C15   A    
C16   H6    S    
C13   C14   A    
C27   C34   S    
C37   O22   S    
C15   C16   A    
O5    C3    A    
C17   C18   A    
O12   C43   A    
O11   C44   A    
C33   H14   S    
V2    O10   S    
C31   C32   A    
C5    C6    A    
C1    O6    A    
C19   C24   A    
C30   H13   S    
O8    V2    S    
C25   H24   S    
C15   H5    S    
O13   C46   A    
C40   C41   S    
O1    V2    S    
O16   V4    S    
C10   C14   A    
C4    C14   S    
O19   V4    S    
O7    V1    S    
C20   C46   S    
O14   V3    S    
C43   O16   A    
O12   V3    S    
C33   H15   S    
C21   C22   A    
C37   C38   A    
C13   C18   A    
O9    C4    A    
H1    C17   S    
C22   C23   A    
C42   H21   S    
O14   C44   A    
C29   C30   A    
C30   C31   A    
C1    C28   S    
C5    C10   A    
C11   C12   A    
C6    H3    S    
C20   C21   A    
C41   H19   S    
C8    H4    S    
C33   C34   S    
C24   C25   S    
C38   H18   S    
C38   C39   A    
O2    C1    A    
C16   C17   A    
C2    C36   S    
C26   H10   S    
O22   H25   S    
C27   C28   A    
C7    O23   S    
C11   C45   S    
C19   C26   S    
O3    C4    A    
C21   H8    S    
C36   C37   A    
O6    V2    S    
C35   C40   A    
O9    V2    S    
C9    C11   A    
C5    H2    S    
C22   H9    S    
O2    V1    S    
V4    O20   S    
C23   C24   A    
C31   C44   S    
O4    C2    A    
C25   C26   S    
O11   V4    S    
C34   H16   S    
O1    C2    A    
C27   C32   A    
O5    V1    S    
C41   H20   S    
O8    C3    A    
C34   H17   S    
C35   C36   A    
C12   C13   A    
C28   C29   A    
C3    C23   S    
O3    V1    S    
V3    O20   S    
O15   V3    S    
C32   C33   S    
C19   C20   A    
C25   O21   S    
O15   C45   A    
C35   C42   S    
O7    V2    S    
C39   C40   A    
C18   H7    S    
O4    V1    S    
C41   C42   S    
C7    C8    A    
O23   H26   S    
C9    C10   A    
C39   C43   S    
V1    O10   S    
O19   C46   A    
C8    C9    A    
O13   V3    S    
