data_mof_unit_49298.cif
_audit_creation_date              2012-10-26T21:33:25-0400
_audit_creation_method            fapswitch 2.2
_symmetry_space_group_name_H-M    P1
_symmetry_Int_Tables_number       1
_space_group_crystal_system       triclinic
_cell_length_a                    28.228067
_cell_length_b                    18.422296
_cell_length_c                    17.056641
_cell_angle_alpha                 90.153159
_cell_angle_beta                  60.87127
_cell_angle_gamma                 90.634389
_cell_volume                      7747.59012397

loop_
_atom_site_label
_atom_site_type_symbol
_atom_type_description
_atom_site_fract_x
_atom_site_fract_y
_atom_site_fract_z
_atom_type_partial_charge
C1    C     C_R   0.702026 0.269070 0.675701 0.895434
C2    C     C_R   0.092911 0.501230 0.518839 0.034504
C3    C     C_R   0.187019 0.224460 0.907703 0.075592
C4    C     C_R   0.074131 0.099782 0.933871 0.913446
C5    C     C_R   0.926249 0.899840 0.065715 0.913344
C6    C     C_R   0.925846 0.099415 0.066243 0.910241
C7    C     C_R   0.074127 0.900542 0.933777 0.910054
C8    C     C_R   0.573751 0.600160 0.934285 0.913344
C9    C     C_R   0.425869 0.400218 0.066129 0.913446
C10   C     C_R   0.425873 0.599458 0.066223 0.910054
C11   C     C_R   0.574154 0.400585 0.933757 0.910241
C12   C     C_R   0.521248 0.125470 0.583547 0.063051
C13   C     C_R   0.407089 0.998770 0.481162 0.034505
C14   C     C_R   0.468260 0.872344 0.453465 0.061582
C15   C     C_R   0.428291 0.120746 0.560523 0.060878
C16   C     C_R   0.543363 0.868340 0.518360 0.055782
C17   C     C_R   0.031739 0.627655 0.546537 0.061582
C18   C     C_R   0.978752 0.374530 0.416452 0.063051
C19   C     C_R   0.956636 0.631660 0.481643 0.055781
C20   C     C_R   0.071710 0.379255 0.439475 0.060878
C21   C     C_R   0.486153 0.185186 0.607306 -0.204341
C22   C     C_R   0.493837 0.807035 0.453360 -0.201014
C23   C     C_R   0.439750 0.182116 0.597955 -0.203722
C24   C     C_R   0.582162 0.998824 0.554109 0.035042
C25   C     C_R   0.528833 0.804448 0.489558 -0.200360
C26   C     C_R   0.006162 0.692964 0.546644 -0.201014
C27   C     C_R   0.013848 0.314815 0.392691 -0.204341
C28   C     C_R   0.971165 0.695551 0.510446 -0.200359
C29   C     C_R   0.060252 0.317886 0.402041 -0.203723
C30   C     C_R   0.463919 0.061979 0.532775 0.027717
C31   C     C_R   0.521501 0.934624 0.512256 0.028205
C32   C     C_R   0.508808 0.063033 0.548389 0.031321
C33   C     C_R   0.480796 0.935636 0.486818 0.029661
C34   C     C_R   0.978499 0.565375 0.487746 0.028205
C35   C     C_R   0.120336 0.385676 0.442748 -0.039273
C36   C     C_R   0.036082 0.438021 0.467225 0.027717
C37   C     C_R   0.019204 0.564363 0.513183 0.029661
C38   C     C_R   0.991192 0.436967 0.451610 0.031321
C39   C     C_R   0.962439 0.500939 0.461979 -0.056145
C40   C     C_R   0.048509 0.500725 0.502015 -0.055552
C41   C     C_R   0.451491 0.999274 0.497986 -0.055552
C42   C     C_R   0.537561 0.999061 0.538022 -0.056145
C43   C     C_R   0.897792 0.435411 0.429938 0.018381
C44   C     C_R   0.106237 0.564308 0.552084 0.021352
C45   C     C_R   0.126682 0.440268 0.495747 0.006627
C46   C     C_R   0.922253 0.632498 0.443737 -0.040938
C47   C     C_R   0.894132 0.567611 0.443882 0.009289
C48   C     C_R   0.393763 0.935691 0.447916 0.021352
C49   C     C_R   0.602208 0.064589 0.570062 0.018380
C50   C     C_R   0.605868 0.932388 0.556119 0.009289
C51   C     C_R   0.373317 0.059732 0.504253 0.006627
C52   C     C_R   0.844716 0.435298 0.438225 -0.114590
C53   C     C_R   0.156279 0.564768 0.555096 -0.115627
C54   C     C_R   0.167610 0.438493 0.521967 -0.104057
C55   C     C_R   0.843266 0.565823 0.444049 -0.111265
C56   C     C_R   0.343720 0.935232 0.444904 -0.115626
C57   C     C_R   0.932751 0.374350 0.403299 -0.047734
C58   C     C_R   0.655284 0.064702 0.561775 -0.114590
C59   C     C_R   0.656734 0.934177 0.555951 -0.111265
C60   C     C_R   0.332390 0.061507 0.478034 -0.104058
C61   C     C_R   0.820356 0.500326 0.439679 -0.293910
C62   C     C_R   0.181180 0.500327 0.552267 -0.295789
C63   C     C_R   0.318820 0.999673 0.447733 -0.295789
C64   C     C_R   0.679645 0.999674 0.560321 -0.293909
C65   C     C_1   0.168276 0.358779 0.366215 0.186935
C66   C     C_1   0.929701 0.691498 0.382321 0.204236
C67   C     C_1   0.928494 0.319361 0.345975 0.179834
C68   C     C_R   0.070866 0.624743 0.575632 -0.045485
C69   C     C_1   0.069177 0.678350 0.639410 0.180892
C70   C     C_1   0.570299 0.808503 0.617682 0.204234
C71   C     C_1   0.331725 0.141225 0.633782 0.186939
C72   C     C_1   0.430822 0.821648 0.360592 0.180893
C73   C     C_1   0.571506 0.180639 0.654025 0.179834
C74   C     C_R   0.577746 0.867502 0.556265 -0.040938
C75   C     C_R   0.379665 0.114325 0.557251 -0.039276
C76   C     C_R   0.429134 0.875256 0.424369 -0.045486
C77   C     C_R   0.298012 0.731002 0.324280 0.892699
C78   C     C_R   0.567250 0.125650 0.596700 -0.047734
C79   C     C_R   0.720623 0.266380 0.954099 0.114600
C80   C     C_R   0.279359 0.733597 0.045931 0.114700
C81   C     C_R   0.280703 0.259864 0.045457 0.112668
C82   C     C_R   0.720477 0.736897 0.953545 0.113201
C83   C     C_R   0.220641 0.766403 0.954069 0.114700
C84   C     C_R   0.779377 0.233620 0.045901 0.114600
C85   C     C_R   0.779523 0.763103 0.046455 0.113201
C86   C     C_R   0.219297 0.240138 0.954544 0.112668
C87   C     C_R   0.744105 0.197854 0.945538 -0.177122
C88   C     C_R   0.299422 0.265921 0.323532 0.904481
C89   C     C_R   0.255895 0.802135 0.054471 -0.176216
C90   C     C_R   0.223631 0.257751 0.093248 -0.169795
C91   C     C_R   0.777476 0.734696 0.908163 -0.177277
C92   C     C_R   0.244105 0.697864 0.945529 -0.176216
C93   C     C_R   0.755895 0.302145 0.054462 -0.177123
C94   C     C_R   0.722524 0.765304 0.091837 -0.177277
C95   C     C_R   0.276369 0.242250 0.906753 -0.169796
C96   C     C_R   0.772940 0.181667 0.990870 -0.174415
C97   C     C_R   0.227079 0.818346 0.009110 -0.172533
C98   C     C_R   0.193437 0.248163 0.048511 -0.185040
C99   C     C_R   0.701609 0.731774 0.675957 0.896404
C100  C     C_R   0.806583 0.747620 0.953992 -0.179475
C101  C     C_R   0.272921 0.681654 0.990890 -0.172533
C102  C     C_R   0.727060 0.318333 0.009130 -0.174414
C103  C     C_R   0.693417 0.752380 0.046008 -0.179475
C104  C     C_R   0.306562 0.251838 0.951489 -0.185041
C105  C     C_R   0.643628 0.327518 0.945908 -0.201534
C106  C     C_R   0.356366 0.672472 0.054116 -0.199035
C107  C     C_R   0.357564 0.323119 0.053371 -0.202382
C108  C     C_R   0.642877 0.675523 0.946531 -0.203205
C109  C     C_R   0.143634 0.827527 0.945884 -0.199035
C110  C     C_R   0.201988 0.768998 0.675720 0.892699
C111  C     C_R   0.856372 0.172482 0.054092 -0.201534
C112  C     C_R   0.857122 0.824477 0.053469 -0.203205
C113  C     C_R   0.142436 0.176882 0.946629 -0.202382
C114  C     C_R   0.616813 0.347951 0.897936 -0.071821
C115  C     C_R   0.383255 0.652169 0.102018 -0.070244
C116  C     C_R   0.384483 0.344832 0.100980 -0.066395
C117  C     C_R   0.615786 0.654441 0.898996 -0.069363
C118  C     C_R   0.116745 0.847831 0.897982 -0.070244
C119  C     C_R   0.883187 0.152049 0.102064 -0.071821
C120  C     C_R   0.884214 0.845559 0.101004 -0.069363
C121  C     C_R   0.797974 0.230930 0.324299 0.895434
C122  C     C_R   0.115517 0.155168 0.899020 -0.066395
C123  C     C_R   0.633734 0.323146 0.812569 -0.243888
C124  C     C_R   0.366445 0.677191 0.187287 -0.246271
C125  C     C_R   0.368676 0.318802 0.185581 -0.262199
C126  C     C_R   0.632319 0.679503 0.813834 -0.253023
C127  C     C_R   0.133555 0.822809 0.812713 -0.246271
C128  C     C_R   0.866266 0.176854 0.187431 -0.243888
C129  C     C_R   0.867681 0.820497 0.186166 -0.253024
C130  C     C_R   0.131324 0.181198 0.814419 -0.262199
C131  C     C_R   0.679725 0.282162 0.770791 -0.050796
C132  C     C_R   0.798390 0.768226 0.324043 0.896404
C133  C     C_R   0.320345 0.717971 0.229163 -0.051613
C134  C     C_R   0.323416 0.275356 0.227167 -0.047311
C135  C     C_R   0.679021 0.720007 0.771141 -0.053151
C136  C     C_R   0.179655 0.782029 0.770837 -0.051613
C137  C     C_R   0.820275 0.217838 0.229209 -0.050795
C138  C     C_R   0.820979 0.779993 0.228859 -0.053151
C139  C     C_R   0.176583 0.224645 0.772833 -0.047312
C140  C     C_R   0.707538 0.260904 0.817306 -0.200575
C141  C     C_R   0.292457 0.739083 0.182711 -0.199411
C142  C     C_R   0.296872 0.250084 0.179516 -0.168763
C143  C     C_R   0.200578 0.234079 0.676468 0.904481
C144  C     C_R   0.707323 0.741998 0.816979 -0.199058
C145  C     C_R   0.207542 0.760917 0.817289 -0.199411
C146  C     C_R   0.792462 0.239096 0.182694 -0.200575
C147  C     C_R   0.792677 0.758002 0.183021 -0.199058
C148  C     C_R   0.203127 0.249917 0.820484 -0.168764
C149  C     C_R   0.690729 0.129539 0.536921 0.896396
C150  C     C_R   0.309353 0.870297 0.463257 0.898961
C151  C     C_R   0.304160 0.127468 0.479973 0.909879
C152  C     C_R   0.691561 0.870729 0.534090 0.901129
C153  C     C_R   0.190647 0.629703 0.536743 0.898961
C154  C     C_R   0.917838 0.501175 0.445892 0.035042
C155  C     C_R   0.809271 0.370461 0.463079 0.896396
C156  C     C_R   0.808439 0.629271 0.465910 0.901129
C157  C     C_R   0.195840 0.372532 0.520027 0.909879
C158  C     C_R   0.689740 0.283873 0.905819 0.073523
C159  C     C_R   0.310249 0.716107 0.094205 0.073282
C160  C     C_R   0.312980 0.275541 0.092297 0.075593
C161  C     C_R   0.689240 0.719757 0.905796 0.073492
C162  C     C_R   0.189751 0.783893 0.905795 0.073281
C163  C     C_R   0.810260 0.216127 0.094180 0.073523
C164  C     C_R   0.810760 0.780243 0.094203 0.073492
H1    H     H_    0.086997 0.271613 0.380822 0.143249
H2    H     H_    0.215226 0.499835 0.565119 0.190136
H3    H     H_    0.284774 0.000165 0.434881 0.190136
H4    H     H_    0.719407 0.000208 0.555416 0.194532
H5    H     H_    0.710563 0.372207 0.016078 0.132820
H6    H     H_    0.289405 0.627772 0.983952 0.133010
H7    H     H_    0.350392 0.252364 0.912302 0.133051
H8    H     H_    0.649594 0.755277 0.082880 0.134964
H9    H     H_    0.210595 0.872227 0.016048 0.133010
H10   H     H_    0.789437 0.127793 0.983922 0.132821
H11   H     H_    0.850406 0.744723 0.917120 0.134964
H12   H     H_    0.954091 0.747231 0.507654 0.144604
H13   H     H_    0.149607 0.247638 0.087698 0.133051
H14   H     H_    0.739425 0.156173 0.904874 0.131706
H15   H     H_    0.260577 0.843812 0.095139 0.131285
H16   H     H_    0.202044 0.265159 0.165224 0.145323
H17   H     H_    0.799641 0.721425 0.837480 0.135379
H18   H     H_    0.239423 0.656188 0.904861 0.131285
H19   H     H_    0.760575 0.343827 0.095126 0.131706
H20   H     H_    0.700359 0.778575 0.162520 0.135379
H21   H     H_    0.297956 0.234842 0.834776 0.145325
H22   H     H_    0.629194 0.346749 0.013759 0.148702
H23   H     H_    0.006252 0.265740 0.365349 0.148956
H24   H     H_    0.370756 0.653161 0.986309 0.149607
H25   H     H_    0.369510 0.346401 0.988040 0.148594
H26   H     H_    0.629668 0.654289 0.013265 0.149800
H27   H     H_    0.129244 0.846839 0.013691 0.149607
H28   H     H_    0.870806 0.153251 0.986241 0.148702
H29   H     H_    0.870332 0.845711 0.986735 0.149800
H30   H     H_    0.130489 0.153599 0.011960 0.148595
H31   H     H_    0.612983 0.339888 0.776374 0.186232
H32   H     H_    0.387344 0.660752 0.223365 0.184684
H33   H     H_    0.389018 0.337391 0.222074 0.177260
H34   H     H_    0.015477 0.743117 0.569794 0.147583
H35   H     H_    0.611112 0.662627 0.778075 0.184567
H36   H     H_    0.112655 0.839248 0.776635 0.184684
H37   H     H_    0.887016 0.160112 0.223626 0.186232
H38   H     H_    0.888888 0.837373 0.221925 0.184567
H39   H     H_    0.110982 0.162609 0.777926 0.177260
H40   H     H_    0.744416 0.229764 0.783367 0.152488
H41   H     H_    0.255535 0.770131 0.216688 0.152547
H42   H     H_    0.261738 0.214535 0.212241 0.147394
H43   H     H_    0.744015 0.774586 0.783028 0.150152
H44   H     H_    0.244465 0.729869 0.783312 0.152547
H45   H     H_    0.545907 0.752768 0.492351 0.144604
H46   H     H_    0.755584 0.270236 0.216633 0.152488
H47   H     H_    0.755985 0.725414 0.216972 0.150152
H48   H     H_    0.238261 0.285466 0.787760 0.147395
H49   H     H_    0.413006 0.228389 0.619173 0.143249
H50   H     H_    0.484522 0.756882 0.430211 0.147583
H51   H     H_    0.493750 0.234261 0.634647 0.148956
H52   H     H_    0.780593 0.499792 0.444583 0.194532
N1    N     N_1   0.206374 0.339483 0.302708 -0.223746
N2    N     N_1   0.935899 0.738436 0.333132 -0.213771
N3    N     N_1   0.925808 0.275697 0.299371 -0.217346
N4    N     N_1   0.067520 0.720982 0.690633 -0.216841
N5    N     N_1   0.564101 0.761565 0.666872 -0.213771
N6    N     N_1   0.293629 0.160526 0.697288 -0.223747
N7    N     N_1   0.432479 0.779016 0.309370 -0.216840
N8    N     N_1   0.574192 0.224303 0.700629 -0.217346
O1    O     O_R   0.746490 0.236330 0.638080 -0.640271
O2    O     O_R   0.325830 0.813840 0.483730 -0.619923
O3    O     O_R   0.325830 0.186160 0.483730 -0.628627
O4    O     O_R   0.674170 0.813840 0.516270 -0.627902
O5    O     O_R   0.174170 0.686160 0.516270 -0.619923
O6    O     O_R   0.825830 0.313840 0.483730 -0.618499
O7    O     O_R   0.825830 0.686160 0.483730 -0.627902
O8    O     O_R   0.174170 0.313840 0.516270 -0.628627
O9    O     O_R   0.739960 0.127620 0.525000 -0.630401
O10   O     O_R   0.260040 0.872380 0.475000 -0.627479
O11   O     O_R   0.260040 0.127620 0.475000 -0.634586
O12   O     O_R   0.253510 0.763670 0.361920 -0.640123
O13   O     O_R   0.739960 0.872380 0.525000 -0.630834
O14   O     O_R   0.239960 0.627620 0.525000 -0.627480
O15   O     O_R   0.760040 0.372380 0.475000 -0.630402
O16   O     O_R   0.760040 0.627620 0.475000 -0.630834
O17   O     O_R   0.239960 0.372380 0.525000 -0.634586
O18   O     O_R   0.680700 0.294870 0.629350 -0.617162
O19   O     O_R   0.319300 0.705130 0.370650 -0.618513
O20   O     O_R   0.319300 0.294870 0.370650 -0.630587
O21   O     O_R   0.680700 0.705130 0.629350 -0.619302
O22   O     O_R   0.180700 0.794870 0.629350 -0.618513
O23   O     O_R   0.253510 0.236330 0.361920 -0.632003
O24   O     O_R   0.819300 0.205130 0.370650 -0.617162
O25   O     O_R   0.819300 0.794870 0.370650 -0.619302
O26   O     O_R   0.180700 0.205130 0.629350 -0.630587
O27   O     O_R   0.062020 0.072840 0.007170 -0.628006
O28   O     O_R   0.937980 0.927160 0.992830 -0.627891
O29   O     O_R   0.937980 0.072840 0.992830 -0.628505
O30   O     O_R   0.062020 0.927160 0.007170 -0.627499
O31   O     O_R   0.562020 0.572840 0.007170 -0.627891
O32   O     O_R   0.437980 0.427160 0.992830 -0.628006
O33   O     O_R   0.437980 0.572840 0.992830 -0.627499
O34   O     O_R   0.746490 0.763670 0.638080 -0.642123
O35   O     O_R   0.562020 0.427160 0.007170 -0.628506
O36   O     O_R   0.947860 0.073950 0.109290 -0.621422
O37   O     O_R   0.052140 0.926050 0.890710 -0.621833
O38   O     O_R   0.052140 0.073950 0.890710 -0.623209
O39   O     O_R   0.947860 0.926050 0.109290 -0.620829
O40   O     O_R   0.447860 0.573950 0.109290 -0.621833
O41   O     O_R   0.552140 0.426050 0.890710 -0.621422
O42   O     O_R   0.552140 0.573950 0.890710 -0.620830
O43   O     O_R   0.447860 0.426050 0.109290 -0.623208
O44   O     O_R   0.246490 0.736330 0.638080 -0.640123
O45   O     O_R   0.753510 0.263670 0.361920 -0.640271
O46   O     O_R   0.753510 0.736330 0.361920 -0.642122
O47   O     O_R   0.246490 0.263670 0.638080 -0.632001
O48   O     O_R   0.674170 0.186160 0.516270 -0.618499
Zn1   Zn    Zn3+2 0.792340 0.208750 0.507670 0.963396
Zn2   Zn    Zn3+2 0.494040 0.500000 0.919480 0.944793
Zn3   Zn    Zn3+2 0.005960 0.000000 0.080520 0.944794
Zn4   Zn    Zn3+2 0.994040 0.000000 0.919480 0.940799
Zn5   Zn    Zn3+2 0.207660 0.791250 0.492330 0.962324
Zn6   Zn    Zn3+2 0.207660 0.208750 0.492330 0.953089
Zn7   Zn    Zn3+2 0.792340 0.791250 0.507670 0.959103
Zn8   Zn    Zn3+2 0.292340 0.708750 0.507670 0.962324
Zn9   Zn    Zn3+2 0.707660 0.291250 0.492330 0.963395
Zn10  Zn    Zn3+2 0.707660 0.708750 0.492330 0.959103
Zn11  Zn    Zn3+2 0.292340 0.291250 0.507670 0.953090
Zn12  Zn    Zn3+2 0.505960 0.500000 0.080520 0.940799

loop_
_geom_bond_atom_site_label_1
_geom_bond_atom_site_label_2
_ccdc_geom_bond_type
C151  O3    A    
C31   C42   A    
C15   C75   A    
C108  H26   S    
C127  H36   S    
C14   C33   A    
C79   C87   A    
C19   C46   A    
C16   C31   A    
O15   Zn9   S    
C124  C133  A    
C50   C59   A    
C122  C130  A    
C52   C61   A    
C148  H48   S    
C132  O46   A    
C1    O1    A    
C49   C78   A    
O8    Zn6   S    
C131  C140  A    
C13   C51   A    
O36   Zn3   S    
C44   C53   A    
C113  C122  A    
C17   C68   A    
C70   C74   S    
C79   C102  A    
C61   H52   S    
C91   C100  A    
C117  C126  A    
C119  C128  A    
C58   C64   A    
O45   Zn9   S    
O17   Zn11  S    
C13   C41   A    
C109  C118  A    
C112  C164  A    
C97   H9    S    
C39   C154  A    
C137  C146  A    
C127  C136  A    
C112  C120  A    
C80   C159  S    
C99   O34   A    
C150  O10   A    
C82   C91   A    
C34   C39   A    
C60   C151  S    
C11   O35   A    
O19   Zn8   S    
C105  C158  A    
C100  H11   S    
C4    C122  S    
C101  H6    S    
C27   H23   S    
C104  H7    S    
C81   C90   A    
O6    Zn1   S    
C35   C45   A    
C15   C30   A    
C23   H49   S    
C16   C25   A    
C155  O6    A    
C9    C116  S    
O1    Zn1   S    
C1    C131  S    
O7    Zn7   S    
C106  C115  A    
C147  C164  A    
O23   Zn6   S    
C18   C38   A    
O24   Zn1   S    
C92   H18   S    
C65   N1    T    
C93   H19   S    
O43   Zn12  S    
O5    Zn5   S    
C84   C93   A    
C142  H42   S    
C86   C95   A    
C2    C40   A    
C66   N2    T    
C5    O39   A    
C85   C164  S    
C53   C153  S    
C27   C29   A    
C69   N4    T    
C113  H30   S    
C48   C76   A    
C110  C136  S    
C79   C158  S    
C9    O43   A    
C143  O47   A    
O13   Zn7   S    
C37   C40   A    
O14   Zn8   S    
C140  H40   S    
C38   C39   A    
C43   C52   A    
C106  C159  A    
C70   N5    T    
C111  C119  A    
C85   C94   A    
C121  C137  S    
C140  C158  A    
C20   C35   A    
C139  C143  S    
C141  C159  A    
C121  O24   A    
C152  O13   A    
C2    C44   A    
C22   C25   A    
C30   C41   A    
C43   C154  A    
C144  H43   S    
C63   H3    S    
C81   C160  S    
O16   Zn10  S    
C5    O28   A    
C153  O5    A    
C132  O25   A    
C2    C45   A    
C24   C50   A    
C90   H16   S    
C139  C148  A    
C120  C129  A    
O2    Zn8   S    
C149  O9    A    
O25   Zn7   S    
C6    O29   A    
C105  H22   S    
O22   Zn5   S    
O47   Zn11  S    
C151  O11   A    
C124  H32   S    
C10   O33   A    
O46   Zn10  S    
C19   C28   A    
O28   Zn4   S    
C84   C163  S    
C114  C123  A    
C4    O38   A    
C62   H2    S    
C83   C162  S    
O39   Zn3   S    
C116  C125  A    
C7    O30   A    
C118  C127  A    
C56   C150  S    
C121  O45   A    
C6    C119  S    
C77   O19   A    
C108  C117  A    
C149  O48   A    
O29   Zn4   S    
O3    Zn11  S    
O30   Zn3   S    
C108  C161  A    
C14   C22   A    
C67   N3    T    
C88   C134  S    
C54   C157  S    
C55   C61   A    
C7    O37   A    
C26   H34   S    
C141  H41   S    
C107  C116  A    
C1    O18   A    
C43   C57   A    
C51   C60   A    
C130  H39   S    
C125  C134  A    
C150  O2    A    
C144  C161  A    
C34   C37   A    
C24   C42   A    
O32   Zn2   S    
C110  O44   A    
C107  C160  A    
O37   Zn4   S    
C59   C152  S    
C52   C155  S    
O33   Zn2   S    
C96   H10   S    
C153  O14   A    
O26   Zn6   S    
O35   Zn12  S    
C46   C66   S    
C109  C162  A    
C35   C65   S    
C132  C138  S    
C6    O36   A    
C29   H1    S    
C80   C89   A    
C68   C69   S    
C21   H51   S    
C99   O21   A    
C155  O15   A    
C111  H28   S    
C71   N6    T    
C3    C86   S    
C123  H31   S    
C94   H20   S    
C147  H47   S    
C130  C139  A    
C5    C120  S    
C8    O42   A    
C28   H12   S    
C54   C62   A    
C72   N7    T    
C77   O12   A    
C134  C142  A    
C18   C57   A    
O9    Zn1   S    
C107  H25   S    
C99   C135  S    
C50   C74   A    
C92   C101  A    
C126  C135  A    
C21   C23   A    
O40   Zn12  S    
C16   C74   A    
C95   H21   S    
O4    Zn10  S    
O48   Zn9   S    
C46   C47   A    
O20   Zn11  S    
C115  C124  A    
C123  C131  A    
C4    O27   A    
C51   C75   A    
C93   C102  A    
C88   O20   A    
C47   C154  A    
O44   Zn8   S    
C8    O31   A    
C133  C141  A    
C33   C41   A    
C36   C38   A    
C64   H4    S    
C87   H14   S    
O42   Zn2   S    
C86   C98   A    
C20   C36   A    
C83   C97   A    
C32   C42   A    
C14   C76   A    
C8    C117  S    
C126  H35   S    
C30   C32   A    
C143  O26   A    
C72   C76   S    
C156  O16   A    
C83   C92   A    
C59   C64   A    
C60   C63   A    
C17   C26   A    
O27   Zn3   S    
C145  C162  A    
C84   C96   A    
C11   C114  S    
C157  O17   A    
C152  O4    A    
C129  C138  A    
C12   C78   A    
O31   Zn12  S    
C73   C78   S    
C31   C33   A    
O18   Zn9   S    
C136  C145  A    
C58   C149  S    
C110  O22   A    
C102  H5    S    
C15   C23   A    
C125  H33   S    
C3    C148  A    
O10   Zn5   S    
C12   C32   A    
C7    C118  S    
C77   C133  S    
C57   C67   S    
C146  H46   S    
C20   C29   A    
C55   C156  S    
O12   Zn5   S    
C105  C114  A    
C36   C40   A    
C111  C163  A    
C3    C113  A    
C12   C21   A    
C49   C58   A    
C89   C97   A    
C128  C137  A    
C53   C62   A    
C138  C147  A    
C82   C103  A    
C87   C96   A    
C11   O41   A    
C56   C63   A    
C17   C37   A    
C98   H13   S    
C25   H45   S    
C129  H38   S    
C135  C144  A    
C45   C54   A    
C22   H50   S    
C103  H8    S    
C44   C68   A    
C9    O32   A    
O21   Zn10  S    
C95   C104  A    
C47   C55   A    
C24   C49   A    
C48   C56   A    
C73   N8    T    
O11   Zn6   S    
C18   C27   A    
C142  C160  A    
C19   C34   A    
C94   C103  A    
C13   C48   A    
C82   C161  S    
O38   Zn4   S    
C146  C163  A    
C26   C28   A    
C80   C101  A    
C91   H17   S    
C106  H24   S    
C85   C100  A    
C88   O23   A    
C71   C75   S    
C156  O7    A    
C109  H27   S    
C10   O40   A    
C128  H37   S    
C89   H15   S    
C112  H29   S    
O41   Zn2   S    
O34   Zn7   S    
C90   C98   A    
C145  H44   S    
C10   C115  S    
C157  O8    A    
C81   C104  A    
