data_mof_unit_28190.cif
_audit_creation_date              2012-12-10T17:33:45-0500
_audit_creation_method            fapswitch 2.2
_symmetry_space_group_name_H-M    P1
_symmetry_Int_Tables_number       1
_space_group_crystal_system       triclinic
_cell_length_a                    11.691787
_cell_length_b                    12.33326
_cell_length_c                    13.181419
_cell_angle_alpha                 116.573888
_cell_angle_beta                  77.938864
_cell_angle_gamma                 101.086936
_cell_volume                      1651.76411986

loop_
_atom_site_label
_atom_site_type_symbol
_atom_type_description
_atom_site_fract_x
_atom_site_fract_y
_atom_site_fract_z
_atom_type_partial_charge
C1    C     C_R   0.510039 0.854845 0.286598 0.770726
C2    C     C_R   0.459299 0.227992 0.834462 -0.047281
C3    C     C_R   0.586523 0.815215 0.085416 -0.185871
C4    C     C_R   0.609809 0.736400 0.970658 -0.141778
C5    C     C_R   0.569042 0.613086 0.932925 -0.179943
C6    C     C_R   0.499414 0.566315 0.009479 0.080667
C7    C     C_R   0.464433 0.649755 0.123750 0.081060
C8    C     C_R   0.462151 0.439726 0.976097 0.073639
C9    C     C_R   0.382320 0.400030 0.053198 0.163221
C10   C     C_R   0.338317 0.485195 0.160164 -0.229986
C11   C     C_R   0.377137 0.608247 0.194280 -0.196465
C12   C     C_R   0.715718 0.999563 0.499797 0.820187
C13   C     C_R   0.502446 0.350962 0.868449 -0.246146
C14   C     C_R   0.382573 0.189728 0.911965 -0.191262
C15   C     C_R   0.516685 0.772843 0.163600 -0.101276
C16   C     C_R   0.685911 0.342822 0.325248 -0.104535
C17   C     C_R   0.343360 0.760243 0.646162 0.080308
C18   C     C_R   0.309547 0.664153 0.678124 -0.252226
C19   C     C_R   0.368727 0.560440 0.622687 -0.190009
C20   C     C_R   0.463331 0.551586 0.534066 0.003132
C21   C     C_R   0.495045 0.652867 0.504806 0.287754
C22   C     C_R   0.527671 0.446824 0.473934 -0.047691
C23   C     C_R   0.483117 0.145075 0.713360 0.797141
C24   C     C_R   0.621985 0.445207 0.385549 0.116250
C25   C     C_R   0.651142 0.545929 0.359438 -0.265695
C26   C     C_R   0.589906 0.646938 0.417989 -0.177999
C27   C     C_R   0.502613 0.342853 0.497734 0.017593
C28   C     C_R   0.656009 0.244295 0.353811 0.030795
C29   C     C_R   0.284284 0.000350 0.500091 0.815414
C30   C     C_1   0.837377 0.999082 0.499806 -0.180323
C31   C     C_1   0.939999 0.999379 0.499754 0.003144
C32   C     C_1   0.060011 0.000123 0.499731 0.001962
C33   C     C_1   0.162634 0.000579 0.499816 -0.181672
C34   C     C_R   0.344872 0.275436 0.021258 -0.180605
Cu1   Cu    Cu3+1 0.526510 0.098270 0.475420 0.940130
Cu2   Cu    Cu3+1 0.473490 0.901730 0.524580 0.927388
H1    H     H_    0.348068 0.094652 0.886634 0.148793
H2    H     H_    0.722884 0.548121 0.293187 0.167949
H3    H     H_    0.432817 0.336202 0.563079 0.128336
H4    H     H_    0.297005 0.840445 0.689668 0.126341
H5    H     H_    0.338553 0.489052 0.651138 0.138639
H6    H     H_    0.237206 0.670054 0.746092 0.148297
H7    H     H_    0.621114 0.718903 0.392150 0.206640
H8    H     H_    0.273308 0.456629 0.217860 0.152237
H9    H     H_    0.283747 0.244730 0.079716 0.139590
H10   H     H_    0.566753 0.374854 0.808135 0.149087
H11   H     H_    0.625795 0.909182 0.113424 0.154799
H12   H     H_    0.591450 0.557653 0.842781 0.130693
H13   H     H_    0.662998 0.770418 0.910960 0.146454
H14   H     H_    0.334978 0.670176 0.275537 0.178063
H15   H     H_    0.703793 0.164994 0.308674 0.130063
N1    N     N_R   0.566700 0.246290 0.438210 -0.187042
N2    N     N_R   0.434010 0.754320 0.561170 -0.207286
O1    O     O_R   0.533340 0.972510 0.318140 -0.579434
O2    O     O_R   0.488570 0.806530 0.359650 -0.605361
O3    O     O_R   0.685190 0.083000 0.479260 -0.571522
O4    O     O_R   0.640410 0.917020 0.520770 -0.589783
O5    O     O_R   0.511430 0.193470 0.640350 -0.586302
O6    O     O_R   0.466660 0.027490 0.681860 -0.586145
O7    O     O_R   0.359590 0.082980 0.479230 -0.572129
O8    O     O_R   0.314810 0.917000 0.520740 -0.585061
C35   C     C_1   0.782070 0.335904 0.234249 0.200714
N3    N     N_1   0.859026 0.330284 0.161419 -0.286379

loop_
_geom_bond_atom_site_label_1
_geom_bond_atom_site_label_2
_ccdc_geom_bond_type
C16   C28   A    
C23   O5    A    
C23   O6    A    
C1    O1    A    
C34   H9    S    
C24   C25   A    
C14   C34   A    
C8    C13   A    
C1    C15   S    
C29   C33   S    
C25   H2    S    
C21   N2    A    
C9    C10   A    
C9    C34   A    
C19   C20   A    
C29   O7    A    
C4    H13   S    
C21   C26   A    
Cu2   O6    S    
C32   C33   T    
C7    C15   A    
C17   C18   A    
C1    O2    A    
C19   H5    S    
C16   C24   A    
C11   H14   S    
C12   O3    A    
C27   N1    A    
Cu1   O1    S    
C7    C11   A    
C28   N1    A    
C30   C31   T    
C35   N3    T    
C16   C35   S    
Cu1   Cu2   S    
Cu1   O5    S    
C12   O4    A    
C3    H11   S    
C28   H15   S    
C20   C22   A    
C26   H7    S    
Cu2   O4    S    
C6    C7    A    
C22   C24   A    
C22   C27   A    
C18   H6    S    
C5    C6    A    
C2    C14   A    
C5    H12   S    
C29   O8    A    
Cu1   O3    S    
C10   C11   A    
C10   H8    S    
Cu2   O8    S    
C17   N2    A    
Cu1   N1    S    
C3    C15   A    
C20   C21   A    
C8    C9    A    
C18   C19   A    
C2    C23   S    
Cu2   O2    S    
C2    C13   A    
C13   H10   S    
Cu1   O7    S    
C6    C8    A    
Cu2   N2    S    
C12   C30   S    
C25   C26   A    
C31   C32   S    
C3    C4    A    
C27   H3    S    
C4    C5    A    
C14   H1    S    
C17   H4    S    
