data_mof_unit_25500.cif
_audit_creation_date              2012-12-10T18:33:46-0500
_audit_creation_method            fapswitch 2.2
_symmetry_space_group_name_H-M    P1
_symmetry_Int_Tables_number       1
_space_group_crystal_system       triclinic
_cell_length_a                    10.49994
_cell_length_b                    15.006363
_cell_length_c                    15.477294
_cell_angle_alpha                 82.346664
_cell_angle_beta                  89.777755
_cell_angle_gamma                 104.579917
_cell_volume                      2337.35824103

loop_
_atom_site_label
_atom_site_type_symbol
_atom_type_description
_atom_site_fract_x
_atom_site_fract_y
_atom_site_fract_z
_atom_type_partial_charge
C1    C     C_R   0.478120 0.441867 0.662172 0.862465
C2    C     C_R   0.402921 0.481061 0.046534 0.066779
C3    C     C_R   0.363707 0.384559 0.077271 -0.221240
C4    C     C_R   0.418019 0.605768 0.925938 -0.223746
C5    C     C_R   0.346635 0.319205 0.019778 -0.216476
C6    C     C_R   0.438155 0.671208 0.983514 -0.216270
C7    C     C_R   0.692341 0.840954 0.639737 -0.263084
C8    C     C_R   0.310169 0.159544 0.358921 -0.263976
C9    C     C_R   0.663100 0.753160 0.614525 0.005419
C10   C     C_R   0.337980 0.247006 0.384815 0.005150
C11   C     C_R   0.514167 0.793976 0.511481 -0.042139
C12   C     C_R   0.515348 0.557967 0.337850 0.864536
C13   C     C_R   0.486148 0.206201 0.488450 -0.040038
C14   C     C_R   0.542579 0.885869 0.531770 0.001665
C15   C     C_R   0.459642 0.114729 0.467204 0.000960
C16   C     C_R   0.742647 0.500946 0.500199 0.867237
C17   C     C_R   0.257366 0.499054 0.499800 0.862978
C18   C     C_R   0.629377 0.907799 0.600800 0.086572
C19   C     C_R   0.373723 0.092950 0.397679 0.090231
C20   C     C_R   0.487516 0.955434 0.486170 0.064721
C21   C     C_R   0.515613 0.045403 0.512370 0.064258
C22   C     C_R   0.596430 0.062934 0.584158 -0.285286
C23   C     C_R   0.445420 0.472044 0.811023 -0.261663
C24   C     C_R   0.408091 0.938211 0.413708 -0.286033
C25   C     C_R   0.652883 0.996113 0.628210 -0.019438
C26   C     C_R   0.351840 0.005069 0.369489 -0.018686
C27   C     C_3   0.931888 0.431526 0.560183 -0.164121
C28   C     C_3   0.068182 0.568471 0.439804 -0.164456
C29   C     C_3   0.047149 0.512332 0.579312 -0.175575
C30   C     C_3   0.952920 0.487665 0.420679 -0.175393
C31   C     C_3   0.121620 0.497817 0.499493 0.012974
C32   C     C_3   0.878431 0.502182 0.500497 0.010513
C33   C     C_3   0.009024 0.416978 0.480357 -0.128180
C34   C     C_R   0.469529 0.525003 0.189156 -0.261501
C35   C     C_3   0.991045 0.583022 0.519633 -0.130124
C36   C     C_R   0.445645 0.407105 0.754452 -0.063669
C37   C     C_R   0.502957 0.591279 0.245910 -0.063892
C38   C     C_R   0.371319 0.282523 0.873833 -0.185101
C39   C     C_R   0.488433 0.711521 0.128381 -0.183713
C40   C     C_R   0.406654 0.311878 0.785708 -0.180390
C41   C     C_R   0.511285 0.684915 0.215638 -0.184723
C42   C     C_2   0.731248 0.020640 0.705369 0.888609
C43   C     C_2   0.275513 0.981122 0.291369 0.889391
C44   C     C_R   0.405844 0.444395 0.898582 0.092859
C45   C     C_R   0.439084 0.549107 0.103162 0.092401
C46   C     C_R   0.373324 0.348186 0.930833 0.164274
C47   C     C_R   0.454415 0.644385 0.071584 0.164194
C48   C     C_R   0.408134 0.510742 0.955919 0.066065
H1    H     H_    0.555070 0.231472 0.536167 0.129497
H2    H     H_    0.128402 0.623930 0.390684 0.153203
H3    H     H_    0.020351 0.349355 0.464351 0.153449
H4    H     H_    0.979738 0.650650 0.535637 0.153007
H5    H     H_    0.318258 0.245870 0.045452 0.166328
H6    H     H_    0.446451 0.743489 0.958410 0.163733
H7    H     H_    0.471150 0.454353 0.212447 0.164967
H8    H     H_    0.481383 0.544811 0.786413 0.164939
H9    H     H_    0.343010 0.357871 0.145552 0.149858
H10   H     H_    0.407530 0.630952 0.858363 0.155079
H11   H     H_    0.090201 0.521999 0.643875 0.143800
H12   H     H_    0.443931 0.768621 0.464480 0.129401
H13   H     H_    0.909931 0.477979 0.356106 0.144667
H14   H     H_    0.535173 0.737177 0.259090 0.162359
H15   H     H_    0.404447 0.260448 0.742461 0.163303
H16   H     H_    0.344487 0.208752 0.897675 0.146137
H17   H     H_    0.498045 0.784393 0.105199 0.148919
H18   H     H_    0.768904 0.984095 0.831053 0.346587
H19   H     H_    0.239662 0.019105 0.165611 0.342936
H20   H     H_    0.290647 0.298806 0.354470 0.129756
H21   H     H_    0.710380 0.701290 0.644763 0.135185
H22   H     H_    0.765214 0.855673 0.688474 0.182615
H23   H     H_    0.238040 0.144909 0.309714 0.179616
H24   H     H_    0.615128 0.127907 0.609935 0.158327
H25   H     H_    0.391122 0.873629 0.387301 0.157732
H26   H     H_    0.871720 0.376037 0.609296 0.152505
N1    N     N_R   0.574200 0.731700 0.552740 -0.102049
N2    N     N_R   0.425800 0.268300 0.447260 -0.100682
O1    O     O_R   0.462600 0.383110 0.605620 -0.617363
O2    O     O_R   0.710786 0.958823 0.783146 -0.817856
O3    O     O_2   0.198132 0.904723 0.293485 -0.632771
O4    O     O_R   0.296342 0.044019 0.214282 -0.821367
O5    O     O_R   0.537400 0.616890 0.394380 -0.616328
O6    O     O_R   0.510210 0.531900 0.639510 -0.623266
O7    O     O_R   0.489790 0.468100 0.360490 -0.622251
O8    O     O_R   0.662240 0.425610 0.483080 -0.617402
O9    O     O_R   0.337760 0.574390 0.516920 -0.620052
O10   O     O_R   0.709860 0.574400 0.516970 -0.622674
O11   O     O_R   0.290140 0.425600 0.483030 -0.624255
O12   O     O_2   0.810075 0.096636 0.701851 -0.632070
Zn1   Zn    Zn3+2 0.468210 0.400660 0.477370 0.944233
Zn2   Zn    Zn3+2 0.531790 0.599340 0.522630 0.942909

loop_
_geom_bond_atom_site_label_1
_geom_bond_atom_site_label_2
_ccdc_geom_bond_type
C38   C40   A    
C27   C29   S    
C34   C37   A    
C1    O1    A    
C14   C18   A    
C7    H22   S    
C23   H8    S    
C39   C41   A    
C27   C33   S    
C15   C19   A    
O1    Zn1   S    
C40   H15   S    
C17   O9    A    
C5    H5    S    
C24   C26   A    
C11   C14   A    
C24   H25   S    
C43   O3    D    
C16   O8    A    
C12   C37   S    
C19   C26   A    
N1    Zn2   S    
C10   N2    A    
C20   C24   A    
C28   C35   S    
C22   C25   A    
C31   C33   S    
C27   H26   S    
N2    Zn1   S    
C34   H7    S    
C21   C22   A    
C16   O10   A    
C39   H17   S    
C18   C25   A    
C28   H2    S    
C41   H14   S    
C6    H6    S    
O7    Zn1   S    
C22   H24   S    
C44   C46   A    
C26   C43   S    
C38   H16   S    
C45   C47   A    
C2    C45   A    
H18   O2    S    
C8    C19   A    
C6    C47   A    
C32   C35   S    
C14   C20   A    
C36   C40   A    
C4    C6    A    
O10   Zn2   S    
C2    C48   A    
C43   O4    S    
C23   C44   A    
C12   O7    A    
C13   N2    A    
C7    C18   A    
C34   C45   A    
C13   H1    S    
O5    Zn2   S    
C3    H9    S    
C42   O2    S    
C13   C15   A    
C17   C31   S    
C16   C32   S    
O8    Zn1   S    
C11   H12   S    
C39   C47   A    
C4    C48   A    
C7    C9    A    
C8    H23   S    
C30   C33   S    
C27   C32   S    
C17   O11   A    
C28   C31   S    
H19   O4    S    
C9    H21   S    
C3    C5    A    
C25   C42   S    
O9    Zn2   S    
C10   H20   S    
C33   H3    S    
C5    C46   A    
C29   C35   S    
O6    Zn2   S    
O11   Zn1   S    
C2    C3    A    
C1    O6    A    
C29   C31   S    
C11   N1    A    
C30   C32   S    
C28   C30   S    
C12   O5    A    
C37   C41   A    
C38   C46   A    
C15   C21   A    
C42   O12   D    
C20   C21   A    
C8    C10   A    
C23   C36   A    
C30   H13   S    
C4    H10   S    
C35   H4    S    
C29   H11   S    
C9    N1    A    
C44   C48   A    
C1    C36   S    
