data_mof_unit_12968.cif
_audit_creation_date              2013-03-05T16:33:11-0500
_audit_creation_method            fapswitch 2.2
_symmetry_space_group_name_H-M    P1
_symmetry_Int_Tables_number       1
_space_group_crystal_system       triclinic
_cell_length_a                    27.818944
_cell_length_b                    10.845475
_cell_length_c                    9.542047
_cell_angle_alpha                 90.849488
_cell_angle_beta                  89.720178
_cell_angle_gamma                 90.39907
_cell_volume                      2878.50862815

loop_
_atom_site_label
_atom_site_type_symbol
_atom_site_description
_atom_site_fract_x
_atom_site_fract_y
_atom_site_fract_z
_atom_type_partial_charge
O1    O     O_R   0.500000 0.319640 0.618810 -0.579993
O2    O     O_R   0.500010 0.319680 0.381230 -0.583959
C1    C     C_R   0.498696 0.262465 0.499019 0.802571
O3    O     O_R   0.430260 0.500000 0.618780 -0.592005
O4    O     O_R   0.430270 0.500040 0.381190 -0.592531
C2    C     C_R   0.407469 0.499956 0.500311 0.793006
Cu1   Cu    Cu3+1 0.500000 0.499980 0.640670 0.954122
Cu2   Cu    Cu3+1 0.500000 0.500020 0.359330 0.970182
O5    O     O_R   0.499990 0.680320 0.618770 -0.580025
O6    O     O_R   0.500000 0.680360 0.381190 -0.585482
O7    O     O_R   0.569730 0.499960 0.618810 -0.584770
O8    O     O_R   0.569740 0.500000 0.381220 -0.558567
C3    C     C_R   0.499096 0.737960 0.500586 0.824318
C4    C     C_R   0.592513 0.498337 0.499869 0.856620
C5    C     C_R   0.177959 0.390598 0.482374 0.538657
O9    O     O_2   0.202664 0.285367 0.460277 -0.530492
N1    N     N_R   0.202177 0.499230 0.504647 -0.470379
C6    C     C_R   0.178276 0.607374 0.528319 0.539494
C7    C     C_R   0.278999 0.512674 0.629243 -0.102234
C8    C     C_R   0.329119 0.512490 0.628377 -0.216490
C9    C     C_R   0.328864 0.487264 0.375235 -0.214480
C10   C     C_R   0.278730 0.486829 0.376524 -0.101260
C11   C     C_R   0.253688 0.499676 0.503438 0.358698
C12   C     C_R   0.102080 0.498250 0.507273 -0.050729
C13   C     C_R   0.127499 0.388062 0.483133 -0.021184
C14   C     C_R   0.102127 0.277830 0.461885 -0.139296
C15   C     C_R   0.127817 0.608916 0.530216 -0.021977
C16   C     C_R   0.354529 0.499929 0.501266 -0.035326
H1    H     H_    0.347454 0.477199 0.275781 0.150864
H2    H     H_    0.259280 0.476833 0.278938 0.139598
H3    H     H_    0.120798 0.191316 0.446404 0.190838
C17   C     C_R   0.645434 0.495378 0.499949 -0.115437
C18   C     C_R   0.974628 0.388795 0.469914 0.002887
C19   C     C_R   0.974870 0.605512 0.548687 -0.011160
C20   C     C_R   0.949333 0.497231 0.508976 0.083764
C21   C     C_R   0.948277 0.286800 0.417916 -0.241229
C22   C     C_R   0.898279 0.287156 0.411438 0.360942
C23   C     C_R   0.872634 0.390495 0.463081 -0.108499
C24   C     C_R   0.898199 0.497457 0.507872 -0.121958
C25   C     C_R   0.872610 0.604340 0.551671 -0.130498
C26   C     C_R   0.822069 0.603570 0.536279 0.656271
N2    N     N_R   0.798163 0.496986 0.502280 -0.466474
C27   C     C_R   0.822119 0.390254 0.473323 0.648979
C28   C     C_R   0.721248 0.474124 0.372259 0.389032
C29   C     C_R   0.670849 0.470406 0.375543 -0.180545
C30   C     C_R   0.670911 0.517905 0.624254 -0.180515
C31   C     C_R   0.720924 0.518036 0.623502 -0.097970
C32   C     C_R   0.746470 0.497233 0.498481 0.193618
O10   O     O_2   0.796869 0.284441 0.456873 -0.437218
C33   C     C_R   0.025585 0.386714 0.478992 0.066029
C34   C     C_R   0.051009 0.497780 0.508340 0.076879
C35   C     C_R   0.025877 0.608386 0.538623 0.069258
C36   C     C_R   0.052179 0.276826 0.460407 -0.192457
H4    H     H_    0.651358 0.449387 0.280326 0.219389
H5    H     H_    0.965888 0.207432 0.372501 0.175124
H6    H     H_    0.035363 0.187507 0.448084 0.152965
O11   O     O_2   0.203291 0.713075 0.549216 -0.529447
C37   C     C_R   0.102751 0.718633 0.552807 -0.138976
H7    H     H_    0.347904 0.522566 0.727079 0.154426
H8    H     H_    0.259765 0.522448 0.727678 0.139911
H9    H     H_    0.121669 0.805496 0.567489 0.191018
C38   C     C_R   0.948741 0.706590 0.602191 -0.244914
C39   C     C_R   0.898607 0.706789 0.607840 0.441835
O12   O     O_2   0.796704 0.708341 0.550227 -0.420656
C40   C     C_R   0.052802 0.718724 0.556370 -0.191224
H10   H     H_    0.967000 0.785332 0.647173 0.185484
H11   H     H_    0.652255 0.535834 0.722178 0.186468
H12   H     H_    0.740057 0.534743 0.720611 0.201617
H13   H     H_    0.036265 0.807796 0.569177 0.152725
C41   C     C_R   0.487276 0.066543 0.621910 0.118632
C42   C     C_R   0.493134 0.129741 0.496927 -0.093601
C43   C     C_R   0.492019 0.062643 0.369956 -0.197416
H14   H     H_    0.493529 0.108780 0.270116 0.168349
C44   C     C_R   0.492402 0.934016 0.371360 -0.177597
H15   H     H_    0.493828 0.884610 0.272104 0.158673
C45   C     C_R   0.494062 0.871374 0.499667 -0.090100
C46   C     C_R   0.487682 0.939588 0.623672 0.118603
C47   C     C_3   0.514980 0.939747 0.758095 -0.475648
C48   C     C_3   0.514228 0.079260 0.755856 -0.423417
H16   H     H_    0.493051 0.902378 0.845592 0.192369
H17   H     H_    0.551809 0.901800 0.745376 0.217268
H18   H     H_    0.491954 0.120846 0.841044 0.196304
H19   H     H_    0.550462 0.121492 0.741996 0.217895
C49   C     C_R   0.539692 0.539203 0.073966 0.206205
N3    N     N_R   0.500300 0.500930 0.147930 -0.213109
C50   C     C_R   0.463107 0.448802 0.073996 -0.082970
H20   H     H_    0.432890 0.408880 0.129166 0.141231
C51   C     C_R   0.463116 0.448779 0.925202 -0.077575
H21   H     H_    0.432903 0.408903 0.869457 0.140404
N4    N     N_R   0.500310 0.500890 0.852020 -0.184086
C52   C     C_R   0.539563 0.539182 0.926149 0.226494
C53   C     C_3   0.561358 0.664310 0.920132 -0.546191
C54   C     C_3   0.561567 0.665524 0.079289 0.117288
H22   H     H_    0.597295 0.664373 0.868966 0.232674
H23   H     H_    0.535685 0.730100 0.876995 0.182469
H24   H     H_    0.537611 0.736031 0.127613 0.113869
S1    S     S_3+6 0.871285 0.832484 0.699616 0.091142
O13   O     O_2   0.907855 0.903504 0.784397 -0.268730
O14   O     O_2   0.849014 0.917833 0.596008 -0.167721
O15   O     O_3   0.828621 0.778856 0.808948 -0.472342
H25   H     H_    0.810770 0.852862 0.841058 0.403836
N5    N     N_R   0.610047 0.666461 0.138023 0.156418
O16   O     O_R   0.619949 0.738915 0.243970 -0.327489
O17   O     O_R   0.644100 0.600160 0.081769 -0.340835
N6    N     N_R   0.746066 0.456646 0.240809 0.166313
O18   O     O_R   0.726401 0.391406 0.140584 -0.284761
O19   O     O_R   0.785983 0.515590 0.215169 -0.297061
N7    N     N_R   0.874773 0.185602 0.341006 0.175303
O20   O     O_R   0.888635 0.073318 0.363581 -0.279254
O21   O     O_R   0.847431 0.206402 0.233725 -0.239070

loop_
_geom_bond_atom_site_label_1
_geom_bond_atom_site_label_2
_geom_bond_distance
_ccdc_geom_bond_type
C26   N2    1.365297 A    
C1    C42   1.446527 S    
C7    C8    1.394268 A    
C12   C15   1.408148 A    
S1    O13   1.503795 D    
Cu1   Cu2   2.684565 S    
C28   N6    1.439508 S    
Cu1   O7    1.949986 S    
N6    O19   1.301423 A    
N1    C11   1.432958 S    
C25   C39   1.421194 A    
C44   C45   1.410062 A    
C21   C22   1.392612 A    
Cu2   N3    2.017336 S    
C23   C24   1.418081 A    
O7    C4    1.297168 A    
C50   C51   1.419792 A    
C5    C13   1.403802 A    
C5    O9    1.349707 S    
C19   C38   1.407709 A    
C18   C21   1.408254 A    
N7    O20   1.301235 A    
Cu1   O5    1.970084 S    
C19   C20   1.416047 A    
C17   C29   1.402618 A    
O5    C3    1.297902 A    
C53   C54   1.518583 S    
C6    O11   1.349688 S    
C2    C16   1.472706 S    
C41   C42   1.392629 A    
C49   C52   1.410501 A    
C46   C47   1.493789 S    
C37   H9    1.083492 S    
C14   H3    1.083475 S    
O1    Cu1   1.963887 S    
C9    C10   1.394639 A    
C41   C46   1.377358 A    
O3    Cu1   1.952323 S    
S1    O14   1.503059 D    
C33   C34   1.417631 A    
C45   C46   1.397416 A    
C33   C36   1.415578 A    
C44   H15   1.081931 S    
C38   H10   1.075524 S    
C34   C35   1.417995 A    
C12   C13   1.408278 A    
C22   N7    1.436898 S    
O3    C2    1.298786 A    
C4    C17   1.472784 S    
C24   C25   1.421036 A    
C47   C48   1.513845 S    
C27   O10   1.348906 S    
C8    C16   1.406219 A    
C18   C33   1.421001 A    
N3    C50   1.369314 A    
Cu1   N4    2.016651 S    
C9    H1    1.082995 S    
O6    C3    1.291384 A    
C53   H23   1.098769 S    
C30   H11   1.082368 S    
O1    C1    1.292854 A    
C20   C24   1.422629 A    
C22   C23   1.413935 A    
O4    Cu2   1.949988 S    
C37   C40   1.389802 A    
C31   C32   1.401809 A    
C3    C45   1.454834 S    
Cu2   O8    1.952318 S    
C38   C39   1.395455 A    
C53   H22   1.110445 S    
N1    C6    1.367583 A    
N2    C32   1.438704 S    
C49   N3    1.366044 A    
C8    H7    1.083066 S    
N5    O17   1.302161 A    
C43   C44   1.395396 A    
C25   C26   1.414315 A    
C9    C16   1.406065 A    
C51   N4    1.368993 A    
C29   H4    1.080934 S    
C54   H24   1.111368 S    
N2    C27   1.363779 A    
C14   C36   1.389590 A    
C31   H12   1.083165 S    
C52   C53   1.484276 S    
S1    O15   1.682737 S    
C28   C29   1.402543 A    
C7    C11   1.399482 A    
C36   H6    1.077920 S    
C5    N1    1.367506 A    
C30   C31   1.391280 A    
C10   H2    1.082920 S    
C41   C48   1.489124 S    
C50   H20   1.081016 S    
C17   C30   1.402181 A    
O2    Cu2   1.970086 S    
C6    C15   1.403974 A    
O8    C4    1.300470 A    
C43   H14   1.083142 S    
C15   C37   1.396823 A    
C54   N5    1.462930 S    
C48   H18   1.111862 S    
C7    H8    1.082907 S    
N6    O18   1.301605 A    
C19   C35   1.421892 A    
O2    C1    1.292132 A    
C13   C14   1.396788 A    
C23   C27   1.408159 A    
C39   S1    1.782005 S    
C21   H5    1.077726 S    
C48   H19   1.112358 S    
C47   H17   1.112182 S    
N4    C52   1.362983 A    
O4    C2    1.298961 A    
C12   C34   1.420697 A    
C40   H13   1.077921 S    
O15   H25   0.990689 S    
C18   C20   1.418843 A    
N7    O21   1.301618 A    
C47   H16   1.111351 S    
C49   C54   1.495477 S    
N5    O16   1.300586 A    
C42   C43   1.404399 A    
C51   H21   1.081145 S    
Cu2   O6    1.963886 S    
C10   C11   1.399777 A    
C26   O12   1.346311 S    
C35   C40   1.415796 A    
C28   C32   1.415134 A    
