data_mof_unit_62874.cif
_audit_creation_date              2012-12-10T16:54:38-0500
_audit_creation_method            fapswitch 2.2
_symmetry_space_group_name_H-M    P1
_symmetry_Int_Tables_number       1
_space_group_crystal_system       triclinic
_cell_length_a                    23.655269
_cell_length_b                    30.256288
_cell_length_c                    19.710713
_cell_angle_alpha                 89.999557
_cell_angle_beta                  127.479333
_cell_angle_gamma                 90.000814
_cell_volume                      11195.2213492

loop_
_atom_site_label
_atom_site_type_symbol
_atom_type_description
_atom_site_fract_x
_atom_site_fract_y
_atom_site_fract_z
_atom_type_partial_charge
C1    C     C_R   0.690737 0.809792 0.882431 0.779291
C2    C     C_R   0.309267 0.190208 0.117570 0.779288
C3    C     C_R   0.309264 0.809791 0.117569 0.779292
C4    C     C_R   0.690732 0.190209 0.882430 0.779283
C5    C     C_R   0.190736 0.309792 0.882431 0.779289
C6    C     C_R   0.809265 0.690208 0.117570 0.779290
C7    C     C_R   0.809264 0.309792 0.117569 0.779290
C8    C     C_R   0.190736 0.690208 0.882430 0.779287
C9    C     C_R   0.686113 0.848414 0.768261 0.085049
C10   C     C_R   0.313866 0.151570 0.231712 0.085060
C11   C     C_R   0.313867 0.848427 0.231715 0.085043
C12   C     C_R   0.686137 0.151571 0.768292 0.085065
C13   C     C_R   0.186118 0.348417 0.768267 0.085052
C14   C     C_R   0.813877 0.651579 0.231727 0.085060
C15   C     C_R   0.813871 0.348424 0.231720 0.085048
C16   C     C_R   0.186133 0.651573 0.768285 0.085054
C17   C     C_R   0.662216 0.844071 0.818111 -0.067146
C18   C     C_R   0.337792 0.155930 0.181894 -0.067135
C19   C     C_R   0.337787 0.844071 0.181890 -0.067133
C20   C     C_R   0.662208 0.155931 0.818105 -0.067130
C21   C     C_R   0.162215 0.344071 0.818110 -0.067142
C22   C     C_R   0.837787 0.655929 0.181891 -0.067142
C23   C     C_R   0.837786 0.344070 0.181891 -0.067136
C24   C     C_R   0.162211 0.655930 0.818107 -0.067136
C25   C     C_R   0.605754 0.869386 0.800923 -0.204021
C26   C     C_R   0.394289 0.130639 0.199124 -0.204048
C27   C     C_R   0.394269 0.869371 0.199103 -0.204021
C28   C     C_R   0.605710 0.130640 0.800871 -0.204052
C29   C     C_R   0.105747 0.369381 0.800915 -0.204024
C30   C     C_R   0.894262 0.630624 0.199097 -0.204035
C31   C     C_R   0.894266 0.369373 0.199101 -0.204024
C32   C     C_R   0.105723 0.630633 0.800886 -0.204037
C33   C     C_R   0.572027 0.899109 0.733696 -0.159286
C34   C     C_R   0.428016 0.100918 0.266354 -0.159236
C35   C     C_R   0.427992 0.899097 0.266326 -0.159261
C36   C     C_R   0.571985 0.100918 0.733642 -0.159235
C37   C     C_R   0.072021 0.399104 0.733688 -0.159281
C38   C     C_R   0.927989 0.600902 0.266325 -0.159265
C39   C     C_R   0.927990 0.399098 0.266326 -0.159268
C40   C     C_R   0.071998 0.600910 0.733659 -0.159253
C41   C     C_R   0.591278 0.902286 0.679101 -0.090366
C42   C     C_R   0.408729 0.097720 0.320913 -0.090420
C43   C     C_R   0.408716 0.902288 0.320895 -0.090340
C44   C     C_R   0.591275 0.097720 0.679088 -0.090407
C45   C     C_R   0.091279 0.402286 0.679100 -0.090366
C46   C     C_R   0.908724 0.597717 0.320906 -0.090381
C47   C     C_R   0.908718 0.402287 0.320899 -0.090349
C48   C     C_R   0.091278 0.597716 0.679094 -0.090373
C49   C     C_R   0.058253 0.561693 0.615550 0.814601
C50   C     C_R   0.941745 0.438309 0.384446 0.814614
C51   C     C_R   0.941749 0.561694 0.384451 0.814591
C52   C     C_R   0.058253 0.438308 0.615552 0.814605
C53   C     C_R   0.558251 0.061695 0.615546 0.814587
C54   C     C_R   0.441744 0.938310 0.384443 0.814622
C55   C     C_R   0.441750 0.061695 0.384454 0.814581
C56   C     C_R   0.558252 0.938307 0.615552 0.814612
C57   C     C_R   0.641777 0.749902 0.999717 0.797393
C58   C     C_R   0.358223 0.250098 0.000282 0.797383
C59   C     C_R   0.358223 0.749902 0.000282 0.797390
C60   C     C_R   0.641777 0.250098 0.999718 0.797381
C61   C     C_R   0.141777 0.249902 0.999717 0.797394
C62   C     C_R   0.858223 0.750098 0.000282 0.797388
C63   C     C_R   0.858223 0.249902 0.000282 0.797392
C64   C     C_R   0.141777 0.750098 0.999718 0.797387
C65   C     C_1   0.580872 0.749510 0.999664 -0.170454
C66   C     C_1   0.419128 0.250490 0.000336 -0.170456
C67   C     C_1   0.419127 0.749510 0.000333 -0.170453
C68   C     C_1   0.580873 0.250489 0.999667 -0.170455
C69   C     C_1   0.080872 0.249510 0.999664 -0.170453
C70   C     C_1   0.919128 0.750490 0.000335 -0.170454
C71   C     C_1   0.919127 0.249510 0.000333 -0.170454
C72   C     C_1   0.080873 0.750490 0.999667 -0.170455
C73   C     C_1   0.529874 0.749329 0.999852 0.006872
C74   C     C_1   0.470126 0.250670 0.000148 0.006870
C75   C     C_1   0.470124 0.749330 0.000145 0.006872
C76   C     C_1   0.529876 0.250670 0.999855 0.006870
C77   C     C_1   0.029874 0.249329 0.999852 0.006870
C78   C     C_1   0.970126 0.750670 0.000148 0.006873
C79   C     C_1   0.970124 0.249330 0.000145 0.006870
C80   C     C_1   0.029876 0.750670 0.999855 0.006872
C81   C     C_R   0.748945 0.827189 0.792318 -0.174085
C82   C     C_R   0.251005 0.172771 0.207611 -0.174098
C83   C     C_R   0.251016 0.827216 0.207630 -0.174096
C84   C     C_R   0.749000 0.172773 0.792397 -0.174098
C85   C     C_R   0.248955 0.327196 0.792332 -0.174089
C86   C     C_R   0.751030 0.672792 0.207646 -0.174091
C87   C     C_R   0.751023 0.327211 0.207639 -0.174095
C88   C     C_R   0.248990 0.672779 0.792379 -0.174099
C89   C     C_R   0.769751 0.828876 0.740027 -0.180354
C90   C     C_R   0.230155 0.171056 0.259856 -0.180358
C91   C     C_R   0.230175 0.828927 0.259883 -0.180353
C92   C     C_R   0.769857 0.171058 0.740161 -0.180361
C93   C     C_R   0.269771 0.328890 0.740053 -0.180358
C94   C     C_R   0.730201 0.671090 0.259912 -0.180358
C95   C     C_R   0.730186 0.328918 0.259897 -0.180355
C96   C     C_R   0.269835 0.671067 0.740130 -0.180356
C97   C     C_R   0.725086 0.847977 0.659324 -0.011942
C98   C     C_R   0.274802 0.151953 0.340559 -0.011935
C99   C     C_R   0.274823 0.848035 0.340582 -0.011948
C100  C     C_R   0.725219 0.151950 0.659462 -0.011936
C101  C     C_R   0.225114 0.347994 0.659352 -0.011942
C102  C     C_R   0.774854 0.651987 0.340614 -0.011938
C103  C     C_R   0.774836 0.348025 0.340596 -0.011944
C104  C     C_R   0.225187 0.651963 0.659428 -0.011939
C105  C     C_R   0.660798 0.868169 0.632917 -0.052975
C106  C     C_R   0.339126 0.131794 0.367019 -0.052964
C107  C     C_R   0.339138 0.868202 0.367027 -0.052977
C108  C     C_R   0.660894 0.131789 0.632995 -0.052976
C109  C     C_R   0.160818 0.368179 0.632934 -0.052974
C110  C     C_R   0.839161 0.631811 0.367049 -0.052977
C111  C     C_R   0.839147 0.368196 0.367036 -0.052978
C112  C     C_R   0.160868 0.631798 0.632976 -0.052976
C113  C     C_R   0.645802 0.873924 0.692363 0.037710
C114  C     C_R   0.354172 0.126063 0.307615 0.037686
C115  C     C_R   0.354170 0.873938 0.307611 0.037714
C116  C     C_R   0.645836 0.126062 0.692390 0.037692
C117  C     C_R   0.145810 0.373928 0.692369 0.037709
C118  C     C_R   0.854185 0.626070 0.307627 0.037699
C119  C     C_R   0.854176 0.373935 0.307618 0.037711
C120  C     C_R   0.145828 0.626064 0.692384 0.037701
Cu1   Cu    Cu3+1 0.719090 0.719080 0.938180 0.984294
Cu2   Cu    Cu3+1 0.280910 0.280920 0.061820 0.984298
Cu3   Cu    Cu3+1 0.280910 0.719080 0.061820 0.984301
Cu4   Cu    Cu3+1 0.719090 0.280920 0.938180 0.984296
Cu5   Cu    Cu3+1 0.219090 0.219080 0.938180 0.984300
Cu6   Cu    Cu3+1 0.780910 0.780920 0.061820 0.984298
Cu7   Cu    Cu3+1 0.780910 0.219080 0.061820 0.984303
Cu8   Cu    Cu3+1 0.219090 0.780920 0.938180 0.984298
Cu9   Cu    Cu3+1 0.944200 0.500000 0.499990 0.989919
Cu10  Cu    Cu3+1 0.055800 0.500000 0.500010 0.989918
Cu11  Cu    Cu3+1 0.444200 0.000000 0.499990 0.989929
Cu12  Cu    Cu3+1 0.555800 0.000000 0.500010 0.989920
H1    H     H_    0.587834 0.866146 0.839876 0.144467
H2    H     H_    0.412234 0.133894 0.160200 0.144451
H3    H     H_    0.412209 0.866120 0.160172 0.144455
H4    H     H_    0.587761 0.133895 0.839792 0.144449
H5    H     H_    0.087822 0.366138 0.839862 0.144463
H6    H     H_    0.912193 0.633870 0.160155 0.144460
H7    H     H_    0.912202 0.366124 0.160166 0.144458
H8    H     H_    0.087781 0.633885 0.839814 0.144455
H9    H     H_    0.782998 0.809691 0.852384 0.132405
H10   H     H_    0.216958 0.190267 0.147540 0.132393
H11   H     H_    0.216971 0.809715 0.147565 0.132399
H12   H     H_    0.783041 0.190272 0.852465 0.132396
H13   H     H_    0.283004 0.309696 0.852397 0.132406
H14   H     H_    0.716979 0.690288 0.147577 0.132399
H15   H     H_    0.716976 0.309710 0.147573 0.132400
H16   H     H_    0.283036 0.690276 0.852447 0.132394
H17   H     H_    0.818839 0.812848 0.760589 0.154440
H18   H     H_    0.181039 0.187058 0.239253 0.154441
H19   H     H_    0.181067 0.812917 0.239293 0.154441
H20   H     H_    0.818974 0.187061 0.760769 0.154440
H21   H     H_    0.318865 0.312868 0.760624 0.154440
H22   H     H_    0.681097 0.687105 0.239326 0.154442
H23   H     H_    0.681081 0.312905 0.239310 0.154439
H24   H     H_    0.318948 0.687074 0.760728 0.154439
H25   H     H_    0.530551 0.919850 0.724550 0.167885
H26   H     H_    0.469519 0.080193 0.275529 0.167922
H27   H     H_    0.469485 0.919828 0.275491 0.167893
H28   H     H_    0.530480 0.080194 0.724464 0.167921
H29   H     H_    0.030540 0.419842 0.724536 0.167890
H30   H     H_    0.969475 0.580166 0.275481 0.167898
H31   H     H_    0.969481 0.419830 0.275488 0.167894
H32   H     H_    0.030500 0.580181 0.724490 0.167907
O1    O     O_R   0.678810 0.768970 0.857610 -0.571212
O2    O     O_R   0.321190 0.231030 0.142390 -0.571208
O3    O     O_R   0.321190 0.768970 0.142390 -0.571207
O4    O     O_R   0.678810 0.231030 0.857610 -0.571209
O5    O     O_R   0.178810 0.268970 0.857610 -0.571211
O6    O     O_R   0.821190 0.731030 0.142390 -0.571209
O7    O     O_R   0.821190 0.268970 0.142390 -0.571207
O8    O     O_R   0.178810 0.731030 0.857610 -0.571207
O9    O     O_R   0.730990 0.821160 0.961990 -0.583460
O10   O     O_R   0.269010 0.178840 0.038010 -0.583456
O11   O     O_R   0.269010 0.821160 0.038010 -0.583461
O12   O     O_R   0.730990 0.178840 0.961990 -0.583456
O13   O     O_R   0.230990 0.321160 0.961990 -0.583460
O14   O     O_R   0.769010 0.678840 0.038010 -0.583459
O15   O     O_R   0.769010 0.321160 0.038010 -0.583460
O16   O     O_R   0.230990 0.678840 0.961990 -0.583458
O17   O     O_R   0.642490 0.723880 0.947790 -0.572935
O18   O     O_R   0.357510 0.276120 0.052210 -0.572936
O19   O     O_R   0.357510 0.723880 0.052210 -0.572938
O20   O     O_R   0.642490 0.276120 0.947790 -0.572939
O21   O     O_R   0.142490 0.223880 0.947790 -0.572937
O22   O     O_R   0.857510 0.776120 0.052210 -0.572933
O23   O     O_R   0.857510 0.223880 0.052210 -0.572936
O24   O     O_R   0.142490 0.776120 0.947790 -0.572938
O25   O     O_R   0.694660 0.776070 0.052170 -0.577167
O26   O     O_R   0.305340 0.223930 0.947830 -0.577171
O27   O     O_R   0.305340 0.776070 0.947830 -0.577164
O28   O     O_R   0.694660 0.223930 0.052170 -0.577167
O29   O     O_R   0.194660 0.276070 0.052170 -0.577162
O30   O     O_R   0.805340 0.723930 0.947830 -0.577175
O31   O     O_R   0.805340 0.276070 0.947830 -0.577162
O32   O     O_R   0.194660 0.723930 0.052170 -0.577166
O33   O     O_R   0.997960 0.545070 0.590160 -0.576254
O34   O     O_R   0.002040 0.454930 0.409840 -0.576257
O35   O     O_R   0.002040 0.545070 0.409840 -0.576244
O36   O     O_R   0.997960 0.454930 0.590160 -0.576245
O37   O     O_R   0.497960 0.045070 0.590160 -0.576251
O38   O     O_R   0.502040 0.954930 0.409840 -0.576259
O39   O     O_R   0.502040 0.045070 0.409840 -0.576243
O40   O     O_R   0.497960 0.954930 0.590160 -0.576240
O41   O     O_R   0.092180 0.545060 0.590150 -0.588002
O42   O     O_R   0.907820 0.454940 0.409850 -0.588004
O43   O     O_R   0.907820 0.545060 0.409850 -0.587996
O44   O     O_R   0.092180 0.454940 0.590150 -0.587996
O45   O     O_R   0.592180 0.045060 0.590150 -0.587998
O46   O     O_R   0.407820 0.954940 0.409850 -0.588006
O47   O     O_R   0.407820 0.045060 0.409850 -0.587996
O48   O     O_R   0.592180 0.954940 0.590150 -0.587991
C121  C     C_1   0.744461 0.844378 0.602670 0.249657
N1    N     N_1   0.759954 0.841495 0.557327 -0.257233
C122  C     C_1   0.255356 0.155504 0.397149 0.249644
N2    N     N_1   0.239804 0.158348 0.442438 -0.257245
C123  C     C_1   0.255393 0.844477 0.397186 0.249640
N3    N     N_1   0.239852 0.841628 0.442487 -0.257247
C124  C     C_1   0.744676 0.155498 0.602882 0.249636
N4    N     N_1   0.760238 0.158339 0.557602 -0.257251
C125  C     C_1   0.244507 0.344409 0.602715 0.249649
N5    N     N_1   0.260016 0.341538 0.557386 -0.257242
C126  C     C_1   0.755438 0.655558 0.397230 0.249654
N6    N     N_1   0.739910 0.658418 0.442541 -0.257236
C127  C     C_1   0.755411 0.344462 0.397205 0.249639
N7    N     N_1   0.739876 0.341609 0.442510 -0.257250
C128  C     C_1   0.244625 0.655520 0.602831 0.249639
N8    N     N_1   0.260171 0.658369 0.557535 -0.257249
C129  C     C_1   0.605076 0.871120 0.542043 0.267612
N9    N     N_1   0.561370 0.871705 0.468915 -0.279788
C130  C     C_1   0.394815 0.128844 0.457904 0.267602
N10   N     N_1   0.438495 0.128254 0.531038 -0.279744
C131  C     C_1   0.394838 0.871149 0.457910 0.267673
N11   N     N_1   0.438527 0.871735 0.531043 -0.279738
C132  C     C_1   0.605216 0.128831 0.542108 0.267623
N12   N     N_1   0.561548 0.128234 0.468970 -0.279719
C133  C     C_1   0.105104 0.371130 0.542057 0.267623
N13   N     N_1   0.061404 0.371716 0.468927 -0.279773
C134  C     C_1   0.894861 0.628858 0.457930 0.267613
N14   N     N_1   0.938549 0.628267 0.531062 -0.279758
C135  C     C_1   0.894848 0.371146 0.457918 0.267657
N15   N     N_1   0.938537 0.371734 0.531051 -0.279743
C136  C     C_1   0.105177 0.628846 0.542092 0.267636
N16   N     N_1   0.061495 0.628256 0.468958 -0.279734

loop_
_geom_bond_atom_site_label_1
_geom_bond_atom_site_label_2
_ccdc_geom_bond_type
C60   O20   A    
Cu2   O13   S    
C91   H19   S    
C98   C122  S    
C88   C96   A    
Cu2   O2    S    
C7    O7    A    
C2    C18   S    
C105  C129  S    
C69   C77   T    
C59   O27   A    
C134  N14   T    
Cu12  O48   S    
C82   H10   S    
C110  C118  A    
C71   C79   T    
C50   O34   A    
C3    O3    A    
Cu1   O1    S    
C48   C120  A    
C49   O33   A    
C121  N1    T    
C11   C19   A    
C129  N9    T    
C87   H15   S    
C106  C114  A    
C30   H6    S    
C39   C47   A    
C85   H13   S    
C56   O48   A    
C16   C120  A    
Cu9   O43   S    
C51   O43   A    
C70   C78   T    
C84   H12   S    
C61   O29   A    
Cu7   O7    S    
C136  N16   T    
C66   C74   T    
C53   O45   A    
C64   O32   A    
C28   H4    S    
C65   C73   T    
C106  C130  S    
C46   C118  A    
C103  C111  A    
C135  N15   T    
Cu3   O3    S    
C101  C109  A    
C12   C84   A    
Cu4   O15   S    
Cu3   O19   S    
C26   H2    S    
C86   C94   A    
C59   C67   S    
Cu4   O4    S    
C85   C93   A    
C44   C53   S    
C26   C34   A    
C112  C136  S    
C126  N6    T    
C100  C124  S    
C95   C103  A    
C34   C42   A    
Cu8   O11   S    
C87   C95   A    
C32   H8    S    
C92   H20   S    
Cu7   O23   S    
C132  N12   T    
C15   C119  A    
C3    C19   S    
Cu5   O26   S    
C52   O36   A    
C1    O1    A    
C35   C43   A    
C131  N11   T    
C2    O2    A    
C95   H23   S    
C10   C114  A    
C36   C44   A    
C60   O28   A    
C62   O22   A    
C97   C105  A    
C89   H17   S    
C107  C131  S    
C108  C132  S    
C55   O39   A    
C16   C24   A    
C52   O44   A    
C133  N13   T    
C6    O14   A    
C73   C75   S    
C62   C70   S    
C43   C115  A    
Cu5   O10   S    
C86   H14   S    
C57   O17   A    
C19   C27   A    
C42   C114  A    
C102  C126  S    
C47   C50   S    
C77   C79   S    
C25   H1    S    
C100  C108  A    
C38   C46   A    
Cu1   O17   S    
C109  C117  A    
C99   C123  S    
Cu6   O22   S    
C33   C41   A    
C14   C86   A    
C58   C66   S    
C93   C101  A    
C124  N4    T    
C112  C120  A    
C38   H30   S    
C110  C134  S    
Cu3   O16   S    
C58   O26   A    
C20   C28   A    
C45   C52   S    
C27   C35   A    
C123  N3    T    
C54   O38   A    
Cu8   O8    S    
C21   C29   A    
C29   H5    S    
C10   C82   A    
C53   O37   A    
C4    O4    A    
Cu5   O21   S    
C89   C97   A    
C104  C112  A    
C5    C21   S    
C23   C31   A    
Cu6   O25   S    
C122  N2    T    
C24   C32   A    
C41   C56   S    
C57   O25   A    
C125  N5    T    
Cu6   O6    S    
C3    O11   A    
C11   C115  A    
C8    O16   A    
C43   C54   S    
C128  N8    T    
C54   O46   A    
C94   H22   S    
C1    O9    A    
C18   C26   A    
C12   C20   A    
Cu11  O46   S    
C61   O21   A    
C127  N7    T    
C88   H16   S    
C105  C113  A    
C13   C21   A    
C68   C76   T    
C59   O19   A    
Cu11  O40   S    
C44   C116  A    
C64   O24   A    
Cu6   O9    S    
C51   O35   A    
Cu4   Cu7   S    
C50   O42   A    
C111  C119  A    
C9    C17   A    
C48   C49   S    
C49   O41   A    
C81   H9    S    
C5    O13   A    
C63   O23   A    
C96   C104  A    
Cu11  O47   S    
C29   C37   A    
C63   O31   A    
Cu3   O32   S    
C102  C110  A    
C67   C75   T    
C74   C76   S    
Cu2   O29   S    
C37   C45   A    
Cu11  Cu12  S    
C34   H26   S    
Cu1   O30   S    
C32   C40   A    
Cu5   O5    S    
C47   C119  A    
C92   C100  A    
C104  C128  S    
C37   H29   S    
Cu9   Cu10  S    
C6    O6    A    
C45   C117  A    
Cu7   O12   S    
C40   C48   A    
Cu12  O39   S    
C5    O5    A    
C22   C30   A    
Cu8   O24   S    
Cu12  O38   S    
C40   H32   S    
Cu12  O45   S    
C14   C118  A    
C41   C113  A    
C17   C25   A    
C98   C106  A    
C13   C117  A    
C90   H18   S    
Cu4   O20   S    
Cu1   O14   S    
C56   O40   A    
C109  C133  S    
C12   C116  A    
C103  C127  S    
C99   C107  A    
C1    C17   S    
Cu7   O28   S    
C82   C90   A    
C58   O18   A    
C7    O15   A    
Cu8   O27   S    
C61   C69   S    
C14   C22   A    
Cu2   Cu5   S    
C93   H21   S    
C81   C89   A    
Cu1   Cu6   S    
C72   C80   T    
Cu10  O41   S    
Cu10  O34   S    
C2    O10   A    
C39   H31   S    
C83   H11   S    
Cu9   O42   S    
C108  C116  A    
Cu3   Cu8   S    
C96   H24   S    
C10   C18   A    
C42   C55   S    
C7    C23   S    
C46   C51   S    
Cu4   O31   S    
C15   C23   A    
C8    C24   S    
C31   C39   A    
C107  C115  A    
C78   C80   S    
C64   C72   S    
C83   C91   A    
Cu11  O37   S    
C35   H27   S    
C9    C113  A    
C33   H25   S    
Cu9   O36   S    
Cu10  O44   S    
C60   C68   S    
C36   H28   S    
C55   O47   A    
C4    C20   S    
C8    O8    A    
Cu2   O18   S    
C101  C125  S    
C28   C36   A    
C111  C135  S    
C25   C33   A    
C4    O12   A    
C15   C87   A    
C13   C85   A    
C130  N10   T    
C16   C88   A    
C62   O30   A    
C11   C83   A    
C97   C121  S    
C84   C92   A    
C30   C38   A    
C91   C99   A    
C27   H3    S    
C31   H7    S    
C63   C71   S    
C90   C98   A    
Cu9   O33   S    
Cu10  O35   S    
C94   C102  A    
C9    C81   A    
C57   C65   S    
C6    C22   S    
