data_mof_unit_40473.cif
_audit_creation_date              2013-03-05T16:03:02-0500
_audit_creation_method            fapswitch 2.2
_symmetry_space_group_name_H-M    P1
_symmetry_Int_Tables_number       1
_space_group_crystal_system       triclinic
_cell_length_a                    6.99039
_cell_length_b                    18.473795
_cell_length_c                    20.077397
_cell_angle_alpha                 68.318461
_cell_angle_beta                  89.661746
_cell_angle_gamma                 90.940323
_cell_volume                      2408.81675759

loop_
_atom_site_label
_atom_site_type_symbol
_atom_site_description
_atom_site_fract_x
_atom_site_fract_y
_atom_site_fract_z
_atom_type_partial_charge
O1    O     O_R   0.488990 0.443920 0.942160 -0.562223
O2    O     O_R   0.823840 0.406530 0.087600 -0.575476
O3    O     O_R   0.999650 0.556080 0.057840 -0.570874
C1    C     C_R   0.651751 0.380830 0.113148 1.051814
O4    O     O_R   0.818390 0.434590 0.944530 -0.582658
O5    O     O_R   0.994160 0.584350 0.913750 -0.593146
C2    C     C_R   0.649744 0.419903 0.924651 0.984059
O6    O     O_R   0.494480 0.415650 0.086250 -0.545080
O7    O     O_3   0.662600 0.549100 0.990070 -0.266917
V1    V     V_3+5 0.935320 0.490890 0.001840 1.260886
O8    O     O_R   0.324240 0.593470 0.912400 -0.621844
C3    C     C_R   0.157527 0.620560 0.887810 0.890526
O9    O     O_R   0.329690 0.565410 0.055470 -0.550049
C4    C     C_R   0.161698 0.579439 0.075894 1.014533
V2    V     V_3+5 0.435990 0.509110 0.998160 1.259143
O10   O     O_3   0.158840 0.450900 0.009930 -0.234522
C5    C     C_3   0.993498 0.683380 0.261620 -0.328939
C6    C     C_3   0.353914 0.705396 0.247462 -0.189186
C7    C     C_3   0.323934 0.747048 0.303900 -0.241421
H1    H     H_    0.951925 0.704820 0.360832 0.227535
H2    H     H_    0.023974 0.625176 0.301899 0.197293
H3    H     H_    0.290739 0.699589 0.356697 0.213475
C8    C     C_1   0.112859 0.878184 0.375999 -0.197167
C9    C     C_3   0.159710 0.711382 0.205680 0.070814
C10   C     C_3   0.968566 0.739178 0.302364 -0.284901
C11   C     C_3   0.139376 0.798062 0.287160 -0.009314
C12   C     C_3   0.131931 0.851953 0.205133 0.158349
C13   C     C_3   0.124385 0.798877 0.159048 -0.317864
C14   C     C_1   0.122392 0.842649 0.335862 0.045699
C15   C     C_1   0.157633 0.664315 0.158627 0.000325
C16   C     C_1   0.156889 0.625825 0.120750 -0.088891
H4    H     H_    0.981530 0.802764 0.133963 0.230151
H5    H     H_    0.227472 0.819141 0.113265 0.224128
H6    H     H_    0.858093 0.677821 0.235336 0.200856
H7    H     H_    0.835465 0.770784 0.284732 0.230449
C17   C     C_R   0.292171 0.785391 0.870490 -0.245423
C18   C     C_R   0.285633 0.861354 0.871225 0.374231
C19   C     C_R   0.198348 0.920018 0.816243 -0.190758
C20   C     C_R   0.128116 0.907333 0.756562 -0.146123
C21   C     C_R   0.143508 0.832260 0.751891 0.040350
C22   C     C_R   0.199548 0.767998 0.814384 0.008493
C23   C     C_R   0.109397 0.819602 0.686943 -0.269120
C24   C     C_R   0.088639 0.742659 0.688743 0.083750
C25   C     C_R   0.101825 0.678399 0.754718 0.092058
C26   C     C_R   0.156862 0.689966 0.818244 -0.259757
C27   C     C_R   0.050759 0.728536 0.625405 -0.202934
C28   C     C_R   0.017288 0.653468 0.626880 0.293741
C29   C     C_R   0.020811 0.590058 0.692321 -0.112045
C30   C     C_R   0.066428 0.602758 0.755080 -0.199148
H8    H     H_    0.187383 0.976947 0.819859 0.194363
H9    H     H_    0.043582 0.775708 0.573824 0.143348
H10   H     H_    0.076864 0.552276 0.804122 0.183234
C31   C     C_R   0.540894 0.219096 0.124423 0.196436
C32   C     C_R   0.554481 0.143352 0.125468 -0.081504
C33   C     C_R   0.600995 0.082637 0.187833 -0.085782
C34   C     C_R   0.622756 0.095984 0.250888 -0.205215
C35   C     C_R   0.615871 0.172330 0.251205 0.100611
C36   C     C_R   0.595183 0.236809 0.185371 0.039144
C37   C     C_R   0.626782 0.184266 0.316331 -0.220986
C38   C     C_R   0.650289 0.260562 0.315663 0.041142
C39   C     C_R   0.660153 0.326477 0.249511 0.007134
C40   C     C_R   0.631120 0.314395 0.183441 -0.250476
C41   C     C_R   0.668033 0.271540 0.381206 -0.204764
C42   C     C_R   0.720657 0.343158 0.383189 0.281622
C43   C     C_R   0.752514 0.406551 0.319423 -0.161232
C44   C     C_R   0.700386 0.401380 0.253545 0.238596
H11   H     H_    0.516781 0.130420 0.078722 0.170716
H12   H     H_    0.608169 0.024168 0.188304 0.191938
H13   H     H_    0.647256 0.045843 0.299207 0.127736
H14   H     H_    0.650687 0.223606 0.432151 0.138002
O11   O     O_R   0.770890 0.084490 0.414040 -0.592098
O12   O     O_R   0.445980 0.065450 0.555510 -0.574612
O13   O     O_R   0.270670 0.915620 0.586180 -0.579901
C45   C     C_R   0.614168 0.077680 0.577461 0.945056
O14   O     O_R   0.441480 0.093500 0.412450 -0.586761
O15   O     O_R   0.266140 0.943870 0.442100 -0.592612
C46   C     C_R   0.612047 0.116243 0.385329 0.921018
O16   O     O_R   0.775410 0.056240 0.558120 -0.577277
O17   O     O_3   0.602660 0.950990 0.510100 -0.273419
V3    V     V_3+5 0.329740 0.009100 0.498130 1.220169
O18   O     O_R   0.936120 0.934420 0.444240 -0.581877
C47   C     C_R   0.104531 0.921351 0.423323 0.966899
O19   O     O_R   0.940610 0.906370 0.587310 -0.608787
C48   C     C_R   0.107076 0.885895 0.616413 0.912327
V4    V     V_3+5 0.829110 0.990690 0.501470 1.207525
O20   O     O_3   0.106080 0.049010 0.489880 -0.258100
C49   C     C_3   0.834000 0.219750 0.729798 0.184120
C50   C     C_3   0.515255 0.274924 0.680659 -0.379002
C51   C     C_3   0.503886 0.323180 0.731307 -0.130503
H15   H     H_    0.891414 0.332049 0.740670 0.244958
H16   H     H_    0.371291 0.260225 0.666106 0.191401
H17   H     H_    0.584224 0.308510 0.628226 0.275929
C52   C     C_1   0.641550 0.370153 0.882884 -0.119602
C53   C     C_3   0.626242 0.198532 0.715715 0.148072
C54   C     C_3   0.832667 0.273782 0.773912 -0.443677
C55   C     C_3   0.628052 0.281994 0.800188 0.089887
C56   C     C_3   0.552991 0.195755 0.842194 -0.236941
C57   C     C_3   0.528901 0.151678 0.789088 -0.422942
C58   C     C_1   0.636863 0.329222 0.847233 0.018472
C59   C     C_1   0.623497 0.153295 0.667611 0.098677
C60   C     C_1   0.620869 0.118863 0.626458 -0.149369
H18   H     H_    0.593360 0.093102 0.812987 0.189112
H19   H     H_    0.375688 0.141986 0.779553 0.223393
H20   H     H_    0.665910 0.165216 0.880807 0.153615
H21   H     H_    0.909225 0.165220 0.761065 0.138131
H22   H     H_    0.927166 0.249382 0.821065 0.200580
C61   C     C_2   0.294575 0.911445 0.183347 0.717664
H23   H     H_    0.345060 0.936583 0.221126 -0.096988
O21   O     O_2   0.358806 0.937365 0.122147 -0.495443
C62   C     C_2   0.975515 0.510201 0.696589 0.576424
H24   H     H_    0.976143 0.495555 0.649067 0.113323
O22   O     O_2   0.933230 0.459512 0.754131 -0.605533
C63   C     C_2   0.431845 0.732078 0.917937 0.601880
H25   H     H_    0.533985 0.703580 0.895394 0.031216
O23   O     O_2   0.438336 0.721054 0.981655 -0.555509
Br1   Br    Br    0.401050 0.891139 0.944454 -0.429963
C64   C     C_2   0.016266 0.971125 0.705823 0.528655
H26   H     H_    0.886309 0.957632 0.683390 0.011493
O24   O     O_2   0.064750 0.039252 0.690647 -0.571520
Br2   Br    Br    0.960178 0.641732 0.537835 -0.479191
C65   C     C_2   0.853574 0.476434 0.321375 0.639842
H27   H     H_    0.829044 0.497057 0.364674 0.103268
O25   O     O_2   0.975174 0.509025 0.275868 -0.620202
Br3   Br    Br    0.383385 0.282836 0.048918 -0.563658
Br4   Br    Br    0.753040 0.350892 0.474980 -0.440216
Br5   Br    Br    0.654347 0.501299 0.178051 -0.516203
C66   C     C_2   0.514668 0.737732 0.192233 0.501449
H28   H     H_    0.563931 0.703020 0.162280 0.070548
O26   O     O_2   0.585439 0.802388 0.177814 -0.557503
Br6   Br    Br    0.980516 0.268000 0.640692 -0.497261
C67   C     C_2   0.567692 0.408184 0.691991 0.619953
H29   H     H_    0.562919 0.448385 0.720008 0.044682
O27   O     O_2   0.621208 0.433440 0.629416 -0.529614
C68   C     C_2   0.299416 0.324449 0.754823 0.445483
H30   H     H_    0.201588 0.279605 0.753398 0.085369
O28   O     O_2   0.248376 0.369621 0.782737 -0.573876
C69   C     C_2   0.404864 0.620792 0.288752 0.436837
H31   H     H_    0.327437 0.573438 0.280630 0.106379
O29   O     O_2   0.538535 0.604945 0.330295 -0.556543
C70   C     C_2   0.377758 0.189529 0.889183 0.581943
H32   H     H_    0.380196 0.217550 0.928019 0.067192
O30   O     O_2   0.234768 0.152214 0.885813 -0.574615
C71   C     C_2   0.497105 0.787678 0.320098 0.548740
H33   H     H_    0.555292 0.841205 0.281189 0.064100
O31   O     O_2   0.570072 0.761893 0.379210 -0.532317
Br7   Br    Br    0.906667 0.917678 0.184505 -0.533084

loop_
_geom_bond_atom_site_label_1
_geom_bond_atom_site_label_2
_geom_bond_distance
_ccdc_geom_bond_type
C25   C30   1.412463 A    
C36   C40   1.437354 A    
C29   C62   1.474780 S    
C33   C34   1.385049 A    
C55   C58   1.504997 S    
C8    C47   1.450126 S    
C32   C33   1.382270 A    
C54   C55   1.550649 S    
O11   C46   1.299379 A    
C4    C16   1.455101 S    
C1    O6    1.299082 A    
C37   C46   1.488824 S    
C33   H12   1.078672 S    
H15   C54   1.106417 S    
C18   Br1   1.926795 S    
C31   C32   1.396468 A    
C69   O29   1.221586 D    
C34   H13   1.082435 S    
C11   C12   1.580284 S    
C38   C41   1.409422 A    
C6    C9    1.583900 S    
C8    C14   1.215091 T    
C49   Br6   1.953001 S    
C17   C18   1.410338 A    
C70   O30   1.221283 D    
C64   O24   1.221926 D    
V4    O20   2.168980 S    
C19   C20   1.393696 A    
C35   C37   1.406358 A    
H1    C10   1.113487 S    
C53   C57   1.552096 S    
V2    O10   2.168906 S    
C49   C53   1.552690 S    
C1    C40   1.493585 S    
C34   C35   1.414365 A    
C67   H29   1.085509 S    
C6    C7    1.602099 S    
C7    C11   1.573702 S    
C62   H24   1.083648 S    
V3    O20   1.722246 S    
O11   V4    2.008412 S    
O8    V2    2.019114 S    
C39   C44   1.439007 A    
C50   H17   1.107796 S    
C23   C24   1.413515 A    
C49   C54   1.560260 S    
C61   H23   1.083317 S    
C41   H14   1.082037 S    
O1    V2    1.965190 S    
C53   C59   1.492521 S    
O14   V3    1.990657 S    
C52   C58   1.218436 T    
C56   C70   1.518323 S    
C21   C23   1.427957 A    
C37   C38   1.411457 A    
O9    C4    1.302767 A    
C61   O21   1.221639 D    
C17   C22   1.435491 A    
C17   C63   1.476501 S    
C56   C57   1.570788 S    
C62   O22   1.219219 D    
C2    C52   1.455842 S    
C50   C53   1.548359 S    
C5    C9    1.553885 S    
C9    C13   1.564552 S    
C13   H4    1.112478 S    
C7    H3    1.117980 S    
C23   C48   1.491605 S    
C70   H32   1.083666 S    
O12   C45   1.303277 A    
O15   C47   1.302658 A    
C20   C21   1.429932 A    
O4    C2    1.302992 A    
C68   O28   1.220974 D    
C32   H11   1.083479 S    
C10   C11   1.552388 S    
C20   C64   1.480032 S    
C27   H9    1.081502 S    
O18   C47   1.303455 A    
C44   Br5   1.940671 S    
C38   C39   1.432714 A    
C6    C69   1.523571 S    
O2    C1    1.315176 A    
C24   C25   1.419672 A    
C66   O26   1.216002 D    
C18   C19   1.382420 A    
C54   H22   1.112502 S    
C6    C66   1.524149 S    
C28   C29   1.401132 A    
C49   H21   1.113294 S    
C50   H16   1.106800 S    
C12   C61   1.513205 S    
C31   C36   1.430301 A    
C30   H10   1.081271 S    
C55   C56   1.580910 S    
O14   C46   1.304426 A    
C65   H27   1.084148 S    
O3    C4    1.305829 A    
C10   H7    1.095860 S    
C45   C60   1.449533 S    
O16   V4    1.982054 S    
C21   C22   1.434408 A    
O19   V4    2.018982 S    
C13   H5    1.110608 S    
C43   C44   1.410397 A    
O6    V2    2.012857 S    
C43   C65   1.474812 S    
O9    V2    1.964033 S    
O17   V3    2.175306 S    
O19   C48   1.302984 A    
C5    H6    1.108015 S    
C66   H28   1.086831 S    
O2    V1    1.990561 S    
O17   V4    1.714200 S    
C25   C26   1.422986 A    
C63   H25   1.084634 S    
O7    V1    2.175205 S    
C71   O31   1.221885 D    
C27   C28   1.392032 A    
C28   Br2   1.922138 S    
C7    C71   1.513191 S    
C51   C68   1.505902 S    
O13   C48   1.304863 A    
O1    C2    1.307735 A    
O15   V3    1.976169 S    
C3    C26   1.507268 S    
C67   O27   1.221343 D    
C31   Br3   1.907944 S    
O5    V1    1.997497 S    
O8    C3    1.302194 A    
C68   H30   1.074213 S    
C19   H8    1.084514 S    
C69   H31   1.084318 S    
C51   C67   1.531326 S    
C5    C10   1.545772 S    
C42   C43   1.392981 A    
C51   C55   1.582143 S    
C71   H33   1.079719 S    
O7    V2    1.717963 S    
O4    V1    1.985273 S    
O12   V3    1.985084 S    
O3    V1    1.976209 S    
C57   H18   1.113166 S    
C64   H26   1.081960 S    
O5    C3    1.316569 A    
C35   C36   1.425289 A    
C15   C16   1.217953 T    
C12   Br7   1.955587 S    
C29   C30   1.401835 A    
C59   C60   1.214802 T    
O13   V3    1.997541 S    
C39   C40   1.439132 A    
C24   C27   1.414994 A    
C9    C15   1.501813 S    
C65   O25   1.219597 D    
C56   H20   1.114018 S    
C41   C42   1.382226 A    
C50   C51   1.583116 S    
C11   C14   1.498550 S    
C42   Br4   1.914802 S    
C45   O16   1.304325 A    
C12   C13   1.577820 S    
C22   C26   1.440887 A    
V1    O10   1.722138 S    
O18   V4    1.964277 S    
C57   H19   1.112310 S    
C63   O23   1.220075 D    
C5    H2    1.105694 S    
