data_mof_unit_53976.cif
_audit_creation_date              2012-12-10T20:31:50-0500
_audit_creation_method            fapswitch 2.2
_symmetry_space_group_name_H-M    P1
_symmetry_Int_Tables_number       1
_space_group_crystal_system       triclinic
_cell_length_a                    10.013481
_cell_length_b                    10.808815
_cell_length_c                    15.613067
_cell_angle_alpha                 89.886432
_cell_angle_beta                  69.437739
_cell_angle_gamma                 88.168454
_cell_volume                      1581.31777687

loop_
_atom_site_label
_atom_site_type_symbol
_atom_type_description
_atom_site_fract_x
_atom_site_fract_y
_atom_site_fract_z
_atom_type_partial_charge
C1    C     C_R   0.497978 0.740140 0.500744 0.934653
C2    C     C_R   0.422256 0.469600 0.911228 0.006331
C3    C     C_R   0.274666 0.477044 0.964751 -0.007093
C4    C     C_R   0.525190 0.491593 0.953811 -0.044631
C5    C     C_R   0.476187 0.504633 0.050386 -0.005808
C6    C     C_R   0.327717 0.506188 0.102229 0.011260
C7    C     C_R   0.230068 0.487733 0.059033 -0.229999
C8    C     C_R   0.670852 0.519897 0.904838 -0.183875
C9    C     C_R   0.746850 0.589136 0.948099 0.405435
C10   C     C_R   0.703620 0.584727 0.043431 -0.013029
C11   C     C_R   0.578271 0.523471 0.091760 0.060311
C12   C     C_R   0.411159 0.495134 0.674892 0.902267
C13   C     C_R   0.783278 0.636363 0.092049 -0.269152
C14   C     C_R   0.744379 0.615697 0.186714 0.505011
C15   C     C_R   0.558979 0.481993 0.179391 -0.266123
C16   C     C_R   0.365619 0.942787 0.532688 0.010100
C17   C     C_R   0.491725 0.872746 0.512587 -0.143186
C18   C     C_R   0.611452 0.931926 0.517921 -0.337651
C19   C     C_R   0.608351 0.060180 0.533049 0.547469
C20   C     C_R   0.491882 0.130201 0.525452 -0.214919
C21   C     C_R   0.366580 0.069170 0.537550 -0.089198
C22   C     C_3   0.243697 0.090693 0.505756 -0.233629
C23   C     C_R   0.498368 0.260911 0.506721 0.875803
C24   C     C_3   0.244041 0.949551 0.497659 0.327245
C25   C     C_R   0.892067 0.566215 0.563708 0.323022
C26   C     C_R   0.963403 0.423843 0.442921 0.021775
C27   C     C_R   0.106814 0.426396 0.442087 -0.032204
C28   C     C_R   0.033287 0.564535 0.564609 0.297598
C29   C     C_3   0.028106 0.699965 0.575842 -0.533609
C30   C     C_3   0.877730 0.702542 0.575298 -0.550736
C31   C     C_R   0.588222 0.506731 0.325845 0.921935
C32   C     C_R   0.358807 0.482159 0.774923 -0.327941
C33   C     C_R   0.637947 0.530103 0.228111 -0.125242
C34   C     C_R   0.171442 0.478460 0.923096 -0.275304
C35   C     C_R   0.212938 0.484054 0.828268 0.486525
C36   C     C_R   0.457379 0.448774 0.816573 0.399899
H1    H     H_    0.116911 0.491337 0.098497 0.153158
H2    H     H_    0.869188 0.697333 0.057897 0.183175
H3    H     H_    0.708532 0.880066 0.508999 0.181144
H4    H     H_    0.269888 0.142782 0.440970 0.155535
H5    H     H_    0.146909 0.913643 0.548943 0.097591
H6    H     H_    0.188854 0.366069 0.395824 0.166695
H7    H     H_    0.036855 0.729173 0.641820 0.223335
H8    H     H_    0.476207 0.417228 0.212021 0.162509
H9    H     H_    0.104106 0.738188 0.512471 0.243354
H10   H     H_    0.795703 0.732072 0.641582 0.212008
H11   H     H_    0.870891 0.748123 0.513391 0.212307
H12   H     H_    0.058616 0.479519 0.963911 0.193270
N1    N     N_R   0.856900 0.500860 0.500610 -0.180337
N2    N     N_R   0.142540 0.500820 0.500610 -0.147713
O1    O     O_R   0.385310 0.683210 0.499990 -0.603308
O2    O     O_R   0.614650 0.683240 0.500000 -0.632925
O3    O     O_R   0.319830 0.499970 0.632240 -0.586004
O4    O     O_R   0.549170 0.500000 0.632250 -0.570396
O5    O     O_R   0.385350 0.316760 0.500000 -0.641811
O6    O     O_R   0.614690 0.316790 0.500010 -0.559738
O7    O     O_R   0.450830 0.500000 0.367750 -0.621738
O8    O     O_R   0.680170 0.500030 0.367760 -0.566858
Zn1   Zn    Zn3+2 0.346870 0.499980 0.499990 0.976974
Zn2   Zn    Zn3+2 0.653130 0.500020 0.500010 1.024933
O9    O     O_3   0.718699 0.118131 0.550085 -0.540606
C37   C     C_3   0.771630 0.045939 0.607826 -0.220355
H13   H     H_    0.689375 0.988485 0.657251 0.101229
H14   H     H_    0.808086 0.108057 0.650436 0.196661
H15   H     H_    0.864356 0.986976 0.565951 0.186785
C38   C     C_2   0.114756 0.143090 0.581737 0.885658
O10   O     O_2   0.084332 0.105913 0.660213 -0.697912
O11   O     O_R   0.029019 0.233459 0.561315 -0.792013
H16   H     H_    0.950418 0.268932 0.616907 0.327093
O12   O     O_3   0.272969 0.895131 0.409398 -0.604222
C39   C     C_3   0.381844 0.951144 0.337144 -0.225179
H17   H     H_    0.472215 0.982139 0.356354 0.153706
H18   H     H_    0.336081 0.029493 0.309192 0.164993
H19   H     H_    0.426598 0.881939 0.281169 0.216274
C40   C     C_2   0.932274 0.331106 0.384163 1.031433
O13   O     O_2   0.933883 0.221575 0.403291 -0.574469
O14   O     O_R   0.913616 0.366310 0.303038 -0.799676
H20   H     H_    0.896551 0.293458 0.267825 0.324293
O15   O     O_3   0.787289 0.694266 0.241466 -0.614734
C41   C     C_3   0.934472 0.677308 0.222801 -0.242547
H21   H     H_    0.961144 0.579017 0.230985 0.230182
H22   H     H_    0.963533 0.731693 0.273480 0.207846
H23   H     H_    0.998311 0.710996 0.153708 0.142001
O16   O     O_3   0.879386 0.633648 0.898293 -0.578561
C42   C     C_3   0.858876 0.746995 0.859169 -0.234095
H24   H     H_    0.802010 0.816876 0.912995 0.144464
H25   H     H_    0.800229 0.735201 0.811122 0.165292
H26   H     H_    0.964949 0.783337 0.819394 0.197306
O17   O     O_3   0.111001 0.478886 0.788107 -0.548052
C43   C     C_3   0.100264 0.353646 0.766628 -0.127860
H27   H     H_    0.205388 0.303957 0.734409 0.120825
H28   H     H_    0.047820 0.351307 0.715374 0.203394
H29   H     H_    0.035847 0.303440 0.828848 0.169516
O18   O     O_3   0.563972 0.363540 0.770616 -0.578412
C44   C     C_3   0.506520 0.244183 0.781646 -0.221527
H30   H     H_    0.448852 0.229875 0.733455 0.140782
H31   H     H_    0.435210 0.226178 0.853183 0.148314
H32   H     H_    0.595136 0.174421 0.765492 0.187543
C45   C     C_2   0.267985 0.549433 0.198263 0.850680
O19   O     O_2   0.176733 0.489855 0.253860 -0.678119
O20   O     O_R   0.314292 0.658672 0.224944 -0.794351
H33   H     H_    0.265195 0.677609 0.292574 0.365487
C46   C     C_2   0.759076 0.446634 0.825582 1.105170
O21   O     O_2   0.822722 0.496717 0.753341 -0.639723
O22   O     O_R   0.770044 0.318306 0.834916 -0.808062
H34   H     H_    0.823232 0.273972 0.775036 0.325081

loop_
_geom_bond_atom_site_label_1
_geom_bond_atom_site_label_2
_ccdc_geom_bond_type
C8    C9    A    
C38   O11   S    
C16   C21   A    
O5    Zn1   S    
C44   H30   S    
C40   O13   D    
C14   C33   A    
O3    Zn1   S    
C44   H32   S    
C24   O12   S    
C23   O6    A    
O4    Zn2   S    
O14   H20   S    
C25   C28   A    
C26   C27   A    
O20   H33   S    
N1    Zn2   S    
N2    Zn1   S    
C32   C36   A    
C31   O8    A    
C28   C29   S    
C15   H8    S    
C5    C11   A    
C3    C7    A    
C5    C6    A    
O7    Zn1   S    
O8    Zn2   S    
C34   C35   A    
C22   C38   S    
C37   H14   S    
O2    Zn2   S    
O11   H16   S    
C28   N2    A    
C19   C20   A    
C16   C17   A    
C31   C33   S    
O12   C39   S    
C9    C10   A    
C12   O3    A    
C27   N2    A    
C4    C8    A    
C38   O10   D    
C16   C24   S    
C21   C22   S    
C12   C32   S    
C24   H5    S    
O18   C44   S    
C11   C15   A    
C41   H23   S    
C1    O2    A    
C17   C18   A    
C42   H25   S    
C32   C35   A    
C30   H11   S    
O16   C42   S    
C41   H22   S    
C26   N1    A    
C39   H18   S    
C18   C19   A    
C3    C34   A    
C42   H24   S    
O6    Zn2   S    
C29   H9    S    
C2    C4    A    
C18   H3    S    
C29   C30   S    
C40   O14   S    
C43   H28   S    
C45   O19   D    
C20   C23   S    
C22   H4    S    
C37   H13   S    
C26   C40   S    
C7    H1    S    
C46   O22   S    
C14   O15   S    
C1    O1    A    
C13   H2    S    
C35   O17   S    
C45   O20   S    
C22   C24   S    
O1    Zn1   S    
C43   H29   S    
C42   H26   S    
C2    C36   A    
C25   C30   S    
C37   H15   S    
C30   H10   S    
C41   H21   S    
C10   C13   A    
C39   H19   S    
C44   H31   S    
C23   O5    A    
C6    C7    A    
O22   H34   S    
C1    C17   S    
C29   H7    S    
C6    C45   S    
C31   O7    A    
C2    C3    A    
C39   H17   S    
C27   H6    S    
C43   H27   S    
C19   O9    S    
O9    C37   S    
C8    C46   S    
C25   N1    A    
C10   C11   A    
C9    O16   S    
O15   C41   S    
C36   O18   S    
C4    C5    A    
C34   H12   S    
C20   C21   A    
C46   O21   D    
O17   C43   S    
C13   C14   A    
C15   C33   A    
C12   O4    A    
