data_mof_unit_13378.cif
_audit_creation_date              2012-12-10T18:20:42-0500
_audit_creation_method            fapswitch 2.2
_symmetry_space_group_name_H-M    P1
_symmetry_Int_Tables_number       1
_space_group_crystal_system       triclinic
_cell_length_a                    15.851723
_cell_length_b                    10.635386
_cell_length_c                    9.433742
_cell_angle_alpha                 90.693858
_cell_angle_beta                  90.741655
_cell_angle_gamma                 90.011736
_cell_volume                      1590.17699446

loop_
_atom_site_label
_atom_site_type_symbol
_atom_type_description
_atom_site_fract_x
_atom_site_fract_y
_atom_site_fract_z
_atom_type_partial_charge
C1    C     C_R   0.500739 0.259824 0.499167 0.955945
C2    C     C_R   0.499209 0.740103 0.500805 0.952156
C3    C     C_3   0.576079 0.956747 0.465368 0.187383
C4    C     C_3   0.424305 0.042760 0.534252 0.208688
C5    C     C_3   0.499048 0.876215 0.502226 -0.447898
C6    C     C_3   0.501116 0.123583 0.497579 -0.457624
C7    C     C_3   0.480639 0.962167 0.630997 0.474752
C8    C     C_3   0.519572 0.037417 0.368608 0.471032
C9    C     C_3   0.556760 0.577296 0.053484 -0.192632
C10   C     C_3   0.443279 0.422932 0.946778 -0.168853
C11   C     C_3   0.484113 0.612027 0.950382 -0.169761
C12   C     C_3   0.515987 0.388218 0.049524 -0.138924
C13   C     C_3   0.571501 0.465903 0.952496 0.598909
C14   C     C_3   0.428620 0.534326 0.047458 0.597932
C15   C     C_R   0.340024 0.500438 0.499214 0.811392
C16   C     C_R   0.659965 0.500193 0.500761 0.819640
C17   C     C_3   0.973693 0.470411 0.626853 0.605223
C18   C     C_3   0.026226 0.533623 0.370821 0.590262
C19   C     C_3   0.028419 0.385155 0.530833 -0.430852
C20   C     C_3   0.971450 0.618943 0.466871 -0.468921
C21   C     C_1   0.250406 0.501190 0.497583 -0.124585
C22   C     C_1   0.749555 0.500986 0.502114 -0.135849
C23   C     C_3   0.029176 0.584571 0.594288 0.577241
C24   C     C_3   0.970680 0.419450 0.403467 0.567862
C25   C     C_3   0.083330 0.501133 0.497772 -0.188124
C26   C     C_3   0.916560 0.502938 0.500043 -0.192478
C27   C     C_1   0.174888 0.501505 0.497124 0.113657
C28   C     C_1   0.825049 0.501838 0.501777 0.090479
C29   C     C_3   0.557884 0.042412 0.594212 0.465616
C30   C     C_3   0.442387 0.957144 0.405676 0.466454
Cu1   Cu    Cu3+1 0.500020 0.499990 0.643150 1.034189
Cu2   Cu    Cu3+1 0.499980 0.500010 0.356850 1.035203
H1    H     H_    0.051841 0.289679 0.556772 0.201823
H2    H     H_    0.948107 0.714400 0.440696 0.199147
H3    H     H_    0.470087 0.705109 0.904044 0.214593
H4    H     H_    0.531102 0.295252 0.095349 0.222594
H5    H     H_    0.603441 0.641847 0.104323 0.166389
H6    H     H_    0.395185 0.359857 0.897216 0.170734
N1    N     N_3   0.500060 0.499970 0.858290 -0.212076
N2    N     N_3   0.499940 0.500030 0.141710 -0.211996
O1    O     O_R   0.500040 0.316850 0.620870 -0.527597
O2    O     O_R   0.499960 0.683150 0.379130 -0.531560
O3    O     O_R   0.500000 0.316860 0.379090 -0.570402
O4    O     O_R   0.500000 0.683140 0.620910 -0.572524
O5    O     O_R   0.379090 0.499980 0.620870 -0.609730
O6    O     O_R   0.620910 0.500020 0.379130 -0.608778
O7    O     O_R   0.379060 0.499990 0.379090 -0.513915
O8    O     O_R   0.620940 0.500010 0.620910 -0.519778
F1    F     F_    0.945806 0.439343 0.760169 -0.627420
F2    F     F_    0.054394 0.564515 0.237576 -0.624146
F3    F     F_    0.939410 0.334880 0.303521 -0.650208
F4    F     F_    0.060201 0.668587 0.694929 -0.654301
O9    O     O_3   0.653805 0.899914 0.431438 -0.573715
C31   C     C_3   0.713814 0.993183 0.400538 0.133624
H7    H     H_    0.720871 0.061694 0.490063 0.186924
H8    H     H_    0.695111 0.044003 0.302628 0.190111
C32   C     C_3   0.799113 0.929944 0.376443 -0.397142
H9    H     H_    0.817685 0.876645 0.472592 0.239842
H10   H     H_    0.793690 0.862472 0.285810 0.235250
C33   C     C_3   0.867581 0.026319 0.345250 -0.781694
H11   H     H_    0.850996 0.079538 0.248196 0.283436
H12   H     H_    0.928503 0.977250 0.328129 0.254036
H13   H     H_    0.875369 0.093124 0.435941 0.277596
O10   O     O_3   0.345480 0.095751 0.568581 -0.576099
C34   C     C_3   0.286300 0.000516 0.599347 0.161347
H14   H     H_    0.266815 0.013349 0.711231 0.169124
H15   H     H_    0.310860 0.902460 0.588363 0.140369
C35   C     C_3   0.208879 0.014864 0.502508 -0.368905
H16   H     H_    0.180771 0.109602 0.519037 0.226921
H17   H     H_    0.228367 0.006294 0.390067 0.272716
C36   C     C_3   0.142491 0.914818 0.531987 -0.811339
H18   H     H_    0.168799 0.819266 0.513491 0.274428
H19   H     H_    0.087307 0.927768 0.459934 0.261703
H20   H     H_    0.120859 0.923045 0.643228 0.281223
F5    F     F_    0.616482 0.088811 0.691335 -0.601188
F6    F     F_    0.383092 0.910622 0.309867 -0.635539
F7    F     F_    0.459917 0.922418 0.765114 -0.627693
F8    F     F_    0.538997 0.077362 0.234017 -0.621073
O11   O     O_3   0.647582 0.423368 0.892346 -0.556637
C37   C     C_3   0.714033 0.425388 0.993799 0.047845
H21   H     H_    0.751969 0.338635 0.978025 0.213525
H22   H     H_    0.692462 0.423840 0.105953 0.130648
C38   C     C_3   0.770874 0.539329 0.969240 -0.381252
H23   H     H_    0.796126 0.534330 0.859946 0.280334
H24   H     H_    0.733678 0.627330 0.979291 0.210107
C39   C     C_3   0.844300 0.544008 0.075407 -0.671871
H25   H     H_    0.820382 0.551437 0.185329 0.229466
H26   H     H_    0.884226 0.627419 0.054696 0.273145
H27   H     H_    0.883743 0.458204 0.064875 0.321927
O12   O     O_3   0.351118 0.570324 0.107480 -0.566375
C40   C     C_3   0.292827 0.608319 0.001644 0.013664
H28   H     H_    0.232172 0.559505 0.021175 0.220712
H29   H     H_    0.311248 0.582908 0.891128 0.133392
C41   C     C_3   0.278559 0.750235 0.013772 -0.289923
H30   H     H_    0.257692 0.774447 0.122817 0.271305
H31   H     H_    0.338622 0.800537 0.994091 0.260227
C42   C     C_3   0.211810 0.794126 0.907512 -0.802268
H32   H     H_    0.231660 0.771815 0.797522 0.254194
H33   H     H_    0.203225 0.897365 0.918348 0.249658
H34   H     H_    0.150531 0.747578 0.928080 0.315548

loop_
_geom_bond_atom_site_label_1
_geom_bond_atom_site_label_2
_ccdc_geom_bond_type
C13   O11   S    
C7    C29   S    
C15   O7    A    
C16   O8    A    
C42   H32   S    
C32   H9    S    
O9    C31   S    
C17   C23   S    
C33   H13   S    
C18   C24   S    
C17   C26   S    
C24   C26   S    
C4    C7    S    
C11   C14   S    
C39   H26   S    
C32   H10   S    
C33   H12   S    
C3    C29   S    
C9    C13   S    
C14   O12   S    
C1    O3    A    
C38   H23   S    
C2    O4    A    
C35   H16   S    
C34   H15   S    
C12   H4    S    
O12   C40   S    
C7    F7    S    
C20   H2    S    
C24   F3    S    
C23   C25   S    
C21   C27   T    
C22   C28   T    
C8    F8    S    
C18   C25   S    
C37   C38   S    
C42   H33   S    
C31   H8    S    
Cu1   O4    S    
C1    C6    S    
C37   H22   S    
C3    C8    S    
C19   H1    S    
C16   O6    A    
C40   H28   S    
C5    C7    S    
C39   H25   S    
C32   C33   S    
C6    C8    S    
C41   C42   S    
C9    N2    S    
C33   H11   S    
C12   N2    S    
C41   H31   S    
C40   H29   S    
C30   F6    S    
Cu1   Cu2   S    
C20   C23   S    
C34   C35   S    
C6    C29   S    
C9    H5    S    
C11   N1    S    
C9    C11   S    
C10   C12   S    
C1    O1    A    
C38   H24   S    
Cu1   O8    S    
C10   C14   S    
Cu2   O7    S    
C4    C6    S    
C15   O5    A    
C17   F1    S    
C42   H34   S    
C18   F2    S    
C36   H19   S    
C5    C30   S    
C31   H7    S    
C16   C22   S    
Cu1   O1    S    
Cu2   O6    S    
C37   H21   S    
C3    C5    S    
C39   H27   S    
C36   H20   S    
C29   F5    S    
C25   C27   S    
C4    O10   S    
C26   C28   S    
C10   H6    S    
C8    C30   S    
O10   C34   S    
C11   H3    S    
C19   C24   S    
C36   H18   S    
C40   C41   S    
C3    O9    S    
C23   F4    S    
C20   C26   S    
C2    O2    A    
C35   C36   S    
C17   C19   S    
Cu2   O3    S    
Cu1   N1    S    
C18   C20   S    
Cu2   N2    S    
C41   H30   S    
C19   C25   S    
C13   N1    S    
C14   N2    S    
O11   C37   S    
C2    C5    S    
C15   C21   S    
C38   C39   S    
C12   C13   S    
C35   H17   S    
C34   H14   S    
Cu1   O5    S    
Cu2   O2    S    
C10   N1    S    
C4    C30   S    
C31   C32   S    
