data_mof_unit_59136.cif
_audit_creation_date              2012-12-10T16:53:31-0500
_audit_creation_method            fapswitch 2.2
_symmetry_space_group_name_H-M    P1
_symmetry_Int_Tables_number       1
_space_group_crystal_system       triclinic
_cell_length_a                    7.810178
_cell_length_b                    8.573799
_cell_length_c                    13.562065
_cell_angle_alpha                 92.417248
_cell_angle_beta                  77.728264
_cell_angle_gamma                 93.930996
_cell_volume                      884.961512936

loop_
_atom_site_label
_atom_site_type_symbol
_atom_type_description
_atom_site_fract_x
_atom_site_fract_y
_atom_site_fract_z
_atom_type_partial_charge
C1    C     C_R   0.546284 0.794799 0.497685 0.961781
C2    C     C_1   0.572268 0.490557 0.117858 -0.056585
C3    C     C_2   0.570497 0.958422 0.496550 -0.377323
C4    C     C_2   0.429208 0.041657 0.504686 -0.382332
C5    C     C_3   0.123686 0.582247 0.029577 0.115183
C6    C     C_3   0.143154 0.761157 0.026077 -0.374755
C7    C     C_3   0.983131 0.826789 0.998603 -0.903332
C8    C     C_3   0.787309 0.337521 0.930354 0.035851
C9    C     C_3   0.909143 0.321028 0.826370 -0.289593
C10   C     C_3   0.002869 0.168900 0.814829 -0.969854
C11   C     C_R   0.453612 0.205228 0.502775 0.958242
C12   C     C_R   0.469048 0.503931 0.687540 0.904887
C13   C     C_R   0.530996 0.496376 0.312393 0.906136
C14   C     C_1   0.556027 0.492679 0.206881 -0.181429
C15   C     C_1   0.443773 0.509829 0.792930 -0.187580
C16   C     C_2   0.571396 0.491764 0.013567 0.381802
C17   C     C_2   0.419126 0.514390 0.987775 0.398421
C18   C     C_1   0.424581 0.514067 0.882090 -0.096702
H1    H     H_    0.703777 0.009815 0.488797 0.180617
H2    H     H_    0.998632 0.956445 0.999331 0.252958
H3    H     H_    0.861920 0.791043 0.054166 0.271982
H4    H     H_    0.677641 0.245547 0.934704 0.131385
H5    H     H_    0.860224 0.318270 0.990450 0.149856
H6    H     H_    0.830720 0.323686 0.767034 0.231199
H7    H     H_    0.009067 0.420822 0.814486 0.231882
H8    H     H_    0.089071 0.167863 0.870206 0.263114
H9    H     H_    0.085589 0.159073 0.737606 0.273194
H10   H     H_    0.905905 0.066857 0.826647 0.267215
H11   H     H_    0.295897 0.990284 0.512561 0.180550
H12   H     H_    0.024932 0.378174 0.425542 0.195555
H13   H     H_    0.975030 0.621681 0.574567 0.191039
H14   H     H_    0.002067 0.548992 0.085562 0.181312
H15   H     H_    0.104475 0.529173 0.956459 0.153214
H16   H     H_    0.158076 0.810141 0.101197 0.233883
H17   H     H_    0.262180 0.798327 0.969309 0.214109
H18   H     H_    0.969746 0.784042 0.921964 0.283745
N1    N     N_2   0.954190 0.457600 0.473930 -0.168869
N2    N     N_2   0.045810 0.542400 0.526070 -0.172592
O1    O     O_R   0.388300 0.738660 0.506400 -0.610873
O2    O     O_3   0.727198 0.490233 0.941741 -0.669412
O3    O     O_R   0.611700 0.261340 0.493600 -0.612061
O4    O     O_R   0.679920 0.711490 0.489690 -0.626332
O5    O     O_R   0.320080 0.288510 0.510310 -0.630442
O6    O     O_R   0.333200 0.515510 0.649910 -0.618492
O7    O     O_R   0.666800 0.484490 0.350090 -0.612861
O8    O     O_R   0.624820 0.488340 0.633200 -0.618413
O9    O     O_R   0.375180 0.511660 0.366800 -0.602896
O10   O     O_3   0.265378 0.522046 0.062707 -0.672411
Zn1   Zn    Zn3+2 0.305280 0.518140 0.511160 0.942303
Zn2   Zn    Zn3+2 0.694720 0.481860 0.488840 0.943725

loop_
_geom_bond_atom_site_label_1
_geom_bond_atom_site_label_2
_ccdc_geom_bond_type
C10   H9    S    
O6    Zn1   S    
C15   C18   T    
C8    H4    S    
C12   C15   S    
C9    H6    S    
C11   O5    A    
C6    C7    S    
C2    C16   S    
C9    C10   S    
O8    Zn2   S    
C4    H11   S    
H13   N2    S    
C17   O10   S    
C5    H14   S    
C17   C18   S    
C8    C9    S    
C9    H7    S    
C12   O6    A    
N2    Zn1   S    
C13   C14   S    
C4    C11   S    
C3    H1    S    
N1    Zn2   S    
C10   H8    S    
N1    N2    D    
O7    Zn2   S    
O4    Zn2   S    
C12   O8    A    
O1    Zn1   S    
C16   O2    S    
C11   O3    A    
C5    C6    S    
C2    C14   T    
C5    O10   S    
C1    O1    A    
C3    C4    D    
C1    O4    A    
C8    H5    S    
C6    H17   S    
C13   O7    A    
O9    Zn1   S    
C7    H2    S    
C7    H18   S    
C10   H10   S    
C13   O9    A    
O3    Zn2   S    
O5    Zn1   S    
C8    O2    S    
C7    H3    S    
C6    H16   S    
H12   N1    S    
C16   C17   D    
C1    C3    S    
C5    H15   S    
