data_mof_unit_10869.cif
_audit_creation_date              2012-10-26T19:40:29-0400
_audit_creation_method            fapswitch 2.2
_symmetry_space_group_name_H-M    P1
_symmetry_Int_Tables_number       1
_space_group_crystal_system       triclinic
_cell_length_a                    9.784708
_cell_length_b                    10.913344
_cell_length_c                    13.445879
_cell_angle_alpha                 90.24944
_cell_angle_beta                  72.449334
_cell_angle_gamma                 88.416048
_cell_volume                      1368.32313818

loop_
_atom_site_label
_atom_site_type_symbol
_atom_type_description
_atom_site_fract_x
_atom_site_fract_y
_atom_site_fract_z
_atom_type_partial_charge
C1    C     C_R   0.495898 0.734355 0.506108 0.573308
C2    C     C_R   0.384479 0.455692 0.811594 -0.008246
C3    C     C_2   0.561615 0.066525 0.558257 -0.008807
C4    C     C_R   0.424635 0.485898 0.698919 0.532157
C5    C     C_2   0.512885 0.132843 0.490295 0.224698
C6    C     C_2   0.586104 0.932805 0.542405 0.262325
C7    C     C_2   0.482119 0.865965 0.524818 -0.015140
C8    C     C_2   0.053685 0.582784 0.547509 0.098584
C9    C     C_2   0.897210 0.566186 0.561585 0.047173
C10   C     C_R   0.502261 0.265782 0.499237 0.546096
C11   C     C_R   0.577427 0.501966 0.299825 0.551434
C12   C     C_R   0.445844 0.442707 0.975899 0.026522
C13   C     C_R   0.799919 0.504484 0.014318 -0.082311
C14   C     C_R   0.622480 0.498822 0.184530 0.013507
C15   C     C_R   0.238980 0.448900 0.868002 -0.131850
C16   C     C_R   0.197352 0.432720 0.975302 -0.140361
C17   C     C_R   0.297805 0.435165 0.029574 -0.107706
C18   C     C_3   0.873955 0.576259 0.166486 -0.380155
C19   C     C_3   0.090369 0.700970 0.589868 -0.309889
C20   C     C_3   0.934842 0.422411 0.417739 -0.212562
C21   C     C_3   0.593045 0.124435 0.651303 -0.427391
C22   C     C_R   0.489232 0.437796 0.865340 -0.003267
C23   C     C_R   0.552449 0.457918 0.027327 -0.018710
C24   C     C_R   0.698263 0.466273 0.967277 0.081811
C25   C     C_R   0.740947 0.434931 0.861179 0.222074
C26   C     C_R   0.635906 0.413976 0.812797 -0.116119
C27   C     C_R   0.518713 0.469337 0.136069 -0.142969
C28   C     C_R   0.763019 0.524682 0.122031 -0.035764
Cu1   Cu    Cu3+1 0.361370 0.499980 0.499980 0.920388
Cu2   Cu    Cu3+1 0.638630 0.500020 0.500020 0.939271
H1    H     H_    0.379511 0.909461 0.528011 0.095227
H2    H     H_    0.826798 0.654371 0.220195 0.171962
H3    H     H_    0.915498 0.503753 0.208071 0.135533
H4    H     H_    0.966445 0.611894 0.104426 0.115908
H5    H     H_    0.456657 0.139516 0.363305 0.328512
H6    H     H_    0.779255 0.942374 0.552738 0.319472
H7    H     H_    0.992582 0.753480 0.635543 0.087718
H8    H     H_    0.154748 0.682743 0.643634 0.171875
H9    H     H_    0.146449 0.760510 0.524529 0.156217
H10   H     H_    0.963921 0.335406 0.449728 0.079150
H11   H     H_    0.027260 0.471283 0.366235 0.107855
H12   H     H_    0.120714 0.412873 0.502906 0.214633
H13   H     H_    0.871858 0.391173 0.367611 0.171457
H14   H     H_    0.896789 0.400134 0.733238 0.318480
H15   H     H_    0.612610 0.053281 0.704655 0.144308
H16   H     H_    0.690219 0.180247 0.625075 0.144158
H17   H     H_    0.500197 0.182926 0.696549 0.126834
H18   H     H_    0.820855 0.623413 0.619773 0.158256
H19   H     H_    0.908100 0.521300 0.966331 0.155299
H20   H     H_    0.411431 0.454892 0.185102 0.130283
H21   H     H_    0.157003 0.455805 0.829156 0.177564
H22   H     H_    0.255566 0.429700 0.113150 0.097849
H23   H     H_    0.085723 0.421969 0.017703 0.122520
H24   H     H_    0.671440 0.376989 0.734466 0.136751
N1    N     N_2   0.152660 0.501340 0.501130 -0.345354
N2    N     N_2   0.846520 0.501370 0.501160 -0.255267
O1    O     O_R   0.382960 0.678040 0.499980 -0.524859
O2    O     O_3   0.712904 0.877466 0.547232 -0.690541
O3    O     O_3   0.885348 0.423653 0.806674 -0.740304
O4    O     O_R   0.617100 0.678080 0.500020 -0.417099
O5    O     O_R   0.325800 0.499940 0.650950 -0.502224
O6    O     O_R   0.559930 0.499980 0.650990 -0.514744
O7    O     O_R   0.382900 0.321920 0.499980 -0.511719
O8    O     O_R   0.617040 0.321960 0.500020 -0.520533
O9    O     O_R   0.440070 0.500020 0.349010 -0.495107
O10   O     O_R   0.674200 0.500060 0.349050 -0.513986
O11   O     O_3   0.485165 0.075986 0.406386 -0.734181

loop_
_geom_bond_atom_site_label_1
_geom_bond_atom_site_label_2
_ccdc_geom_bond_type
C12   C17   A    
C2    C22   A    
C2    C4    S    
C23   C24   A    
Cu1   O7    S    
C13   C28   A    
Cu2   N2    S    
C6    C7    D    
H5    O11   S    
C19   H8    S    
C1    O1    A    
H12   N1    S    
Cu1   Cu2   S    
C25   O3    S    
C19   H7    S    
C6    O2    S    
C21   H15   S    
C10   O7    A    
C27   H20   S    
C5    O11   S    
C20   N2    S    
C3    C6    S    
C4    O6    A    
C3    C5    D    
C20   H11   S    
C18   C28   S    
C5    C10   S    
C9    N2    D    
C2    C15   A    
C18   H4    S    
C12   C23   A    
Cu2   O8    S    
Cu2   O10   S    
C19   H9    S    
Cu1   O9    S    
C26   H24   S    
C8    N1    D    
C15   H21   S    
Cu1   O1    S    
H6    O2    S    
C23   C27   A    
Cu2   O6    S    
C14   C27   A    
C18   H3    S    
C13   H19   S    
C3    C21   S    
C8    C19   S    
C18   H2    S    
Cu1   O5    S    
H14   O3    S    
C15   C16   A    
C12   C22   A    
C20   H13   S    
C7    H1    S    
C24   C25   A    
C17   H22   S    
C9    H18   S    
C21   H16   S    
C22   C26   A    
C1    O4    A    
C11   C14   S    
C16   H23   S    
C8    C9    S    
Cu1   N1    S    
C14   C28   A    
C25   C26   A    
C1    C7    S    
C20   H10   S    
C4    O5    A    
C10   O8    A    
C11   O9    A    
C13   C24   A    
C16   C17   A    
C21   H17   S    
C11   O10   A    
Cu2   O4    S    
