data_mof_unit_55769.cif
_audit_creation_date              2012-12-10T16:51:17-0500
_audit_creation_method            fapswitch 2.2
_symmetry_space_group_name_H-M    P1
_symmetry_Int_Tables_number       1
_space_group_crystal_system       triclinic
_cell_length_a                    27.780419
_cell_length_b                    8.667935
_cell_length_c                    7.440742
_cell_angle_alpha                 102.978843
_cell_angle_beta                  93.846318
_cell_angle_gamma                 92.404556
_cell_volume                      1739.01811935

loop_
_atom_site_label
_atom_site_type_symbol
_atom_type_description
_atom_site_fract_x
_atom_site_fract_y
_atom_site_fract_z
_atom_type_partial_charge
C1    C     C_R   0.498542 0.199698 0.453222 0.889645
C2    C     C_R   0.501457 0.800302 0.546778 0.889645
C3    C     C_R   0.102237 0.499765 0.512587 -0.043151
C4    C     C_R   0.897763 0.500240 0.487413 -0.043151
C5    C     C_R   0.125336 0.355752 0.473315 -0.020720
C6    C     C_R   0.874664 0.644254 0.526687 -0.020720
C7    C     C_R   0.097617 0.212533 0.430052 -0.146395
C8    C     C_R   0.902383 0.787472 0.569950 -0.146395
C9    C     C_R   0.130596 0.643690 0.557296 -0.019630
C10   C     C_R   0.869404 0.356316 0.442703 -0.019630
C11   C     C_R   0.354963 0.500925 0.510334 -0.044729
C12   C     C_R   0.645037 0.499076 0.489666 -0.044728
C13   C     C_R   0.971679 0.353334 0.454597 0.043972
C14   C     C_R   0.028321 0.646672 0.545403 0.043972
C15   C     C_R   0.977033 0.646803 0.538622 0.045411
C16   C     C_R   0.022967 0.353202 0.461379 0.045411
C17   C     C_R   0.949058 0.500128 0.493480 0.069611
C18   C     C_R   0.050942 0.499877 0.506520 0.069611
C19   C     C_R   0.941879 0.211137 0.409777 -0.215591
C20   C     C_R   0.058121 0.788868 0.590222 -0.215591
C21   C     C_R   0.891893 0.213019 0.404026 -0.140185
C22   C     C_R   0.108107 0.786986 0.595973 -0.140184
C23   C     C_R   0.407609 0.500066 0.503079 0.804228
C24   C     C_R   0.592391 0.499934 0.496921 0.804230
C25   C     C_R   0.047571 0.210860 0.424465 -0.213654
C26   C     C_R   0.952429 0.789145 0.575537 -0.213655
C27   C     C_2   0.497844 0.031732 0.426877 -0.362748
C28   C     C_2   0.502156 0.968268 0.573123 -0.362748
C29   C     C_R   0.175942 0.358360 0.477236 0.558786
C30   C     C_R   0.824058 0.641645 0.522766 0.558785
C31   C     C_R   0.181122 0.640986 0.561817 0.541230
C32   C     C_R   0.818878 0.359019 0.438183 0.541230
C33   C     C_R   0.276447 0.545836 0.375768 -0.083161
C34   C     C_R   0.723553 0.454165 0.624232 -0.083161
C35   C     C_R   0.326370 0.544546 0.369250 -0.203905
C36   C     C_R   0.673630 0.455454 0.630749 -0.203906
C37   C     C_R   0.332912 0.457538 0.657592 -0.248182
C38   C     C_R   0.667088 0.542467 0.342411 -0.248182
C39   C     C_R   0.282658 0.455386 0.662368 0.021811
C40   C     C_R   0.717342 0.544621 0.337635 0.021810
C41   C     C_R   0.254277 0.500153 0.520653 0.306010
C42   C     C_R   0.745723 0.499851 0.479349 0.306011
Cu1   Cu    Cu3+1 0.505380 0.517380 0.684380 0.958408
Cu2   Cu    Cu3+1 0.494620 0.482620 0.315620 0.958408
H1    H     H_    0.354704 0.422742 0.766720 0.153930
H2    H     H_    0.645296 0.577265 0.233283 0.153930
H3    H     H_    0.462188 0.378275 0.948776 0.225305
H4    H     H_    0.537812 0.621725 0.051224 0.225305
H5    H     H_    0.114525 0.100141 0.399938 0.187118
H6    H     H_    0.885475 0.899864 0.600065 0.187118
H7    H     H_    0.657351 0.420515 0.744921 0.161976
H8    H     H_    0.342649 0.579481 0.255076 0.161976
H9    H     H_    0.745235 0.418183 0.732426 0.162558
H10   H     H_    0.254765 0.581817 0.267573 0.162560
H11   H     H_    0.870877 0.100704 0.369145 0.195336
H12   H     H_    0.129123 0.899301 0.630852 0.195336
H13   H     H_    0.955721 0.094964 0.377687 0.139285
H14   H     H_    0.044278 0.905041 0.622311 0.139285
H15   H     H_    0.029479 0.094733 0.390096 0.136312
H16   H     H_    0.970521 0.905273 0.609906 0.136312
H17   H     H_    0.493783 0.959999 0.286017 0.180493
H18   H     H_    0.506217 0.040001 0.713982 0.180493
N1    N     N_R   0.202653 0.499675 0.521739 -0.472284
N2    N     N_R   0.797347 0.500330 0.478263 -0.472284
N3    N     N_2   0.486510 0.456430 0.038510 -0.217055
N4    N     N_2   0.513490 0.543570 0.961490 -0.217055
O1    O     O_R   0.503500 0.286120 0.619780 -0.585309
O2    O     O_R   0.496500 0.713880 0.380220 -0.585309
O3    O     O_R   0.494410 0.256780 0.308360 -0.582060
O4    O     O_R   0.505590 0.743220 0.691640 -0.582060
O5    O     O_R   0.434810 0.514700 0.655690 -0.589937
O6    O     O_R   0.565190 0.485300 0.344310 -0.589937
O7    O     O_R   0.425720 0.485350 0.344280 -0.582295
O8    O     O_R   0.574280 0.514650 0.655720 -0.582295
O9    O     O_2   0.198313 0.220994 0.435598 -0.510889
O10   O     O_2   0.801687 0.779011 0.564406 -0.510889
O11   O     O_2   0.791418 0.221640 0.394026 -0.512348
O12   O     O_2   0.208582 0.778365 0.605972 -0.512348
C43   C     C_1   0.260617 0.405824 0.811842 0.275614
N5    N     N_1   0.242780 0.365225 0.930916 -0.262813
C44   C     C_1   0.739382 0.594187 0.188163 0.275615
N6    N     N_1   0.757220 0.634790 0.069092 -0.262809

loop_
_geom_bond_atom_site_label_1
_geom_bond_atom_site_label_2
_ccdc_geom_bond_type
C29   N1    A    
C30   N2    A    
C8    C26   A    
C14   C18   A    
C34   C42   A    
C44   N6    T    
C39   C41   A    
C19   H13   S    
C3    C18   A    
C19   C21   A    
C2    O2    A    
C9    C22   A    
C33   H10   S    
C14   C20   A    
C11   C37   A    
C27   H17   S    
C1    O1    A    
C32   O11   S    
C12   C36   A    
Cu1   O8    S    
C40   C42   A    
Cu2   N3    S    
C23   O7    A    
C5    C29   A    
C10   C21   A    
C13   C19   A    
C31   N1    A    
C7    H5    S    
C4    C6    A    
C21   H11   S    
C15   C26   A    
C6    C8    A    
C1    O3    A    
C39   C43   S    
Cu1   Cu2   S    
C3    C9    A    
C23   O5    A    
C30   O10   S    
Cu2   O3    S    
C32   N2    A    
C36   H7    S    
C4    C17   A    
C16   C18   A    
C6    C30   A    
C20   C22   A    
Cu1   O4    S    
Cu2   O2    S    
C41   N1    S    
C20   H14   S    
C42   N2    S    
C35   H8    S    
C24   O6    A    
C31   O12   S    
C5    C7    A    
C16   C25   A    
C15   C17   A    
Cu1   O5    S    
C40   C44   S    
C4    C10   A    
C3    C5    A    
C22   H12   S    
C29   O9    S    
C12   C24   S    
C7    C25   A    
C13   C17   A    
C33   C41   A    
C11   C35   A    
C37   C39   A    
C38   C40   A    
C24   O8    A    
C26   H16   S    
Cu1   N4    S    
C11   C23   S    
C33   C35   A    
Cu2   O6    S    
C8    H6    S    
C34   C36   A    
C12   C38   A    
Cu2   O7    S    
C38   H2    S    
C9    C31   A    
C43   N5    T    
C10   C32   A    
C34   H9    S    
Cu1   O1    S    
N3    N4    D    
C13   C16   A    
C27   C28   D    
C1    C27   S    
C14   C15   A    
C2    C28   S    
C25   H15   S    
H4    N4    S    
C2    O4    A    
C37   H1    S    
H3    N3    S    
C28   H18   S    
