data_mof_unit_50524.cif
_audit_creation_date              2012-12-10T18:05:57-0500
_audit_creation_method            fapswitch 2.2
_symmetry_space_group_name_H-M    P1
_symmetry_Int_Tables_number       1
_space_group_crystal_system       triclinic
_cell_length_a                    12.586154
_cell_length_b                    13.212114
_cell_length_c                    14.992691
_cell_angle_alpha                 91.011711
_cell_angle_beta                  102.559787
_cell_angle_gamma                 82.55465
_cell_volume                      2412.80918941

loop_
_atom_site_label
_atom_site_type_symbol
_atom_type_description
_atom_site_fract_x
_atom_site_fract_y
_atom_site_fract_z
_atom_type_partial_charge
C1    C     C_R   0.439210 0.691197 0.486959 0.864587
C2    C     C_R   0.408121 0.469559 0.075857 0.080081
C3    C     C_R   0.663350 0.585683 0.077671 -0.218871
C4    C     C_R   0.664664 0.583705 0.985360 -0.222202
C5    C     C_R   0.581117 0.543775 0.922913 0.135812
C6    C     C_R   0.494123 0.506203 0.952583 0.020374
C7    C     C_R   0.408952 0.466058 0.889764 0.079394
C8    C     C_R   0.321518 0.429763 0.920511 0.170122
C9    C     C_R   0.323097 0.431561 0.013990 -0.270006
C10   C     C_R   0.583383 0.540850 0.831103 -0.256557
C11   C     C_R   0.500398 0.500647 0.769192 -0.079504
C12   C     C_R   0.500645 0.499938 0.673147 0.895130
C13   C     C_R   0.414622 0.462849 0.798165 -0.263697
C14   C     C_R   0.726366 0.056755 0.491599 -0.202105
C15   C     C_R   0.598061 0.200415 0.516868 -0.055480
C16   C     C_R   0.309327 0.833472 0.521411 -0.229335
C17   C     C_R   0.299946 0.926588 0.564910 -0.200682
C18   C     C_R   0.384079 0.988797 0.575887 0.176088
C19   C     C_R   0.468317 0.965445 0.524572 0.054732
C20   C     C_R   0.477970 0.869610 0.481647 0.050658
C21   C     C_R   0.546164 0.031012 0.516697 0.077502
C22   C     C_R   0.644530 0.993424 0.488956 0.170586
C23   C     C_R   0.560953 0.309056 0.511128 0.869128
C24   C     C_R   0.653448 0.898061 0.449051 -0.250142
C25   C     C_R   0.566177 0.841580 0.437553 -0.181524
C26   C     C_R   0.520838 0.135490 0.521352 -0.252658
C27   C     C_R   0.704270 0.160347 0.509085 -0.219010
C28   C     C_R   0.403549 0.800675 0.488523 -0.114720
C29   C     C_R   0.089061 0.346188 0.371991 -0.317042
C30   C     C_R   0.800815 0.629166 0.609040 0.029634
C31   C     C_R   0.905947 0.656819 0.631183 -0.255773
C32   C     C_R   0.986560 0.607774 0.589263 -0.191682
C33   C     C_R   0.962281 0.529990 0.524615 0.015630
C34   C     C_R   0.498692 0.501404 0.326794 0.876667
C35   C     C_R   0.854114 0.504562 0.504830 0.173481
C36   C     C_R   0.040695 0.476639 0.479545 -0.038190
C37   C     C_R   0.009483 0.399383 0.414697 0.111715
C38   C     C_R   0.900227 0.376688 0.393917 0.094871
C39   C     C_R   0.825922 0.428191 0.441512 -0.228055
C40   C     C_R   0.150129 0.497145 0.496356 -0.037466
C41   C     C_R   0.195070 0.370531 0.391782 0.014720
C42   C     C_R   0.409764 0.468613 0.168495 -0.235602
C43   C     C_R   0.495366 0.505934 0.230340 -0.077391
C44   C     C_R   0.578355 0.547125 0.200120 -0.285744
C45   C     C_R   0.578556 0.547611 0.107908 0.135464
C46   C     C_R   0.493306 0.508112 0.045318 0.058300
H1    H     H_    0.345334 0.437270 0.192438 0.158083
H2    H     H_    0.723750 0.870789 0.420371 0.148453
H3    H     H_    0.804013 0.027726 0.474634 0.137737
H4    H     H_    0.436711 0.166899 0.517603 0.161277
H5    H     H_    0.249955 0.781885 0.524657 0.162788
H6    H     H_    0.232242 0.944416 0.598894 0.137004
H7    H     H_    0.570311 0.773674 0.396334 0.166140
H8    H     H_    0.256527 0.330207 0.359113 0.129811
H9    H     H_    0.071423 0.285541 0.323886 0.136753
H10   H     H_    0.643856 0.577247 0.248388 0.168205
H11   H     H_    0.181161 0.553887 0.543804 0.121156
H12   H     H_    0.737560 0.667121 0.641069 0.135364
H13   H     H_    0.066475 0.632574 0.609036 0.132237
H14   H     H_    0.924950 0.716189 0.680575 0.147771
H15   H     H_    0.728939 0.616125 0.125441 0.147102
H16   H     H_    0.731199 0.612847 0.962821 0.144174
H17   H     H_    0.649248 0.570529 0.807866 0.155890
H18   H     H_    0.257492 0.403394 0.038799 0.144342
N1    N     N_R   0.222190 0.444670 0.452360 -0.103906
N2    N     N_R   0.776970 0.554790 0.547140 -0.126105
O1    O     O_R   0.366740 0.627160 0.477250 -0.615946
O2    O     O_R   0.544830 0.662520 0.507680 -0.618293
O3    O     O_R   0.410940 0.482340 0.616930 -0.629468
O4    O     O_R   0.589030 0.517700 0.647360 -0.622586
O5    O     O_R   0.455170 0.337480 0.492320 -0.624708
O6    O     O_R   0.633260 0.372840 0.522750 -0.639814
O7    O     O_R   0.410970 0.482300 0.352640 -0.620598
O8    O     O_R   0.589060 0.517660 0.383070 -0.649957
Zn1   Zn    Zn3+2 0.381090 0.476390 0.479680 0.933668
Zn2   Zn    Zn3+2 0.618910 0.523610 0.520320 0.924576
C47   C     C_3   0.389633 0.064368 0.654735 -0.425047
C48   C     C_3   0.495584 0.041009 0.727526 -0.841373
H19   H     H_    0.505936 0.960322 0.750979 0.259096
H20   H     H_    0.568119 0.054734 0.700956 0.265937
H21   H     H_    0.491755 0.091431 0.787106 0.244283
H22   H     H_    0.377509 0.145081 0.632889 0.198032
H23   H     H_    0.321099 0.059304 0.689746 0.199367
C49   C     C_3   0.864954 0.297510 0.321273 -0.409558
C50   C     C_3   0.742001 0.289656 0.292616 -0.881366
H24   H     H_    0.710408 0.261792 0.349748 0.253649
H25   H     H_    0.696248 0.364722 0.267908 0.273131
H26   H     H_    0.727388 0.234505 0.235884 0.254405
H27   H     H_    0.890523 0.317004 0.257904 0.213799
H28   H     H_    0.908215 0.221071 0.345803 0.206012
H29   H     H_    0.745669 0.407403 0.429170 0.235876
H30   H     H_    0.352782 0.430682 0.748378 0.178448
C51   C     C_3   0.225813 0.388807 0.856754 -0.421647
C52   C     C_3   0.144400 0.475102 0.804829 -0.847087
H31   H     H_    0.184060 0.520338 0.762821 0.254100
H32   H     H_    0.075884 0.442511 0.758724 0.254898
H33   H     H_    0.110005 0.526789 0.853685 0.259715
H34   H     H_    0.255443 0.332977 0.808559 0.195604
H35   H     H_    0.180454 0.345812 0.895999 0.203439
H36   H     H_    0.766064 0.209825 0.507581 0.163900

loop_
_geom_bond_atom_site_label_1
_geom_bond_atom_site_label_2
_ccdc_geom_bond_type
C16   C28   A    
C21   C26   A    
C51   C52   S    
C9    H18   S    
C19   C20   A    
C16   H5    S    
O6    Zn2   S    
C33   C36   A    
C7    C8    A    
C50   H24   S    
C2    C46   A    
O8    Zn2   S    
C36   C37   A    
C19   C21   A    
C25   H7    S    
C26   H4    S    
C30   C31   A    
C48   H20   S    
C14   H3    S    
C20   C25   A    
C47   H23   S    
C4    H16   S    
C1    O2    A    
C18   C19   A    
C1    O1    A    
C10   H17   S    
C8    C9    A    
C1    C28   S    
C14   C27   A    
C51   H35   S    
C47   C48   S    
C38   C49   S    
C15   C23   S    
C21   C22   A    
O7    Zn1   S    
C49   H28   S    
C17   H6    S    
C39   H29   S    
C3    H15   S    
C38   C39   A    
C27   H36   S    
C34   C43   S    
C50   H25   S    
C24   H2    S    
C23   O5    A    
C36   C40   A    
C24   C25   A    
C48   H19   S    
C16   C17   A    
C15   C26   A    
C41   N1    A    
C29   H9    S    
C35   N2    A    
C45   C46   A    
C3    C45   A    
C31   H14   S    
C35   C39   A    
C43   C44   A    
C37   C38   A    
C44   H10   S    
C15   C27   A    
C31   C32   A    
N2    Zn2   S    
C17   C18   A    
C49   C50   S    
C52   H32   S    
C30   N2    A    
C34   O8    A    
C12   O3    A    
C40   N1    A    
C13   H30   S    
O4    Zn2   S    
C22   C24   A    
O1    Zn1   S    
C42   C43   A    
C3    C4    A    
C44   C45   A    
C50   H26   S    
C12   O4    A    
C40   H11   S    
C6    C46   A    
C29   C41   A    
C23   O6    A    
C8    C51   S    
C4    C5    A    
N1    Zn1   S    
C11   C12   S    
C6    C7    A    
O2    Zn2   S    
C20   C28   A    
C52   H33   S    
C32   C33   A    
C14   C22   A    
C5    C10   A    
O5    Zn1   S    
C11   C13   A    
C48   H21   S    
C5    C6    A    
C47   H22   S    
C2    C42   A    
C18   C47   S    
C30   H12   S    
C33   C35   A    
O3    Zn1   S    
C42   H1    S    
C52   H31   S    
C41   H8    S    
C10   C11   A    
C34   O7    A    
C7    C13   A    
C49   H27   S    
C29   C37   A    
C32   H13   S    
C2    C9    A    
C51   H34   S    
