data_mof_unit_41520.cif
_audit_creation_date              2012-12-10T19:45:04-0500
_audit_creation_method            fapswitch 2.2
_symmetry_space_group_name_H-M    P1
_symmetry_Int_Tables_number       1
_space_group_crystal_system       triclinic
_cell_length_a                    15.02832
_cell_length_b                    10.894991
_cell_length_c                    13.691249
_cell_angle_alpha                 90.999081
_cell_angle_beta                  90.49306
_cell_angle_gamma                 90.323222
_cell_volume                      2241.25351275

loop_
_atom_site_label
_atom_site_type_symbol
_atom_type_description
_atom_site_fract_x
_atom_site_fract_y
_atom_site_fract_z
_atom_type_partial_charge
C1    C     C_R   0.501407 0.262099 0.498894 0.783646
C2    C     C_R   0.498238 0.737807 0.501149 0.784853
C3    C     C_R   0.048297 0.276293 0.489006 -0.022389
C4    C     C_R   0.951682 0.724117 0.516259 -0.015961
C5    C     C_R   0.295839 0.210993 0.250458 0.160658
C6    C     C_R   0.702226 0.792386 0.752403 0.141156
C7    C     C_R   0.336794 0.162589 0.333553 -0.205347
C8    C     C_R   0.661486 0.837823 0.668232 -0.202247
C9    C     C_R   0.425043 0.122846 0.331217 0.054680
C10   C     C_R   0.572936 0.877041 0.669670 0.039940
C11   C     C_R   0.473822 0.128028 0.243110 -0.007421
C12   C     C_R   0.523057 0.869436 0.757045 0.011197
C13   C     C_R   0.431003 0.172463 0.157556 0.112975
C14   C     C_R   0.566194 0.829881 0.843456 0.166301
C15   C     C_R   0.343375 0.218741 0.162827 0.225307
C16   C     C_R   0.654961 0.789359 0.840273 0.152824
C17   C     C_R   0.454240 0.932844 0.424645 -0.034972
C18   C     C_R   0.544216 0.066780 0.575932 -0.038808
C19   C     C_R   0.494751 0.871834 0.503673 -0.190002
C20   C     C_R   0.504100 0.127892 0.496672 -0.194052
C21   C     C_R   0.536375 0.938744 0.581476 -0.032382
C22   C     C_R   0.461977 0.060931 0.419141 -0.029699
C23   C     C_R   0.328989 0.502278 0.500028 0.791213
C24   C     C_R   0.671015 0.498134 0.500020 0.791611
C25   C     C_R   0.569104 0.447534 0.792697 0.043213
C26   C     C_R   0.431237 0.553364 0.207342 0.053148
C27   C     C_R   0.431603 0.552843 0.793502 0.055099
C28   C     C_R   0.569147 0.449116 0.206441 0.036932
C29   C     C_R   0.429761 0.552549 0.896176 -0.058441
C30   C     C_R   0.571502 0.450905 0.103794 -0.042121
C31   C     C_R   0.500877 0.500435 0.948163 0.070569
C32   C     C_R   0.499901 0.501680 0.051818 0.087809
C33   C     C_R   0.573195 0.448620 0.896338 -0.074368
C34   C     C_R   0.427799 0.554110 0.103669 -0.103872
C35   C     C_R   0.358688 0.605123 0.947142 -0.121448
C36   C     C_R   0.643890 0.401730 0.052853 -0.180306
C37   C     C_R   0.356106 0.606406 0.050165 -0.044272
C38   C     C_R   0.646091 0.399572 0.949822 -0.026965
C39   C     C_R   0.812577 0.604993 0.512433 -0.205383
C40   C     C_R   0.187339 0.395633 0.488865 -0.170989
C41   C     C_R   0.767359 0.494406 0.499022 -0.153946
C42   C     C_R   0.232639 0.506280 0.501374 -0.150176
C43   C     C_R   0.813104 0.385293 0.476923 -0.056190
C44   C     C_R   0.187084 0.615178 0.524833 -0.062433
C45   C     C_R   0.907111 0.386194 0.484050 0.105847
C46   C     C_R   0.092993 0.614298 0.518927 0.105587
C47   C     C_R   0.953118 0.499400 0.498876 0.016407
C48   C     C_R   0.046921 0.501166 0.504092 0.016189
C49   C     C_R   0.905306 0.610770 0.508193 0.100892
C50   C     C_R   0.094695 0.389772 0.494920 0.100696
C51   C     C_R   0.955719 0.276394 0.481946 -0.221464
C52   C     C_R   0.044299 0.723987 0.522767 -0.222165
Cu1   Cu    Cu3+1 0.500010 0.499980 0.597420 0.959186
Cu2   Cu    Cu3+1 0.499990 0.500020 0.402580 0.962245
H1    H     H_    0.773652 0.686152 0.526145 0.171826
H2    H     H_    0.226203 0.314407 0.475324 0.167954
H3    H     H_    0.620133 0.404577 0.749615 0.122800
H4    H     H_    0.380106 0.595842 0.250533 0.124110
H5    H     H_    0.378244 0.595492 0.753069 0.147058
H6    H     H_    0.622813 0.407064 0.246781 0.142167
H7    H     H_    0.304338 0.644586 0.905883 0.209463
H8    H     H_    0.699049 0.364386 0.094116 0.202090
H9    H     H_    0.921862 0.188502 0.480214 0.187958
H10   H     H_    0.078055 0.811932 0.525524 0.187466
H11   H     H_    0.299380 0.152534 0.400118 0.158608
H12   H     H_    0.699604 0.846369 0.602018 0.163054
N1    N     N_R   0.499960 0.499900 0.743810 -0.191545
N2    N     N_R   0.500040 0.500100 0.256190 -0.188402
O1    O     O_R   0.500000 0.319630 0.582270 -0.568167
O2    O     O_R   0.500000 0.680370 0.417730 -0.567725
O3    O     O_R   0.499990 0.319660 0.417730 -0.591556
O4    O     O_R   0.500010 0.680340 0.582270 -0.590392
O5    O     O_R   0.370260 0.499960 0.582280 -0.573734
O6    O     O_R   0.629740 0.500040 0.417720 -0.570051
O7    O     O_R   0.370250 0.499990 0.417740 -0.596220
O8    O     O_R   0.629750 0.500010 0.582260 -0.603092
C53   C     C_2   0.397594 0.862631 0.352203 0.417251
H13   H     H_    0.354498 0.789540 0.376758 0.031815
O9    O     O_2   0.400985 0.881664 0.264736 -0.536275
C54   C     C_2   0.600493 0.136688 0.648845 0.415243
H14   H     H_    0.644603 0.208798 0.624569 0.035813
O10   O     O_2   0.595625 0.118446 0.736344 -0.546243
C55   C     C_2   0.276861 0.660784 0.098678 0.446062
H15   H     H_    0.261710 0.642970 0.174197 0.046886
O11   O     O_2   0.225773 0.726218 0.053602 -0.487923
C56   C     C_2   0.726283 0.348166 0.901211 0.426635
H16   H     H_    0.740937 0.366706 0.825670 0.045687
O12   O     O_2   0.778707 0.284646 0.946210 -0.498103
C57   C     C_2   0.761388 0.274615 0.443750 0.355967
H17   H     H_    0.694447 0.259572 0.469656 0.019322
O13   O     O_2   0.790520 0.203704 0.382009 -0.511612
C58   C     C_2   0.239104 0.725428 0.558347 0.361568
H18   H     H_    0.305769 0.740831 0.531789 0.018162
O14   O     O_2   0.210646 0.795410 0.621139 -0.506766
C59   C     C_2   0.091888 0.154332 0.493802 0.316145
H19   H     H_    0.061221 0.075580 0.456986 0.082742
O15   O     O_2   0.158584 0.138434 0.543394 -0.526721
C60   C     C_2   0.907985 0.846158 0.514790 0.317839
H20   H     H_    0.937955 0.922958 0.554835 0.080082
O16   O     O_2   0.842229 0.864627 0.464314 -0.524728
N3    N     N_3   0.299452 0.269687 0.078893 -0.533744
H21   H     H_    0.283807 0.360788 0.096283 0.216223
H22   H     H_    0.341257 0.273397 0.018539 0.261576
N4    N     N_3   0.696966 0.746960 0.927746 -0.573736
H23   H     H_    0.753004 0.801835 0.942162 0.273998
H24   H     H_    0.718317 0.656956 0.915135 0.234090
N5    N     N_3   0.204643 0.249852 0.252999 -0.568934
H25   H     H_    0.168607 0.193406 0.204221 0.261723
H26   H     H_    0.177542 0.234392 0.321591 0.207704
N6    N     N_3   0.792966 0.753290 0.750333 -0.587010
H27   H     H_    0.796962 0.677036 0.703442 0.221473
H28   H     H_    0.831657 0.823891 0.721667 0.235027
C61   C     C_2   0.567905 0.084369 0.242939 0.416178
H29   H     H_    0.604536 0.077872 0.311258 0.106544
O17   O     O_2   0.605481 0.052768 0.168066 -0.530701
C62   C     C_2   0.427570 0.906601 0.757111 0.455342
H30   H     H_    0.397020 0.943477 0.691944 0.091825
O18   O     O_2   0.380949 0.894837 0.828947 -0.480543
N7    N     N_3   0.472990 0.165829 0.063992 -0.561903
H31   H     H_    0.534647 0.209660 0.067969 0.260908
H32   H     H_    0.481925 0.073546 0.045005 0.291617
N8    N     N_3   0.521986 0.838258 0.935740 -0.491658
H33   H     H_    0.558268 0.899284 0.980569 0.264060
H34   H     H_    0.524173 0.752703 0.968613 0.245063

loop_
_geom_bond_atom_site_label_1
_geom_bond_atom_site_label_2
_ccdc_geom_bond_type
C8    H12   S    
N3    H21   S    
C14   N8    S    
C4    C60   S    
C27   C29   A    
C34   C37   A    
C41   C43   A    
C59   H19   S    
C25   N1    A    
Cu1   O1    S    
N4    H24   S    
C11   C61   S    
C39   C41   A    
C53   H13   S    
C43   C57   S    
C23   C42   S    
C25   H3    S    
C4    C52   A    
C35   C37   A    
C56   O12   D    
C9    C22   S    
Cu2   N2    S    
C45   C51   A    
C18   C21   A    
C46   C52   A    
C62   H30   S    
C45   C47   A    
N6    H27   S    
Cu2   O6    S    
C16   N4    S    
C39   H1    S    
Cu2   O3    S    
C47   C48   A    
C40   H2    S    
N5    H25   S    
C31   C33   A    
C38   C56   S    
C44   C58   S    
C40   C42   A    
N3    H22   S    
C26   C34   A    
C24   C41   S    
C6    N6    S    
C42   C44   A    
C23   O5    A    
C2    O4    A    
C58   O14   D    
N4    H23   S    
C13   N7    S    
C3    C50   A    
C44   C46   A    
N7    H32   S    
C10   C21   S    
C46   C48   A    
C51   H9    S    
C54   O10   D    
C52   H10   S    
C23   O7    A    
C5    C7    A    
C3    C51   A    
C56   H16   S    
C24   O8    A    
C6    C8    A    
Cu1   Cu2   S    
C1    O1    A    
C36   H8    S    
C32   C34   A    
C7    H11   S    
C26   H4    S    
C55   H15   S    
Cu2   O2    S    
C29   C31   A    
C17   C53   S    
C53   O9    D    
C35   H7    S    
C1    O3    A    
C15   N3    S    
C48   C50   A    
C9    C11   A    
C28   H6    S    
C10   C12   A    
C18   C54   S    
C39   C49   A    
C12   C14   A    
C60   O16   D    
C13   C15   A    
C14   C16   A    
Cu1   O8    S    
C57   O13   D    
N8    H34   S    
C61   H29   S    
C5    N5    S    
C7    C9    A    
C1    C20   S    
C19   C21   A    
C2    C19   S    
C31   C32   A    
Cu1   O5    S    
C33   C38   A    
C20   C22   A    
C54   H14   S    
C28   N2    A    
N7    H31   S    
C59   O15   D    
C47   C49   A    
C29   C35   A    
C17   C22   A    
C30   C36   A    
C4    C49   A    
C26   N2    A    
C36   C38   A    
C57   H17   S    
C43   C45   A    
C27   H5    S    
C30   C32   A    
C11   C13   A    
C24   O6    A    
N5    H26   S    
C40   C50   A    
C28   C30   A    
C58   H18   S    
C17   C19   A    
C62   O18   D    
C18   C20   A    
C55   O11   D    
Cu1   N1    S    
N6    H28   S    
C5    C15   A    
C27   N1    A    
C6    C16   A    
Cu2   O7    S    
C8    C10   A    
C60   H20   S    
C37   C55   S    
C3    C59   S    
C12   C62   S    
N8    H33   S    
C2    O2    A    
Cu1   O4    S    
C25   C33   A    
C61   O17   D    
