data_mof_unit_27791.cif
_audit_creation_date              2013-03-05T15:39:27-0500
_audit_creation_method            fapswitch 2.2
_symmetry_space_group_name_H-M    P1
_symmetry_Int_Tables_number       1
_space_group_crystal_system       triclinic
_cell_length_a                    16.897742
_cell_length_b                    16.891152
_cell_length_c                    16.894703
_cell_angle_alpha                 67.780766
_cell_angle_beta                  67.764207
_cell_angle_gamma                 67.773026
_cell_volume                      3973.41313029

loop_
_atom_site_label
_atom_site_type_symbol
_atom_site_description
_atom_site_fract_x
_atom_site_fract_y
_atom_site_fract_z
_atom_type_partial_charge
O1    O     O_R   0.124540 0.978640 0.385460 -0.517952
O2    O     O_R   0.875460 0.021360 0.614540 -0.517861
O3    O     O_R   0.978640 0.385460 0.124540 -0.517989
O4    O     O_R   0.021360 0.614540 0.875460 -0.518021
O5    O     O_R   0.385460 0.124540 0.978640 -0.518806
O6    O     O_R   0.614540 0.875460 0.021360 -0.518327
O7    O     O_R   0.614540 0.021360 0.875460 -0.518494
O8    O     O_R   0.385460 0.978640 0.124540 -0.518408
O9    O     O_R   0.875460 0.614540 0.021360 -0.517253
O10   O     O_R   0.124540 0.385460 0.978640 -0.516759
O11   O     O_R   0.021360 0.875460 0.614540 -0.517258
O12   O     O_R   0.978640 0.124540 0.385460 -0.517294
C1    C     C_R   0.597875 0.018825 0.597673 0.074018
C2    C     C_R   0.402127 0.981171 0.402327 0.073983
C3    C     C_R   0.018838 0.597669 0.597859 0.074089
C4    C     C_R   0.981162 0.402331 0.402141 0.074117
C5    C     C_R   0.597882 0.597641 0.018854 0.074029
C6    C     C_R   0.402107 0.402356 0.981167 0.074022
Cu1   Cu    Cu3+1 0.995180 0.995180 0.424630 1.103753
Cu2   Cu    Cu3+1 0.004820 0.004820 0.575370 1.103844
Cu3   Cu    Cu3+1 0.995180 0.424630 0.995180 1.102633
Cu4   Cu    Cu3+1 0.004820 0.575370 0.004820 1.102271
Cu5   Cu    Cu3+1 0.424630 0.995180 0.995180 1.103638
Cu6   Cu    Cu3+1 0.575370 0.004820 0.004820 1.103917
C7    C     C_R   0.024534 0.829540 0.566225 0.807907
C8    C     C_R   0.975468 0.170459 0.433775 0.807902
C9    C     C_R   0.829558 0.566234 0.024542 0.807875
C10   C     C_R   0.170445 0.433775 0.975439 0.808351
C11   C     C_R   0.566246 0.024499 0.829551 0.807194
C12   C     C_R   0.433756 0.975498 0.170450 0.807483
C13   C     C_R   0.433755 0.170450 0.975505 0.806841
C14   C     C_R   0.566237 0.829547 0.024511 0.807338
C15   C     C_R   0.975478 0.433760 0.170440 0.807258
C16   C     C_R   0.024521 0.566241 0.829560 0.807443
C17   C     C_R   0.170440 0.975451 0.433768 0.807930
C18   C     C_R   0.829560 0.024552 0.566230 0.807997
O13   O     O_R   0.013780 0.867370 0.487190 -0.598747
O14   O     O_R   0.986220 0.132630 0.512810 -0.598700
O15   O     O_R   0.867370 0.487190 0.013780 -0.599183
O16   O     O_R   0.132630 0.512810 0.986220 -0.599345
O17   O     O_R   0.487190 0.013780 0.867370 -0.597417
O18   O     O_R   0.512810 0.986220 0.132630 -0.597260
O19   O     O_R   0.512810 0.132630 0.986220 -0.597401
O20   O     O_R   0.487190 0.867370 0.013780 -0.597507
O21   O     O_R   0.986220 0.512810 0.132630 -0.598941
O22   O     O_R   0.013780 0.487190 0.867370 -0.598738
O23   O     O_R   0.132630 0.986220 0.512810 -0.597884
O24   O     O_R   0.867370 0.013780 0.487190 -0.597926
H1    H     H_    0.425116 0.103489 0.595115 0.149930
H2    H     H_    0.574887 0.896506 0.404887 0.149998
H3    H     H_    0.103774 0.594778 0.425209 0.148573
H4    H     H_    0.896226 0.405222 0.574790 0.148581
H5    H     H_    0.657313 0.487542 0.911613 0.135209
H6    H     H_    0.342673 0.512452 0.088409 0.135219
H7    H     H_    0.342655 0.088297 0.512565 0.138469
H8    H     H_    0.657348 0.911699 0.487436 0.138475
H9    H     H_    0.574818 0.405022 0.896390 0.148190
H10   H     H_    0.425169 0.594966 0.103640 0.148205
H11   H     H_    0.088564 0.512207 0.342735 0.135441
H12   H     H_    0.911436 0.487792 0.657265 0.135435
C19   C     C_R   0.547770 0.008920 0.547731 0.115161
C20   C     C_R   0.452232 0.991075 0.452270 0.115149
C21   C     C_R   0.008931 0.547727 0.547763 0.116661
C22   C     C_R   0.991070 0.452273 0.452237 0.116643
C23   C     C_R   0.547777 0.547698 0.008955 0.117241
C24   C     C_R   0.452212 0.452294 0.991071 0.117240
C25   C     C_R   0.588943 0.951204 0.492837 -0.165485
C26   C     C_R   0.411059 0.048791 0.507164 -0.165475
C27   C     C_R   0.951051 0.493032 0.588897 -0.169118
C28   C     C_R   0.048949 0.506968 0.411103 -0.169136
C29   C     C_R   0.458294 0.554295 0.057641 -0.155346
C30   C     C_R   0.541694 0.445695 0.942387 -0.155357
C31   C     C_R   0.541732 0.942450 0.445617 -0.154001
C32   C     C_R   0.458270 0.057545 0.554384 -0.154028
C33   C     C_R   0.411066 0.507102 0.048864 -0.166973
C34   C     C_R   0.588922 0.492890 0.951161 -0.166973
C35   C     C_R   0.942288 0.445808 0.541685 -0.156861
C36   C     C_R   0.057713 0.554191 0.458314 -0.156852
C37   C     C_R   0.558265 0.022142 0.686171 -0.235576
C38   C     C_R   0.441740 0.977847 0.313831 -0.235495
C39   C     C_R   0.022239 0.686136 0.558212 -0.238367
C40   C     C_R   0.977764 0.313863 0.441787 -0.238318
C41   C     C_R   0.686381 0.558157 0.022086 -0.231824
C42   C     C_R   0.313623 0.441858 0.977889 -0.232082
C43   C     C_R   0.313628 0.977908 0.441822 -0.230026
C44   C     C_R   0.686371 0.022097 0.558175 -0.230090
C45   C     C_R   0.441715 0.313849 0.977865 -0.235931
C46   C     C_R   0.558259 0.686137 0.022193 -0.236142
C47   C     C_R   0.977975 0.441800 0.313623 -0.231984
C48   C     C_R   0.022023 0.558201 0.686377 -0.231825
H13   H     H_    0.491810 0.014095 0.718736 0.174184
H14   H     H_    0.508197 0.985889 0.281267 0.174219
H15   H     H_    0.014254 0.718671 0.491731 0.173145
H16   H     H_    0.985750 0.281328 0.508268 0.173153
H17   H     H_    0.718427 0.490812 0.016483 0.173692
H18   H     H_    0.281583 0.509209 0.983478 0.173706
H19   H     H_    0.281582 0.983493 0.509163 0.174273
H20   H     H_    0.718416 0.016515 0.490832 0.174271
H21   H     H_    0.508164 0.281292 0.985913 0.173974
H22   H     H_    0.491799 0.718686 0.014173 0.173982
H23   H     H_    0.983608 0.509130 0.281575 0.173356
H24   H     H_    0.016388 0.490871 0.718426 0.173402
C49   C     C_R   0.604722 0.032661 0.733628 -0.156834
C50   C     C_R   0.395282 0.967331 0.266374 -0.156709
C51   C     C_R   0.032736 0.733607 0.604679 -0.155045
C52   C     C_R   0.967267 0.266392 0.395320 -0.155101
C53   C     C_R   0.733715 0.604749 0.032551 -0.156776
C54   C     C_R   0.266294 0.395273 0.967409 -0.156138
C55   C     C_R   0.266290 0.967434 0.395249 -0.156892
C56   C     C_R   0.733708 0.032572 0.604747 -0.156779
C57   C     C_R   0.395266 0.266376 0.967355 -0.157210
C58   C     C_R   0.604713 0.733615 0.032687 -0.156583
C59   C     C_R   0.967503 0.395221 0.266279 -0.157508
C60   C     C_R   0.032495 0.604780 0.733722 -0.157552
C61   C     C_R   0.690566 0.044065 0.690564 0.299594
C62   C     C_R   0.309435 0.955935 0.309434 0.299573
C63   C     C_R   0.044043 0.690582 0.690564 0.298777
C64   C     C_R   0.955959 0.309417 0.309435 0.298786
C65   C     C_R   0.690568 0.690574 0.044050 0.299259
C66   C     C_R   0.309432 0.309436 0.955937 0.299287
N1    N     N_R   0.732757 0.069867 0.732789 0.138813
O25   O     O_R   0.722115 0.153739 0.720036 -0.355746
O26   O     O_R   0.782635 0.009876 0.782816 -0.292359
N2    N     N_R   0.267243 0.930137 0.267207 0.138824
O27   O     O_R   0.278149 0.846263 0.279692 -0.355700
O28   O     O_R   0.217341 0.990131 0.217204 -0.292364
N3    N     N_R   0.069781 0.732846 0.732781 0.139139
O29   O     O_R   0.153605 0.722609 0.719659 -0.347842
O30   O     O_R   0.009763 0.782665 0.782894 -0.292039
N4    N     N_R   0.930224 0.267153 0.267216 0.139138
O31   O     O_R   0.846397 0.277508 0.280219 -0.347878
O32   O     O_R   0.990243 0.217324 0.217114 -0.292052
N5    N     N_R   0.732769 0.732835 0.069802 0.138961
O33   O     O_R   0.721692 0.720547 0.153657 -0.351962
O34   O     O_R   0.782696 0.782825 0.009789 -0.292153
N6    N     N_R   0.267244 0.267196 0.930144 0.138904
O35   O     O_R   0.276853 0.280977 0.846315 -0.351945
O36   O     O_R   0.217445 0.217069 0.990136 -0.292163

loop_
_geom_bond_atom_site_label_1
_geom_bond_atom_site_label_2
_geom_bond_distance
_ccdc_geom_bond_type
Cu2   O14   1.972035 S    
O6    C14   1.298178 A    
C1    C37   1.401492 A    
O7    C11   1.298291 A    
O10   C10   1.297859 A    
C28   C36   1.397976 A    
C5    C46   1.401389 A    
Cu6   O18   1.972162 S    
C22   C35   1.405580 A    
C54   C66   1.406086 A    
C27   C35   1.397976 A    
Cu1   Cu2   2.680750 S    
C30   C34   1.398059 A    
C17   O23   1.294068 A    
C8    C52   1.472789 S    
H7    C26   1.082758 S    
C7    C51   1.472791 S    
C3    C39   1.401346 A    
O3    C15   1.297673 A    
O1    C17   1.297995 A    
C65   N5    1.436036 S    
C23   C34   1.405955 A    
C13   O19   1.294328 A    
C38   C50   1.407227 A    
C40   H16   1.083293 S    
C44   C56   1.406741 A    
C43   C55   1.406747 A    
O9    Cu4   1.969093 S    
C45   C57   1.407087 A    
C10   O16   1.293880 A    
C26   C32   1.398151 A    
O7    Cu6   1.968722 S    
C2    C20   1.487079 S    
O8    Cu5   1.968720 S    
C15   O21   1.293993 A    
C11   C49   1.472898 S    
C42   H18   1.082965 S    
C48   H24   1.082970 S    
Cu1   O13   1.972036 S    
C55   C62   1.406090 A    
C7    O13   1.294129 A    
C50   C62   1.406141 A    
C24   C30   1.405632 A    
C21   C27   1.405930 A    
C9    O15   1.293902 A    
O5    Cu5   1.968401 S    
C1    C44   1.401395 A    
C6    C42   1.401353 A    
Cu5   Cu6   2.681215 S    
C20   C31   1.405650 A    
C25   C31   1.398154 A    
C2    C38   1.401492 A    
C62   N2    1.436048 S    
C37   H13   1.083279 S    
C17   C55   1.472451 S    
C47   H23   1.082967 S    
C37   C49   1.407229 A    
C40   C52   1.407039 A    
O4    Cu4   1.968827 S    
Cu4   O16   1.972461 S    
C4    C47   1.401274 A    
Cu3   Cu4   2.680213 S    
C52   C64   1.406167 A    
C51   C63   1.406168 A    
C53   C65   1.406085 A    
C45   H21   1.083291 S    
O10   Cu3   1.969093 S    
O4    C16   1.297671 A    
O11   Cu2   1.968452 S    
O1    Cu1   1.969037 S    
O2    Cu2   1.969037 S    
Cu2   O23   1.972390 S    
N6    O36   1.302611 A    
H2    C31   1.082965 S    
Cu1   O24   1.972389 S    
C8    O14   1.294129 A    
C23   C29   1.405643 A    
Cu5   O20   1.971973 S    
H6    C33   1.082777 S    
O12   C8    1.298081 A    
C57   C66   1.406210 A    
C5    C41   1.401366 A    
C38   H14   1.083279 S    
N4    O32   1.302613 A    
N3    O30   1.302616 A    
C49   C61   1.406143 A    
C64   N4    1.436054 S    
C39   H15   1.083293 S    
C19   C25   1.406006 A    
Cu3   O15   1.972462 S    
C47   C59   1.406605 A    
C9    C53   1.472426 S    
C41   H17   1.082962 S    
C4    C40   1.401345 A    
C14   O20   1.294304 A    
C63   N3    1.436053 S    
N1    O25   1.300575 A    
C46   H22   1.083288 S    
C16   O22   1.293995 A    
C22   C28   1.405929 A    
C18   C56   1.472455 S    
N5    O33   1.300574 A    
O3    Cu3   1.968825 S    
H5    C34   1.082774 S    
C6    C24   1.486821 S    
N3    O29   1.300531 A    
O9    C9    1.297823 A    
N2    O28   1.302615 A    
Cu3   O22   1.972300 S    
O2    C18   1.297999 A    
C39   C51   1.407038 A    
C3    C21   1.486618 S    
C14   C58   1.472789 S    
C11   O17   1.294242 A    
C5    C23   1.486841 S    
C2    C43   1.401397 A    
N6    O35   1.300611 A    
C58   C65   1.406188 A    
O6    Cu6   1.968401 S    
C19   C32   1.405649 A    
C16   C60   1.472297 S    
H8    C25   1.082758 S    
C15   C59   1.472298 S    
C6    C45   1.401384 A    
Cu5   O17   1.972164 S    
C20   C26   1.406009 A    
O8    C12   1.298300 A    
N4    O31   1.300527 A    
H3    C36   1.082972 S    
C3    C48   1.401276 A    
C29   C33   1.398063 A    
H12   C27   1.082778 S    
C10   C54   1.472449 S    
C24   C33   1.405947 A    
O12   Cu1   1.968452 S    
C42   C54   1.406693 A    
C41   C53   1.406710 A    
C18   O24   1.294065 A    
C48   C60   1.406604 A    
H9    C30   1.082973 S    
C44   H20   1.082953 S    
N1    O26   1.302614 A    
C60   C63   1.406141 A    
C43   H19   1.082952 S    
H10   C29   1.082971 S    
H11   C28   1.082778 S    
C59   C64   1.406140 A    
C46   C58   1.407082 A    
O11   C7    1.298083 A    
Cu4   O21   1.972299 S    
C1    C19   1.487076 S    
C12   C50   1.472901 S    
C61   N1    1.436049 S    
N5    O34   1.302614 A    
Cu6   O19   1.971973 S    
C13   C57   1.472774 S    
H1    C32   1.082966 S    
C12   O18   1.294239 A    
C4    C22   1.486616 S    
C66   N6    1.436031 S    
C56   C61   1.406090 A    
H4    C35   1.082974 S    
N2    O27   1.300567 A    
O5    C13   1.298147 A    
C21   C36   1.405581 A    
