data_mof_unit_51731.cif
_audit_creation_date              2012-12-11T15:48:10-0500
_audit_creation_method            fapswitch 2.2
_symmetry_space_group_name_H-M    P1
_symmetry_Int_Tables_number       1
_space_group_crystal_system       triclinic
_cell_length_a                    6.927535
_cell_length_b                    17.603802
_cell_length_c                    19.454485
_cell_angle_alpha                 108.510243
_cell_angle_beta                  89.504217
_cell_angle_gamma                 90.459693
_cell_volume                      2249.63758177

loop_
_atom_site_label
_atom_site_type_symbol
_atom_type_description
_atom_site_fract_x
_atom_site_fract_y
_atom_site_fract_z
_atom_type_partial_charge
O1    O     O_R   0.494330 0.415710 0.413720 -0.541143
O2    O     O_R   0.819360 0.430070 0.560210 -0.543408
O3    O     O_R   0.994320 0.584290 0.586280 -0.542549
C1    C     C_R   0.650074 0.414371 0.581376 0.709349
O4    O     O_R   0.823740 0.406290 0.412670 -0.538403
O5    O     O_R   0.998730 0.560340 0.437690 -0.533288
C2    C     C_R   0.655492 0.381907 0.385397 0.696690
O6    O     O_R   0.489920 0.439660 0.562310 -0.538292
O7    O     O_3   0.662330 0.550570 0.508380 -0.368268
V1    V     V_3+5 0.935370 0.490620 0.498440 1.395142
O8    O     O_R   0.328720 0.569930 0.439790 -0.543681
C3    C     C_R   0.159926 0.588228 0.420961 0.716013
O9    O     O_R   0.324340 0.593710 0.587330 -0.543622
C4    C     C_R   0.155029 0.616967 0.615261 0.678816
V2    V     V_3+5 0.435940 0.509380 0.501560 1.396959
O10   O     O_3   0.159110 0.449430 0.491620 -0.367748
C5    C     C_R   0.312283 0.723580 0.718476 -0.155671
H1    H     H_    0.453253 0.704122 0.695434 0.116713
C6    C     C_R   0.301216 0.787351 0.783441 -0.151686
H2    H     H_    0.434176 0.815165 0.808312 0.118359
C7    C     C_R   0.121373 0.814805 0.815740 -0.046561
C8    C     C_R   0.952902 0.776780 0.781112 -0.156914
H3    H     H_    0.811922 0.796243 0.804138 0.116539
C9    C     C_R   0.963966 0.713022 0.716144 -0.153003
H4    H     H_    0.830994 0.685238 0.691256 0.118837
C10   C     C_R   0.143818 0.685470 0.683918 -0.045700
C11   C     C_R   0.299575 0.638131 0.324913 -0.269211
C12   C     C_R   0.150617 0.642271 0.375520 -0.090501
C13   C     C_R   0.994385 0.696171 0.380530 0.104308
C14   C     C_R   0.980894 0.738089 0.329006 0.081382
C15   C     C_R   0.132679 0.732432 0.278376 0.014662
C16   C     C_R   0.293275 0.683365 0.277336 0.090623
C17   C     C_R   0.820018 0.786179 0.326865 -0.184179
C18   C     C_R   0.811717 0.828583 0.277279 -0.191321
C19   C     C_R   0.963333 0.824526 0.228331 0.093705
C20   C     C_R   0.125059 0.776613 0.228898 0.063859
C21   C     C_R   0.279687 0.773146 0.180187 0.091345
C22   C     C_R   0.438432 0.724164 0.180021 -0.191013
C23   C     C_R   0.444525 0.679286 0.227774 -0.169876
C24   C     C_R   0.955891 0.867873 0.179019 -0.222338
C25   C     C_R   0.110975 0.866097 0.131417 -0.083965
C26   C     C_R   0.272993 0.818772 0.132589 -0.221531
H5    H     H_    0.420518 0.598404 0.321829 0.132906
H6    H     H_    0.696931 0.790586 0.362455 0.146202
H7    H     H_    0.685688 0.864658 0.277229 0.135274
H8    H     H_    0.831014 0.904583 0.178876 0.123827
H9    H     H_    0.392785 0.816654 0.095795 0.127787
C27   C     C_R   0.473005 0.187889 0.869266 -0.228283
C28   C     C_R   0.624076 0.135218 0.869558 -0.086905
C29   C     C_R   0.780366 0.128398 0.821447 -0.214006
C30   C     C_R   0.786989 0.173005 0.772498 0.075650
C31   C     C_R   0.633550 0.226089 0.773204 0.014861
C32   C     C_R   0.476633 0.233317 0.821700 0.104017
C33   C     C_R   0.941460 0.165579 0.722379 0.154197
C34   C     C_R   0.943518 0.212990 0.676220 -0.185593
C35   C     C_R   0.792436 0.265777 0.677175 0.047622
C36   C     C_R   0.635467 0.271638 0.724982 0.046936
C37   C     C_R   0.480042 0.323081 0.724556 0.103187
C38   C     C_R   0.324951 0.329137 0.772754 -0.182957
C39   C     C_R   0.323793 0.285032 0.821148 -0.172640
C40   C     C_R   0.795568 0.312465 0.630535 -0.207778
C41   C     C_R   0.641469 0.363857 0.629665 -0.083088
C42   C     C_R   0.482893 0.368010 0.676327 -0.220203
H10   H     H_    0.894373 0.086874 0.821749 0.136011
H11   H     H_    0.363861 0.407645 0.676362 0.124185
H12   H     H_    0.204326 0.368064 0.773066 0.129323
C43   C     C_R   0.799998 0.255569 0.294441 0.155849
C44   C     C_R   0.784944 0.193064 0.228314 -0.146721
H13   H     H_    0.901867 0.150520 0.211105 0.120286
C45   C     C_R   0.620390 0.183639 0.184771 -0.084558
C46   C     C_R   0.468060 0.237891 0.208396 -0.161117
H14   H     H_    0.338985 0.232094 0.176061 0.130134
C47   C     C_R   0.482149 0.301472 0.273269 -0.192298
C48   C     C_R   0.647228 0.312023 0.317229 -0.060003
O11   O     O_R   0.774940 0.060470 0.937800 -0.539706
O12   O     O_R   0.440880 0.093730 0.087350 -0.542699
O13   O     O_R   0.266130 0.939630 0.062280 -0.539260
C49   C     C_R   0.609414 0.116586 0.115463 0.695381
O14   O     O_R   0.445480 0.069960 0.939820 -0.542977
O15   O     O_R   0.270770 0.915690 0.913690 -0.540849
C50   C     C_R   0.614803 0.085475 0.918503 0.711865
O16   O     O_R   0.770300 0.084410 0.086380 -0.541496
O17   O     O_3   0.602600 0.949510 0.991670 -0.370364
V3    V     V_3+5 0.329470 0.009370 0.001550 1.400498
O18   O     O_R   0.940760 0.906160 0.912560 -0.544519
C51   C     C_R   0.110107 0.883102 0.884560 0.684350
O19   O     O_R   0.936150 0.929930 0.060100 -0.542798
C52   C     C_R   0.104182 0.914767 0.081642 0.711838
V4    V     V_3+5 0.828930 0.990450 0.998310 1.398125
O20   O     O_3   0.105670 0.050490 0.008320 -0.368523
H15   H     H_    0.558258 0.720595 0.142967 0.133218
H16   H     H_    0.568866 0.641844 0.226385 0.131852
H17   H     H_    0.351649 0.193437 0.906084 0.127383
C53   C     C_3   0.102663 0.106524 0.715853 -0.779550
H18   H     H_    0.175298 0.118263 0.768740 0.212750
H19   H     H_    0.043061 0.044650 0.698482 0.204307
H20   H     H_    0.213587 0.110457 0.675519 0.213449
H21   H     H_    0.062841 0.208073 0.638632 0.132624
H22   H     H_    0.917727 0.308203 0.594300 0.126989
H23   H     H_    0.201826 0.290639 0.857653 0.128454
C54   C     C_3   0.977631 0.258349 0.339606 -0.752480
H24   H     H_    0.070899 0.205173 0.316315 0.192770
H25   H     H_    0.065918 0.311971 0.342183 0.218624
H26   H     H_    0.935065 0.259470 0.395084 0.201818
H27   H     H_    0.363789 0.343404 0.288548 0.126147
C55   C     C_3   0.850423 0.713657 0.442815 -0.749763
H28   H     H_    0.903707 0.696662 0.489384 0.208231
H29   H     H_    0.825393 0.779119 0.465637 0.190511
H30   H     H_    0.711656 0.682445 0.423595 0.212269

loop_
_geom_bond_atom_site_label_1
_geom_bond_atom_site_label_2
_ccdc_geom_bond_type
O19   C52   A    
C42   H11   S    
C54   H24   S    
C45   C49   S    
C29   H10   S    
C47   C48   A    
C19   C20   A    
O15   V3    S    
O12   V3    S    
O18   C51   A    
C24   H8    S    
C13   C14   A    
O16   V4    S    
C3    C12   S    
C5    C10   A    
C20   C21   A    
C6    C7    A    
O12   C49   A    
C15   C20   A    
C38   H12   S    
O5    C3    A    
C14   C15   A    
C55   H28   S    
V2    O10   S    
C1    C41   S    
C35   C36   A    
C18   C19   A    
C25   C26   A    
C16   C23   A    
C28   C50   S    
C21   C26   A    
O15   C51   A    
C7    C51   S    
O8    V2    S    
C41   C42   A    
O17   V3    S    
O13   C52   A    
C44   H13   S    
C45   C46   A    
O1    V2    S    
O7    V1    S    
C40   C41   A    
C1    O6    A    
C38   C39   A    
C54   H25   S    
O1    C2    A    
O9    C4    A    
O14   V3    S    
C40   H22   S    
V3    O20   S    
C32   C39   A    
C5    H1    S    
C2    C48   S    
C27   C32   A    
O17   V4    S    
C27   H17   S    
C30   C31   A    
C9    H4    S    
C43   C48   A    
O18   V4    S    
O11   C50   A    
O13   V3    S    
C29   C30   A    
C37   C38   A    
C22   H15   S    
C43   C44   A    
O2    C1    A    
C21   C22   A    
C49   O16   A    
C47   H27   S    
C15   C16   A    
C34   C35   A    
C17   C18   A    
C18   H7    S    
C4    C10   S    
C53   H19   S    
O3    C4    A    
C24   C25   A    
C54   H26   S    
O19   V4    S    
C8    C9    A    
C13   C55   S    
O2    V1    S    
C23   H16   S    
C31   C32   A    
C43   C54   S    
O4    C2    A    
C37   C42   A    
C25   C52   S    
C33   C34   A    
C12   C13   A    
C14   C17   A    
C11   C16   A    
C8    H3    S    
C17   H6    S    
C9    C10   A    
C39   H23   S    
O5    V1    S    
O8    C3    A    
O6    V2    S    
O14   C50   A    
C53   H20   S    
C30   C33   A    
C6    H2    S    
O9    V2    S    
C19   C24   A    
O7    V2    S    
O4    V1    S    
O3    V1    S    
V1    O10   S    
C36   C37   A    
C22   C23   A    
C55   H29   S    
C27   C28   A    
C34   H21   S    
C5    C6    A    
C26   H9    S    
C53   H18   S    
C33   C53   S    
C31   C36   A    
O11   V4    S    
C11   H5    S    
C46   H14   S    
C44   C45   A    
C28   C29   A    
C46   C47   A    
C11   C12   A    
C35   C40   A    
V4    O20   S    
C7    C8    A    
C55   H30   S    
