data_mof_unit_54547.cif
_audit_creation_date              2012-12-10T18:01:46-0500
_audit_creation_method            fapswitch 2.2
_symmetry_space_group_name_H-M    P1
_symmetry_Int_Tables_number       1
_space_group_crystal_system       triclinic
_cell_length_a                    10.839849
_cell_length_b                    9.631329
_cell_length_c                    19.329084
_cell_angle_alpha                 89.463376
_cell_angle_beta                  94.484725
_cell_angle_gamma                 89.866687
_cell_volume                      2011.72158266

loop_
_atom_site_label
_atom_site_type_symbol
_atom_type_description
_atom_site_fract_x
_atom_site_fract_y
_atom_site_fract_z
_atom_type_partial_charge
C1    C     C_R   0.262786 0.499497 0.502117 0.761707
C2    C     C_R   0.737663 0.499485 0.499307 0.717628
C3    C     C_R   0.467109 0.449508 0.929805 0.452618
C4    C     C_R   0.469523 0.443148 0.070147 0.452739
C5    C     C_R   0.502164 0.500158 0.367478 0.860876
C6    C     C_R   0.495008 0.498736 0.632697 0.794458
C7    C     C_R   0.065097 0.370886 0.504642 -0.182786
C8    C     C_R   0.937149 0.622291 0.499472 -0.200456
C9    C     C_R   0.937009 0.371127 0.504117 -0.208494
C10   C     C_R   0.064531 0.621977 0.507206 -0.207961
C11   C     C_R   0.872081 0.497490 0.500519 0.007634
C12   C     C_R   0.129378 0.497208 0.505507 -0.019622
C13   C     C_R   0.434953 0.076327 0.448387 0.317451
C14   C     C_R   0.566608 0.924131 0.551261 0.383600
C15   C     C_R   0.562678 0.072762 0.553219 0.345765
C16   C     C_R   0.427012 0.926511 0.451382 0.339710
C17   C     C_R   0.416366 0.573832 0.248199 0.439966
C18   C     C_R   0.450675 0.361886 0.739750 0.397386
C19   C     C_R   0.500078 0.609222 0.752377 0.421789
C20   C     C_R   0.583869 0.403959 0.259705 0.353607
C21   C     C_R   0.397021 0.539155 0.177665 -0.275369
C22   C     C_R   0.452422 0.346966 0.811756 -0.273360
C23   C     C_R   0.492744 0.591395 0.824761 -0.290446
C24   C     C_R   0.570134 0.381110 0.187936 -0.243553
C25   C     C_R   0.476801 0.449208 0.146566 -0.070497
C26   C     C_R   0.473056 0.461289 0.854322 -0.052281
C27   C     C_R   0.503299 0.496561 0.290900 -0.239817
C28   C     C_R   0.482389 0.491133 0.709222 -0.246837
Cu1   Cu    Cu3+1 0.500000 0.640660 0.500000 1.027554
Cu2   Cu    Cu3+1 0.500000 0.359340 0.500000 1.004100
N1    N     N_R   0.500000 0.852070 0.500000 -0.264959
N2    N     N_R   0.500000 0.147930 0.500000 -0.268230
N3    N     N_R   0.519610 0.336923 0.035824 -0.244470
N4    N     N_R   0.416655 0.554546 0.964193 -0.244555
N5    N     N_R   0.517764 0.339715 0.966676 -0.239619
N6    N     N_R   0.417530 0.551138 0.032818 -0.248391
O1    O     O_R   0.319640 0.618740 0.500000 -0.557266
O2    O     O_R   0.680360 0.381260 0.500000 -0.612059
O3    O     O_R   0.680360 0.618740 0.500000 -0.588660
O4    O     O_R   0.319640 0.381260 0.500000 -0.559935
O5    O     O_R   0.499980 0.618820 0.400140 -0.514614
O6    O     O_R   0.500020 0.381180 0.599860 -0.515731
O7    O     O_R   0.500020 0.618820 0.599860 -0.482973
O8    O     O_R   0.499980 0.381180 0.400140 -0.526549
H1    H     H_    0.113188 0.272319 0.503982 0.155251
H2    H     H_    0.890848 0.720474 0.491822 0.133087
H3    H     H_    0.889149 0.272703 0.504337 0.132198
H4    H     H_    0.111914 0.719873 0.511780 0.155835
O9    O     O_3   0.350904 0.680740 0.276635 -0.561155
C29   C     C_3   0.341325 0.800462 0.232643 0.117588
H5    H     H_    0.294773 0.882742 0.260250 0.174643
H6    H     H_    0.278367 0.784251 0.185434 0.118096
C30   C     C_3   0.467474 0.856647 0.214138 -0.861845
H7    H     H_    0.506520 0.791989 0.173923 0.247239
H8    H     H_    0.456384 0.963805 0.192940 0.217371
H9    H     H_    0.533829 0.857605 0.260904 0.250785
O10   O     O_3   0.417240 0.248061 0.699530 -0.521250
C31   C     C_3   0.287570 0.250844 0.684349 0.103077
H10   H     H_    0.256276 0.351600 0.659925 0.121228
H11   H     H_    0.239303 0.233484 0.732470 0.125770
C32   C     C_3   0.250193 0.135827 0.633485 -0.763342
H12   H     H_    0.277492 0.032861 0.655971 0.244131
H13   H     H_    0.148303 0.137407 0.621579 0.174968
H14   H     H_    0.295658 0.151273 0.584548 0.263437
O11   O     O_3   0.513573 0.739208 0.721086 -0.527272
C33   C     C_3   0.569708 0.841840 0.765234 0.137194
H15   H     H_    0.625035 0.910174 0.733565 0.217455
H16   H     H_    0.637821 0.799544 0.806166 0.089435
C34   C     C_3   0.472303 0.933998 0.794813 -0.798148
H17   H     H_    0.403671 0.872228 0.821415 0.233631
H18   H     H_    0.518238 0.007732 0.832287 0.210505
H19   H     H_    0.422184 0.993865 0.752244 0.287093
O12   O     O_3   0.676033 0.333007 0.298931 -0.591106
C35   C     C_3   0.782611 0.417346 0.306163 0.075082
H20   H     H_    0.772379 0.495152 0.347487 0.134020
H21   H     H_    0.800814 0.472817 0.257009 0.136323
C36   C     C_3   0.894648 0.326340 0.326680 -0.767895
H22   H     H_    0.913569 0.257187 0.283061 0.234847
H23   H     H_    0.977073 0.392280 0.339503 0.213341
H24   H     H_    0.877036 0.261118 0.372459 0.250043
H25   H     H_    0.321995 0.586468 0.145704 0.162963
H26   H     H_    0.431246 0.247103 0.834077 0.166667
H27   H     H_    0.502809 0.678006 0.859688 0.168418
H28   H     H_    0.634113 0.312350 0.164711 0.177752
O13   O     O_3   0.365881 0.152062 0.398100 -0.555651
C37   C     C_3   0.410545 0.128692 0.332536 0.077135
H29   H     H_    0.503357 0.174598 0.329663 0.209056
H30   H     H_    0.420853 0.017743 0.321730 0.163643
C38   C     C_3   0.320747 0.192604 0.276554 -0.812573
H31   H     H_    0.231044 0.136816 0.274568 0.225935
H32   H     H_    0.303990 0.303414 0.287987 0.259310
H33   H     H_    0.359339 0.185305 0.225200 0.213086
O14   O     O_3   0.619028 0.851445 0.608201 -0.495505
C39   C     C_3   0.748400 0.840587 0.605446 0.102409
H34   H     H_    0.795428 0.930741 0.629372 0.124057
H35   H     H_    0.775590 0.835098 0.551730 0.107139
C40   C     C_3   0.797146 0.714829 0.647786 -0.748229
H36   H     H_    0.747801 0.619037 0.630865 0.243294
H37   H     H_    0.897467 0.701087 0.641848 0.192761
H38   H     H_    0.784485 0.730446 0.703585 0.217599
O15   O     O_3   0.593754 0.134723 0.616836 -0.492700
C41   C     C_3   0.715336 0.189083 0.621903 0.173675
H39   H     H_    0.712466 0.301092 0.610809 0.180090
H40   H     H_    0.778228 0.139782 0.586444 0.051510
C42   C     C_3   0.770002 0.180376 0.697021 -0.854520
H41   H     H_    0.775016 0.072218 0.716660 0.230818
H42   H     H_    0.864907 0.224332 0.700872 0.198477
H43   H     H_    0.712053 0.241343 0.730772 0.262082
O16   O     O_3   0.348303 0.853948 0.404477 -0.515177
C43   C     C_3   0.223474 0.893142 0.410693 0.104646
H44   H     H_    0.201714 0.995680 0.386454 0.173323
H45   H     H_    0.202559 0.898162 0.466028 0.107446
C44   C     C_3   0.136563 0.790087 0.372459 -0.763686
H46   H     H_    0.168131 0.681844 0.383108 0.278700
H47   H     H_    0.041437 0.803434 0.388890 0.181929
H48   H     H_    0.131996 0.808868 0.315738 0.223363

loop_
_geom_bond_atom_site_label_1
_geom_bond_atom_site_label_2
_ccdc_geom_bond_type
C33   H16   S    
C4    N6    A    
O14   C39   S    
C34   H19   S    
O12   C35   S    
C13   N2    A    
C14   N1    A    
C4    C25   S    
C15   N2    A    
C30   H7    S    
C16   N1    A    
C42   H42   S    
O15   C41   S    
C35   H21   S    
C7    H1    S    
O13   C37   S    
C41   H40   S    
C37   H30   S    
C30   H9    S    
C33   C34   S    
C31   H11   S    
Cu2   O2    S    
C41   C42   S    
C34   H18   S    
C23   H27   S    
C23   C26   A    
C32   H13   S    
C43   H44   S    
C5    O5    A    
C1    O4    A    
C5    C27   S    
C6    O6    A    
C2    O3    A    
C6    C28   S    
C20   C24   A    
C35   C36   S    
C29   H6    S    
C38   H32   S    
C14   O14   S    
C1    O1    A    
C44   H48   S    
C31   C32   S    
C30   H8    S    
C33   H15   S    
Cu1   O7    S    
Cu2   O8    S    
C34   H17   S    
C1    C12   S    
C2    C11   S    
C40   H37   S    
C16   O16   S    
C40   H36   S    
C43   H45   S    
C36   H23   S    
C7    C12   A    
C42   H43   S    
C29   C30   S    
C35   H20   S    
C41   H39   S    
C17   C27   A    
C18   C28   A    
C24   C25   A    
C17   O9    S    
C37   H29   S    
C39   C40   S    
C31   H10   S    
C36   H22   S    
C17   C21   A    
C32   H14   S    
C19   C23   A    
Cu1   Cu2   S    
C2    O2    A    
C18   O10   S    
C3    N5    A    
Cu1   O3    S    
C29   H5    S    
Cu2   O4    S    
C39   H34   S    
C15   O15   S    
C38   H33   S    
C39   H35   S    
C19   C28   A    
C9    C11   A    
C43   C44   S    
C10   C12   A    
C5    O8    A    
C21   H25   S    
C9    H3    S    
C6    O7    A    
C10   H4    S    
O9    C29   S    
C13   O13   S    
C22   H26   S    
C40   H38   S    
C44   H46   S    
C36   H24   S    
C7    C9    A    
C21   C25   A    
C4    N3    A    
Cu1   O5    S    
C18   C22   A    
C3    C26   S    
C37   C38   S    
C20   C27   A    
C42   H41   S    
C3    N4    A    
C24   H28   S    
Cu1   N1    S    
O16   C43   S    
Cu2   N2    S    
O10   C31   S    
C8    C11   A    
N3    N5    A    
C20   O12   S    
C19   O11   S    
N4    N6    A    
C32   H12   S    
C8    H2    S    
C8    C10   A    
O11   C33   S    
C22   C26   A    
C13   C16   A    
Cu1   O1    S    
C14   C15   A    
Cu2   O6    S    
C38   H31   S    
C44   H47   S    
