data_mof_unit_33588.cif
_audit_creation_date              2012-12-11T16:24:10-0500
_audit_creation_method            fapswitch 2.2
_symmetry_space_group_name_H-M    P1
_symmetry_Int_Tables_number       1
_space_group_crystal_system       triclinic
_cell_length_a                    14.717496
_cell_length_b                    14.773005
_cell_length_c                    32.873159
_cell_angle_alpha                 95.74326
_cell_angle_beta                  95.668254
_cell_angle_gamma                 61.326277
_cell_volume                      6228.80080144

loop_
_atom_site_label
_atom_site_type_symbol
_atom_type_description
_atom_site_fract_x
_atom_site_fract_y
_atom_site_fract_z
_atom_type_partial_charge
C1    C     C_R   0.389365 0.704255 0.447128 0.541191
C2    C     C_R   0.324640 0.355920 0.307866 0.009085
C3    C     C_R   0.408511 0.270834 0.325969 0.094796
C4    C     C_R   0.425161 0.271331 0.368912 0.073039
C5    C     C_R   0.396980 0.270645 0.164691 -0.112755
C6    C     C_R   0.392349 0.249858 0.122472 0.053085
C7    C     C_R   0.223717 0.402626 0.116848 0.115331
C8    C     C_R   0.232349 0.426479 0.159304 0.111465
C9    C     C_R   0.314172 0.354254 0.183438 0.000461
C10   C     C_1   0.313853 0.361746 0.227354 0.073358
C11   C     C_1   0.316171 0.361466 0.264057 0.085839
C12   C     C_R   0.404221 0.384870 0.434318 0.567789
C13   C     C_R   0.298783 0.306858 0.099108 0.028884
C14   C     C_R   0.745957 0.380544 0.406195 0.026876
C15   C     C_R   0.726696 0.457293 0.378934 0.080186
C16   C     C_R   0.746862 0.429645 0.338033 -0.111796
C17   C     C_R   0.784531 0.327434 0.322382 -0.013762
C18   C     C_R   0.815755 0.248226 0.349851 0.136104
C19   C     C_R   0.798376 0.275179 0.392027 0.128751
C20   C     C_R   0.790152 0.296240 0.194672 0.337348
C21   C     C_R   0.784126 0.310839 0.277278 0.344922
C22   C     C_R   0.812043 0.382593 0.139342 -0.109319
C23   C     C_R   0.699375 0.411254 0.446660 0.568692
C24   C     C_R   0.844717 0.381253 0.100486 0.107336
C25   C     C_R   0.856828 0.210782 0.084735 0.102540
C26   C     C_R   0.818958 0.215636 0.123086 0.135533
C27   C     C_R   0.805791 0.297926 0.151527 -0.016247
C28   C     C_R   0.883498 0.287374 0.075912 -0.010108
C29   C     C_R   0.366966 0.772240 0.412588 -0.042141
C30   C     C_R   0.279875 0.795447 0.384804 0.102661
C31   C     C_R   0.281974 0.819332 0.344733 0.114925
C32   C     C_R   0.369935 0.822027 0.332744 0.003904
C33   C     C_R   0.449046 0.815511 0.362082 0.133302
C34   C     C_R   0.390756 0.706707 0.560130 0.563372
C35   C     C_R   0.441938 0.801232 0.403432 0.127588
C36   C     C_R   0.374546 0.848074 0.208103 0.366723
C37   C     C_R   0.378339 0.831528 0.289471 0.326790
C38   C     C_R   0.252736 0.878244 0.146980 0.133709
C39   C     C_R   0.231514 0.881839 0.104149 0.133935
C40   C     C_R   0.404185 0.859577 0.096018 0.103072
C41   C     C_R   0.430419 0.839634 0.137848 0.072342
C42   C     C_R   0.352772 0.856033 0.163673 0.002951
C43   C     C_R   0.300618 0.893197 0.080238 -0.011306
C44   C     C_R   0.357522 0.365975 0.581699 -0.028580
C45   C     C_R   0.403910 0.387001 0.547735 0.545410
C46   C     C_R   0.259633 0.442539 0.595509 0.150479
C47   C     C_R   0.243964 0.453769 0.637861 0.126757
C48   C     C_R   0.317785 0.379570 0.664146 0.000802
C49   C     C_R   0.399622 0.288697 0.647416 0.087490
C50   C     C_R   0.417250 0.280305 0.605575 0.073266
C51   C     C_R   0.296785 0.394247 0.790459 0.366784
C52   C     C_R   0.306427 0.393383 0.708624 0.363635
C53   C     C_R   0.278328 0.432482 0.866548 0.130249
C54   C     C_R   0.273386 0.399481 0.904777 0.117728
C55   C     C_R   0.311910 0.229529 0.872266 0.107501
C56   C     C_R   0.705752 0.411061 0.561619 0.575759
C57   C     C_R   0.327833 0.259127 0.835474 0.126387
C58   C     C_R   0.305677 0.361757 0.832025 0.020196
C59   C     C_R   0.287418 0.298463 0.907349 0.002710
C60   C     C_R   0.767921 0.370503 0.600279 0.016011
C61   C     C_R   0.781862 0.436888 0.631294 0.055346
C62   C     C_R   0.799839 0.410343 0.671773 -0.110639
C63   C     C_R   0.810580 0.316137 0.681756 -0.002886
C64   C     C_R   0.816405 0.241324 0.650720 0.148595
C65   C     C_R   0.798243 0.267642 0.609543 0.136748
C66   C     C_R   0.820247 0.246473 0.829866 0.129943
C67   C     C_R   0.363834 0.362040 0.393146 0.008184
C68   C     C_R   0.851076 0.242685 0.871958 0.073649
C69   C     C_R   0.944460 0.337624 0.861578 0.095368
C70   C     C_R   0.916957 0.337274 0.819786 0.106787
C71   C     C_R   0.856721 0.290720 0.803921 -0.008950
C72   C     C_1   0.834493 0.289929 0.760559 0.008332
C73   C     C_1   0.822094 0.297217 0.724234 0.005254
C74   C     C_R   0.916639 0.284899 0.887914 -0.033043
C75   C     C_R   0.368351 0.771630 0.599409 -0.037753
C76   C     C_R   0.275701 0.802095 0.619028 0.093290
C77   C     C_R   0.274429 0.821049 0.661743 0.116196
C78   C     C_R   0.269654 0.438689 0.375155 0.114058
C79   C     C_R   0.365311 0.808670 0.684775 -0.006829
C80   C     C_R   0.448984 0.800433 0.664408 0.125191
C81   C     C_R   0.447030 0.788569 0.621371 0.115276
C82   C     C_R   0.422664 0.845873 0.836753 0.099566
C83   C     C_R   0.399541 0.875166 0.878055 0.112128
C84   C     C_R   0.240353 0.860888 0.864099 0.113070
C85   C     C_R   0.270035 0.822640 0.824002 0.102537
C86   C     C_R   0.354831 0.825224 0.809329 -0.003394
C87   C     C_1   0.366275 0.814897 0.765740 0.044569
C88   C     C_1   0.368850 0.811146 0.729013 0.009312
C89   C     C_R   0.250152 0.434816 0.332332 0.073221
C90   C     C_R   0.301623 0.894881 0.891115 -0.022751
C91   C     C_R   0.957512 0.266122 0.043843 0.561224
C92   C     C_R   0.274861 0.262560 0.059117 0.575837
C93   C     C_R   0.260530 0.956328 0.043314 0.554220
C94   C     C_R   0.963743 0.267646 0.930325 0.554254
C95   C     C_R   0.271121 0.263833 0.945194 0.561490
C96   C     C_R   0.258884 0.960445 0.929608 0.533714
Cr1   Cr    Cr6+3 0.576280 0.580550 0.506370 1.063202
Cr2   Cr    Cr6+3 0.346780 0.572400 0.496520 1.083269
Cr3   Cr    Cr6+3 0.576960 0.347070 0.497150 1.034711
Cr4   Cr    Cr6+3 0.087320 0.083240 0.984860 1.061246
Cr5   Cr    Cr6+3 0.087720 0.316210 0.996740 0.993900
Cr6   Cr    Cr6+3 0.317350 0.090340 0.995890 1.027517
H1    H     H_    0.727701 0.490742 0.317769 0.172742
H2    H     H_    0.793241 0.448491 0.160915 0.156491
H3    H     H_    0.465641 0.221241 0.182974 0.174506
H4    H     H_    0.805448 0.463847 0.695700 0.181055
N1    N     N_R   0.714485 0.380338 0.213701 -0.203171
N2    N     N_R   0.382199 0.396886 0.734860 -0.196870
N3    N     N_R   0.224547 0.393220 0.724040 -0.198501
N4    N     N_R   0.220076 0.393309 0.764212 -0.159362
N5    N     N_R   0.711177 0.386988 0.254155 -0.212208
N6    N     N_R   0.859123 0.225917 0.258108 -0.240276
N7    N     N_R   0.862041 0.218836 0.217490 -0.247018
N8    N     N_R   0.424185 0.753911 0.224100 -0.189958
N9    N     N_R   0.426621 0.745815 0.264221 -0.219370
N10   N     N_R   0.330411 0.925721 0.273616 -0.232136
N11   N     N_R   0.328583 0.933776 0.233578 -0.217290
N12   N     N_R   0.377916 0.396437 0.775139 -0.220010
O1    O     O_R   0.679450 0.499830 0.463150 -0.513264
O2    O     O_R   0.356040 0.477400 0.534170 -0.493955
O3    O     O_R   0.495910 0.323070 0.537100 -0.491259
O4    O     O_R   0.663920 0.359620 0.542290 -0.486893
O5    O     O_3   0.500010 0.500010 0.500010 -0.265620
O6    O     O_R   0.170070 0.978950 0.027680 -0.507794
O7    O     O_R   0.001760 0.175230 0.026640 -0.455341
O8    O     O_R   0.984760 0.333570 0.037150 -0.521823
O9    O     O_R   0.183410 0.309240 0.041890 -0.475427
O10   O     O_R   0.340240 0.172500 0.045430 -0.495672
O11   O     O_R   0.309670 0.000990 0.032050 -0.482509
O12   O     O_R   0.480650 0.664000 0.464630 -0.513072
O13   O     O_R   0.168330 0.982130 0.939200 -0.519585
O14   O     O_R   0.000140 0.178170 0.944610 -0.475000
O15   O     O_R   0.983010 0.336750 0.948660 -0.522879
O16   O     O_R   0.181800 0.312190 0.959860 -0.530945
O17   O     O_R   0.338500 0.175680 0.956950 -0.475503
O18   O     O_R   0.308050 0.003930 0.950020 -0.491419
O19   O     O_3   0.164130 0.163270 0.992500 -0.251270
O20   O     O_R   0.323930 0.675950 0.455370 -0.457426
O21   O     O_R   0.354700 0.475360 0.451930 -0.465048
O22   O     O_R   0.494470 0.320860 0.448390 -0.488160
O23   O     O_R   0.662580 0.357570 0.460050 -0.487410
O24   O     O_R   0.680900 0.502040 0.551870 -0.466264
O25   O     O_R   0.481990 0.666040 0.546870 -0.469867
O26   O     O_R   0.325370 0.678160 0.544080 -0.465803
I1    I     I_    0.535284 0.144266 0.096746 -0.370458
N13   N     N_2   0.840951 0.196793 0.420754 -0.504587
H5    H     H_    0.919120 0.147091 0.418419 0.279720
C97   C     C_3   0.781975 0.143759 0.425308 -0.226058
H6    H     H_    0.815213 0.068180 0.407395 0.166445
H7    H     H_    0.699455 0.190735 0.414950 0.199065
H8    H     H_    0.785664 0.129473 0.458076 0.157652
N14   N     N_2   0.837232 0.472437 0.085260 -0.526626
H9    H     H_    0.819260 0.478074 0.054170 0.269465
C98   C     C_3   0.783144 0.571105 0.107813 -0.310486
H10   H     H_    0.782142 0.632855 0.090770 0.144282
H11   H     H_    0.823895 0.570487 0.138147 0.187161
H12   H     H_    0.701761 0.589214 0.111361 0.180121
N15   N     N_2   0.861810 0.142026 0.336000 -0.510646
H13   H     H_    0.925563 0.117594 0.319003 0.281173
C99   C     C_3   0.789426 0.106516 0.318524 -0.258480
H14   H     H_    0.830973 0.021083 0.313430 0.173594
H15   H     H_    0.754081 0.140770 0.288735 0.181456
H16   H     H_    0.726753 0.127744 0.339552 0.187061
I2    I     I_    0.854240 0.097709 0.038879 -0.257963
N16   N     N_2   0.782478 0.145666 0.130939 -0.465193
H17   H     H_    0.720606 0.176542 0.149481 0.279800
C100  C     C_3   0.860603 0.043345 0.141648 -0.266253
H18   H     H_    0.886016 0.044476 0.174467 0.151527
H19   H     H_    0.928326 0.013550 0.122543 0.182662
H20   H     H_    0.826890 0.989866 0.136484 0.179626
I3    I     I_    0.137694 0.808564 0.402669 -0.319576
N17   N     N_2   0.509452 0.813679 0.435742 -0.494847
H21   H     H_    0.486897 0.816742 0.464741 0.272919
C101  C     C_3   0.537016 0.894905 0.433486 -0.253892
H22   H     H_    0.557309 0.918937 0.464706 0.162052
H23   H     H_    0.470958 0.963974 0.420071 0.185237
H24   H     H_    0.607003 0.865961 0.415821 0.190880
N18   N     N_2   0.144315 0.871141 0.085204 -0.481606
H25   H     H_    0.146689 0.856653 0.053977 0.274593
C102  C     C_3   0.118989 0.799291 0.102116 -0.275421
H26   H     H_    0.072100 0.776495 0.078972 0.127228
H27   H     H_    0.070598 0.836061 0.128749 0.196307
H28   H     H_    0.190575 0.728009 0.110803 0.161460
N19   N     N_2   0.196388 0.836917 0.316235 -0.493687
H29   H     H_    0.177006 0.895077 0.296880 0.267162
C103  C     C_3   0.201260 0.744298 0.294883 -0.250916
H30   H     H_    0.126557 0.763808 0.277213 0.188365
H31   H     H_    0.215051 0.686203 0.316962 0.198932
H32   H     H_    0.264429 0.710277 0.273280 0.168393
N20   N     N_2   0.541586 0.810034 0.349479 -0.526819
H33   H     H_    0.586817 0.742529 0.332810 0.275744
C104  C     C_3   0.532439 0.901524 0.332893 -0.260046
H34   H     H_    0.601137 0.911229 0.343891 0.184396
H35   H     H_    0.461399 0.972133 0.342635 0.195729
H36   H     H_    0.530850 0.892800 0.298920 0.200656
N21   N     N_2   0.171566 0.902204 0.173197 -0.519195
H37   H     H_    0.193384 0.861377 0.199242 0.264449
C105  C     C_3   0.104911 0.011881 0.180938 -0.277416
H38   H     H_    0.045729 0.024169 0.202314 0.161076
H39   H     H_    0.065430 0.048449 0.151901 0.170819
H40   H     H_    0.150362 0.050055 0.195176 0.182245
N22   N     N_2   0.482856 0.837623 0.068864 -0.524294
H41   H     H_    0.542626 0.762738 0.068956 0.254790
C106  C     C_3   0.517712 0.914053 0.069050 -0.216889
H42   H     H_    0.597653 0.884191 0.083336 0.162819
H43   H     H_    0.465404 0.986780 0.086124 0.211941
H44   H     H_    0.518598 0.931216 0.037030 0.162271
I4    I     I_    0.583521 0.797941 0.163431 -0.388316
N23   N     N_2   0.178972 0.506885 0.566886 -0.469951
H45   H     H_    0.195246 0.485537 0.536582 0.253617
C107  C     C_3   0.073427 0.529236 0.572612 -0.240371
H46   H     H_    0.028856 0.539462 0.542546 0.123820
H47   H     H_    0.033382 0.602861 0.591304 0.216931
H48   H     H_    0.072020 0.465170 0.587176 0.170619
I5    I     I_    0.515714 0.133261 0.576472 -0.339665
N24   N     N_2   0.253648 0.469186 0.940095 -0.510903
H49   H     H_    0.209516 0.463963 0.961247 0.257779
C108  C     C_3   0.344305 0.474410 0.958747 -0.272632
H50   H     H_    0.401208 0.398713 0.970887 0.157529
H51   H     H_    0.321200 0.534439 0.984445 0.140448
H52   H     H_    0.381178 0.495562 0.936117 0.188931
N25   N     N_2   0.157311 0.543129 0.653895 -0.514651
H53   H     H_    0.117273 0.529497 0.674367 0.285252
C109  C     C_3   0.177667 0.628067 0.667264 -0.262342
H54   H     H_    0.103710 0.697773 0.674750 0.188536
H55   H     H_    0.212271 0.645422 0.642589 0.202984
H56   H     H_    0.231690 0.608867 0.694964 0.167158
I6    I     I_    0.495422 0.164511 0.685644 -0.432507
I7    I     I_    0.510333 0.142884 0.287457 -0.404413
N26   N     N_2   0.252283 0.537665 0.863033 -0.490830
H57   H     H_    0.288464 0.549633 0.840416 0.282006
C110  C     C_3   0.142103 0.608411 0.862516 -0.256760
H58   H     H_    0.128590 0.688659 0.861541 0.194811
H59   H     H_    0.108744 0.604451 0.890675 0.165234
H60   H     H_    0.101747 0.590095 0.835137 0.175742
N27   N     N_2   0.311778 0.133370 0.873033 -0.500724
H61   H     H_    0.372824 0.072258 0.858814 0.268149
C111  C     C_3   0.212387 0.138063 0.860416 -0.299363
H62   H     H_    0.167695 0.197756 0.837879 0.171557
H63   H     H_    0.166522 0.155412 0.887634 0.161122
H64   H     H_    0.223734 0.063062 0.845401 0.124390
N28   N     N_2   0.360265 0.187504 0.800669 -0.489156
H65   H     H_    0.325565 0.140838 0.795586 0.268009
C112  C     C_3   0.471566 0.131205 0.797794 -0.264824
H66   H     H_    0.509208 0.084888 0.824977 0.164607
H67   H     H_    0.502916 0.185498 0.795646 0.194972
H68   H     H_    0.490704 0.077914 0.769962 0.173668
I8    I     I_    0.789223 0.181587 0.911210 -0.324102
N29   N     N_2   0.749840 0.209139 0.814128 -0.479967
H69   H     H_    0.693851 0.255723 0.793202 0.268362
C113  C     C_3   0.798738 0.101494 0.799674 -0.284655
H70   H     H_    0.738164 0.079054 0.788535 0.160071
H71   H     H_    0.846113 0.052029 0.824935 0.172492
H72   H     H_    0.848595 0.088211 0.774076 0.131568
N30   N     N_2   0.842852 0.139496 0.660360 -0.517123
H73   H     H_    0.905536 0.108870 0.681137 0.245121
C114  C     C_3   0.756850 0.128379 0.672240 -0.278265
H74   H     H_    0.730669 0.169794 0.702408 0.157627
H75   H     H_    0.781655 0.045233 0.674704 0.174874
H76   H     H_    0.690803 0.159535 0.649096 0.194066
N31   N     N_2   0.822890 0.189011 0.577277 -0.502103
H77   H     H_    0.899307 0.132117 0.578813 0.276078
C115  C     C_3   0.751004 0.148150 0.568206 -0.213870
H78   H     H_    0.779176 0.074896 0.583522 0.172965
H79   H     H_    0.744761 0.131950 0.534648 0.155937
H80   H     H_    0.672872 0.204619 0.578353 0.197207
I9    I     I_    0.791317 0.571246 0.620717 -0.298300
I10   I     I_    0.974447 0.403215 0.780259 -0.357907
N32   N     N_2   0.005653 0.386660 0.875688 -0.489898
H81   H     H_    0.071020 0.344783 0.893833 0.277950
C116  C     C_3   0.947510 0.495171 0.888315 -0.239621
H82   H     H_    0.001987 0.526158 0.898216 0.130346
H83   H     H_    0.899389 0.506473 0.914223 0.161558
H84   H     H_    0.896081 0.539357 0.862430 0.188632
I11   I     I_    0.533665 0.130745 0.396306 -0.460261
N33   N     N_2   0.475753 0.885543 0.905389 -0.478274
H85   H     H_    0.459095 0.959721 0.915672 0.295072
C117  C     C_3   0.524637 0.809069 0.935730 -0.264054
H86   H     H_    0.467828 0.817650 0.957638 0.146433
H87   H     H_    0.588260 0.819032 0.953043 0.141182
H88   H     H_    0.558321 0.730047 0.920539 0.168957
I12   I     I_    0.560892 0.834509 0.816079 -0.438165
N34   N     N_2   0.535978 0.802312 0.686777 -0.471635
H89   H     H_    0.564825 0.753871 0.710659 0.281535
C118  C     C_3   0.520932 0.905011 0.699202 -0.239661
H90   H     H_    0.459664 0.943425 0.721620 0.150386
H91   H     H_    0.498261 0.952330 0.672175 0.216416
H92   H     H_    0.594457 0.900026 0.713720 0.182507
I13   I     I_    0.552254 0.814533 0.590063 -0.233290
I14   I     I_    0.132971 0.828648 0.585833 -0.319964
I15   I     I_    0.188433 0.755606 0.786267 -0.492029
N35   N     N_2   0.149438 0.862787 0.876529 -0.491818
H93   H     H_    0.153605 0.840585 0.905684 0.274697
C119  C     C_3   0.052192 0.950353 0.864161 -0.258237
H94   H     H_    0.986776 0.942673 0.874483 0.159906
H95   H     H_    0.043476 0.953652 0.830361 0.165328
H96   H     H_    0.047918 0.024074 0.877665 0.176133
N36   N     N_2   0.182165 0.848525 0.681371 -0.497488
H97   H     H_    0.193754 0.802105 0.704652 0.276935
C120  C     C_3   0.123525 0.957191 0.693394 -0.264863
H98   H     H_    0.170254 0.982241 0.715616 0.148854
H99   H     H_    0.053309 0.970828 0.708353 0.146547
H100  H     H_    0.099290 0.003905 0.666077 0.183138
N37   N     N_2   0.195571 0.519833 0.400252 -0.466478
H101  H     H_    0.152666 0.589679 0.387166 0.297100
C121  C     C_3   0.133869 0.490070 0.421795 -0.270559
H102  H     H_    0.083235 0.555917 0.442411 0.146698
H103  H     H_    0.084304 0.468583 0.399618 0.159235
H104  H     H_    0.184600 0.423790 0.440788 0.147547
I16   I     I_    0.125061 0.571430 0.186913 -0.408207
N38   N     N_2   0.145297 0.477610 0.091433 -0.513935
H105  H     H_    0.147430 0.546583 0.092508 0.254638
C122  C     C_3   0.041772 0.490506 0.092707 -0.221011
H106  H     H_    0.994229 0.559906 0.112463 0.156548
H107  H     H_    0.043255 0.421673 0.104393 0.200952
H108  H     H_    0.004307 0.502177 0.061321 0.173584
I17   I     I_    0.106265 0.544585 0.304505 -0.367272
N39   N     N_2   0.680079 0.564588 0.390719 -0.507051
H109  H     H_    0.608825 0.597327 0.403137 0.295704
C123  C     C_3   0.749658 0.605230 0.406395 -0.246442
H110  H     H_    0.739040 0.628851 0.439455 0.175872
H111  H     H_    0.731667 0.674069 0.389731 0.167437
H112  H     H_    0.832301 0.547480 0.402372 0.144525

loop_
_geom_bond_atom_site_label_1
_geom_bond_atom_site_label_2
_ccdc_geom_bond_type
N30   C114  S    
C55   C59   A    
C36   C42   S    
C97   H8    S    
C21   N6    A    
N8    N9    A    
C5    H3    S    
C102  H26   S    
C54   N24   S    
Cr2   O20   S    
C5    C6    A    
C25   I2    S    
C116  H82   S    
C51   N12   A    
C112  H66   S    
C61   I9    S    
C46   C47   A    
C40   C43   A    
N28   C112  S    
C34   C75   S    
Cr3   O3    S    
Cr2   O2    S    
C35   N17   S    
C102  H27   S    
C77   C79   A    
C78   C89   A    
C111  H63   S    
C34   O25   A    
N22   H41   S    
C123  H112  S    
C113  H70   S    
Cr6   O18   S    
Cr5   O19   S    
N21   H37   S    
C45   O3    A    
C94   O14   A    
Cr4   O6    S    
C78   N37   S    
C75   C76   A    
C57   N28   S    
C110  H59   S    
C121  H102  S    
C12   O21   A    
C69   C74   A    
C76   C77   A    
C49   I6    S    
N26   C110  S    
C36   N11   A    
C101  H24   S    
C98   H10   S    
C45   O2    A    
C40   N22   S    
C60   C65   A    
C22   C27   A    
C55   C57   A    
N15   H13   S    
N36   H97   S    
C39   N18   S    
C120  H98   S    
N13   H5    S    
C44   C50   A    
C115  H79   S    
C91   O7    A    
Cr2   O26   S    
C14   C19   A    
Cr3   O23   S    
C72   C73   T    
C53   C58   A    
Cr4   O14   S    
C70   I10   S    
C62   H4    S    
Cr5   O15   S    
C29   C35   A    
C112  H68   S    
N35   C119  S    
C118  H91   S    
C32   C33   A    
C30   C31   A    
C50   I5    S    
C103  H32   S    
C97   H6    S    
C69   C70   A    
Cr1   O24   S    
Cr4   O19   S    
C7    C13   A    
C80   N34   S    
C8    I16   S    
C23   O23   A    
C105  H39   S    
C103  H30   S    
C99   H15   S    
N20   H33   S    
C55   N27   S    
C36   N8    A    
N18   H25   S    
C106  H43   S    
C7    C8    A    
C100  H19   S    
C37   N10   A    
C53   C54   A    
C68   I8    S    
N29   H69   S    
N24   C108  S    
Cr6   O10   S    
C23   O1    A    
C20   N7    A    
C122  H107  S    
C68   C74   A    
N19   H29   S    
C114  H74   S    
C101  H22   S    
N39   C123  S    
N19   C103  S    
C9    C10   S    
C76   I14   S    
C120  H100  S    
C53   N26   S    
N37   C121  S    
N16   C100  S    
C84   C90   A    
C2    C11   S    
C15   N39   S    
N17   C101  S    
N23   H45   S    
C101  H23   S    
C54   C59   A    
C19   N13   S    
C113  H72   S    
C25   C26   A    
Cr6   O19   S    
C56   O4    A    
Cr1   O1    S    
C5    C9    A    
C29   C30   A    
C108  H51   S    
C31   C32   A    
C84   N35   S    
C48   C52   S    
C17   C18   A    
C32   C37   S    
N25   C109  S    
C96   O13   A    
N38   C122  S    
C3    C4    A    
C82   I12   S    
C92   O9    A    
C108  H52   S    
C40   C41   A    
C4    I11   S    
N1    N5    A    
C65   N31   S    
C24   C28   A    
N33   C117  S    
C90   C96   S    
Cr2   O21   S    
C114  H76   S    
C71   C72   S    
Cr1   O5    S    
C57   C58   A    
Cr5   O9    S    
C112  H67   S    
C28   C91   S    
C61   C62   A    
C10   C11   T    
C63   C64   A    
C107  H48   S    
C106  H42   S    
C49   C50   A    
N34   H89   S    
C117  H86   S    
N14   H9    S    
C81   I13   S    
C83   N33   S    
C116  H84   S    
C87   C88   T    
C26   N16   S    
N31   H77   S    
C31   N19   S    
C41   C42   A    
C74   C94   S    
C109  H54   S    
C3    I7    S    
C115  H78   S    
C96   O18   A    
C25   C28   A    
C111  H64   S    
C34   O26   A    
C26   C27   A    
N22   C106  S    
Cr1   O12   S    
C119  H94   S    
C94   O15   A    
C18   C19   A    
C89   I17   S    
C24   N14   S    
C44   C46   A    
C16   C17   A    
C117  H88   S    
C121  H103  S    
C12   O22   A    
C70   C71   A    
C98   H11   S    
C64   N30   S    
C56   O24   A    
N32   H81   S    
N15   C99   S    
N36   C120  S    
C93   O11   A    
C79   C88   S    
C21   N5    A    
C120  H99   S    
N13   C97   S    
C121  H104  S    
C84   C85   A    
C98   H12   S    
N21   C105  S    
C1    O12   A    
C100  H18   S    
C6    I1    S    
C86   C87   S    
C63   C73   S    
C85   C86   A    
C95   O16   A    
C56   C60   S    
C60   C61   A    
C123  H111  S    
C2    C89   A    
C104  H36   S    
C118  H90   S    
C18   N15   S    
C93   O6    A    
C16   H1    S    
C107  H46   S    
C106  H44   S    
C7    N38   S    
N28   H65   S    
C51   C58   S    
C119  H96   S    
Cr3   O4    S    
C48   C49   A    
C51   N4    A    
C13   C92   S    
C22   C24   A    
C103  H31   S    
C109  H56   S    
C44   C45   S    
C111  H62   S    
N20   C104  S    
C97   H7    S    
N18   C102  S    
C37   N9    A    
C20   C27   S    
C46   N23   S    
C64   C65   A    
C41   I4    S    
C82   C86   A    
N3    N4    A    
C104  H34   S    
C122  H106  S    
C38   C39   A    
C52   N3    A    
C110  H58   S    
C43   C93   S    
N27   C111  S    
N26   H57   S    
C17   C21   S    
C69   N32   S    
C82   C83   A    
C33   N20   S    
C77   N36   S    
C99   H16   S    
C115  H80   S    
C66   C68   A    
N38   H105  S    
N16   H17   S    
C91   O8    A    
N34   C118  S    
Cr6   O11   S    
Cr4   O13   S    
Cr5   O16   S    
N27   H61   S    
C62   C63   A    
N35   H93   S    
C38   C42   A    
C118  H92   S    
C113  H71   S    
C15   C16   A    
C22   H2    S    
N10   N11   A    
Cr1   O25   S    
C33   C35   A    
Cr6   O17   S    
C66   C71   A    
C38   N21   S    
C8    C9    A    
C105  H38   S    
C102  H28   S    
C20   N1    A    
C66   N29   S    
C67   C78   A    
C59   C95   S    
C92   O10   A    
C1    C29   S    
N6    N7    A    
C100  H20   S    
Cr2   O5    S    
C85   I15   S    
C12   C67   S    
N29   C113  S    
Cr4   O7    S    
N2    N12   A    
N24   H49   S    
N31   C115  S    
C75   C81   A    
C122  H108  S    
C39   C43   A    
C110  H60   S    
C114  H75   S    
C14   C23   S    
N39   H109  S    
C47   C48   A    
C105  H40   S    
C95   O17   A    
Cr5   O8    S    
N33   H85   S    
N37   H101  S    
C107  H47   S    
C47   N25   S    
N14   C98   S    
C117  H87   S    
Cr3   O22   S    
N30   H73   S    
N17   H21   S    
Cr3   O5    S    
C116  H83   S    
C83   C90   A    
C14   C15   A    
C80   C81   A    
C109  H55   S    
C4    C67   A    
C123  H110  S    
N32   C116  S    
C2    C3    A    
C6    C13   A    
C119  H95   S    
C108  H50   S    
N23   C107  S    
N25   H53   S    
C99   H14   S    
C30   I3    S    
C79   C80   A    
C52   N2    A    
C1    O20   A    
C104  H35   S    
