data_mof_unit_65530.cif
_audit_creation_date              2013-03-05T15:57:52-0500
_audit_creation_method            fapswitch 2.2
_symmetry_space_group_name_H-M    P1
_symmetry_Int_Tables_number       1
_space_group_crystal_system       triclinic
_cell_length_a                    21.693813
_cell_length_b                    21.693813
_cell_length_c                    29.137132
_cell_angle_alpha                 90.000018
_cell_angle_beta                  90.0
_cell_angle_gamma                 89.999989
_cell_volume                      13712.5614225

loop_
_atom_site_label
_atom_site_type_symbol
_atom_site_description
_atom_site_fract_x
_atom_site_fract_y
_atom_site_fract_z
_atom_type_partial_charge
O1    O     O_R   0.408380 0.948270 0.000000 -0.587420
O2    O     O_R   0.051730 0.408380 0.000000 -0.587421
O3    O     O_R   0.591620 0.051730 0.000000 -0.587421
O4    O     O_R   0.948270 0.591620 0.000000 -0.587420
O5    O     O_R   0.591620 0.948270 0.000000 -0.587420
O6    O     O_R   0.948270 0.408380 0.000000 -0.587421
O7    O     O_R   0.408380 0.051730 0.000000 -0.587420
O8    O     O_R   0.051730 0.591620 0.000000 -0.587420
O9    O     O_R   0.908380 0.448270 0.500000 -0.587425
O10   O     O_R   0.551730 0.908380 0.500000 -0.587423
O11   O     O_R   0.091620 0.551730 0.500000 -0.587422
O12   O     O_R   0.448270 0.091620 0.500000 -0.587426
O13   O     O_R   0.091620 0.448270 0.500000 -0.587422
O14   O     O_R   0.448270 0.908380 0.500000 -0.587422
O15   O     O_R   0.908380 0.551730 0.500000 -0.587427
O16   O     O_R   0.551730 0.091620 0.500000 -0.587426
C1    C     C_R   0.380096 0.000000 0.000000 0.988460
C2    C     C_R   1.000000 0.380096 1.000000 0.988465
C3    C     C_R   0.619904 0.000000 0.000000 0.988463
C4    C     C_R   0.000000 0.619904 1.000000 0.988460
C5    C     C_R   0.880097 0.500000 0.500000 0.988483
C6    C     C_R   0.500000 0.880097 0.500000 0.988466
C7    C     C_R   0.119903 0.500000 0.500000 0.988462
C8    C     C_R   0.500000 0.119903 0.500000 0.988480
O17   O     O_R   0.499990 0.948270 0.063150 -0.588792
O18   O     O_R   0.051730 0.499990 0.063150 -0.588793
O19   O     O_R   0.500010 0.051730 0.063150 -0.588792
O20   O     O_R   0.948270 0.500010 0.063150 -0.588791
O21   O     O_R   0.500010 0.948270 0.936850 -0.588791
O22   O     O_R   0.948270 0.499990 0.936850 -0.588792
O23   O     O_R   0.499990 0.051730 0.936850 -0.588791
O24   O     O_R   0.051730 0.500010 0.936850 -0.588792
O25   O     O_R   0.999990 0.448270 0.563150 -0.588796
O26   O     O_R   0.551730 0.999990 0.563150 -0.588793
O27   O     O_R   0.000010 0.551730 0.563150 -0.588792
O28   O     O_R   0.448270 0.000010 0.563150 -0.588796
O29   O     O_R   0.000010 0.448270 0.436850 -0.588791
O30   O     O_R   0.448270 0.999990 0.436850 -0.588792
O31   O     O_R   0.999990 0.551730 0.436850 -0.588796
O32   O     O_R   0.551730 0.000010 0.436850 -0.588796
C9    C     C_R   0.500000 0.000000 0.085740 0.933219
C10   C     C_R   1.000000 0.500000 0.085740 0.933220
C11   C     C_R   0.500000 0.000000 0.914259 0.933218
C12   C     C_R   0.000000 0.500000 0.914259 0.933218
C13   C     C_R   0.000000 0.500000 0.585740 0.933231
C14   C     C_R   0.500000 1.000000 0.585740 0.933231
C15   C     C_R   1.000000 0.500000 0.414259 0.933230
C16   C     C_R   0.500000 1.000000 0.414259 0.933230
Zn1   Zn    Zn3+2 0.500000 0.930930 0.000000 1.117819
Zn2   Zn    Zn3+2 0.069070 0.500000 0.000000 1.117819
Zn3   Zn    Zn3+2 0.500000 0.069070 0.000000 1.117819
Zn4   Zn    Zn3+2 0.930930 0.500000 0.000000 1.117819
Zn5   Zn    Zn3+2 1.000000 0.430930 0.500000 1.117813
Zn6   Zn    Zn3+2 0.569070 1.000000 0.500000 1.117811
Zn7   Zn    Zn3+2 0.000000 0.569070 0.500000 1.117812
Zn8   Zn    Zn3+2 0.430930 1.000000 0.500000 1.117813
Zn9   Zn    Zn3+2 0.000000 1.000000 0.952410 1.025558
Zn10  Zn    Zn3+2 0.000000 1.000000 0.047590 1.025558
Zn11  Zn    Zn3+2 0.500000 0.500000 0.452410 1.025558
Zn12  Zn    Zn3+2 0.500000 0.500000 0.547590 1.025557
C17   C     C_1   0.500000 0.000000 0.136562 -0.077476
C18   C     C_1   0.000000 0.500000 0.136562 -0.077475
C19   C     C_1   0.500000 1.000000 0.863438 -0.077476
C20   C     C_1   0.000000 0.500000 0.863438 -0.077475
C21   C     C_1   0.000000 0.500000 0.636562 -0.077466
C22   C     C_1   0.500000 1.000000 0.636562 -0.077466
C23   C     C_1   0.000000 0.500000 0.363438 -0.077466
C24   C     C_1   0.500000 1.000000 0.363438 -0.077466
C25   C     C_1   0.500000 1.000000 0.178872 0.052396
C26   C     C_1   1.000000 0.500000 0.178872 0.052396
C27   C     C_1   0.500000 1.000000 0.821128 0.052396
C28   C     C_1   1.000000 0.500000 0.821128 0.052396
C29   C     C_1   0.000000 0.500000 0.678872 0.052398
C30   C     C_1   0.500000 1.000000 0.678872 0.052398
C31   C     C_1   0.000000 0.500000 0.321128 0.052398
C32   C     C_1   0.500000 1.000000 0.321128 0.052398
C33   C     C_1   0.500000 1.000000 0.228844 0.049941
C34   C     C_1   0.000000 0.500000 0.228844 0.049941
C35   C     C_1   0.500000 1.000000 0.771156 0.049941
C36   C     C_1   1.000000 0.500000 0.771156 0.049941
C37   C     C_1   1.000000 0.500000 0.728844 0.049941
C38   C     C_1   0.500000 1.000000 0.728844 0.049941
C39   C     C_1   0.000000 0.500000 0.271156 0.049941
C40   C     C_1   0.500000 1.000000 0.271156 0.049941
C41   C     C_R   0.282833 0.037856 0.968553 0.258114
C42   C     C_R   0.962145 0.282833 0.968553 0.258114
C43   C     C_R   0.717167 0.962144 0.968553 0.258113
C44   C     C_R   0.037856 0.717167 0.968553 0.258114
C45   C     C_R   0.717167 0.037856 0.031447 0.258114
C46   C     C_R   0.037855 0.282833 0.031447 0.258114
C47   C     C_R   0.282833 0.962144 0.031447 0.258115
C48   C     C_R   0.962144 0.717167 0.031447 0.258115
C49   C     C_R   0.782833 0.537849 0.468548 0.258111
C50   C     C_R   0.462145 0.782833 0.468552 0.258113
C51   C     C_R   0.217167 0.462144 0.468553 0.258114
C52   C     C_R   0.537850 0.217166 0.468549 0.258111
C53   C     C_R   0.217167 0.537856 0.531447 0.258114
C54   C     C_R   0.537855 0.782833 0.531448 0.258115
C55   C     C_R   0.782833 0.462151 0.531451 0.258111
C56   C     C_R   0.462150 0.217167 0.531451 0.258111
C57   C     C_R   0.218707 0.038289 0.968966 -0.041956
C58   C     C_R   0.961712 0.218707 0.968965 -0.041955
C59   C     C_R   0.781293 0.961711 0.968966 -0.041955
C60   C     C_R   0.038289 0.781293 0.968966 -0.041956
C61   C     C_R   0.781293 0.038289 0.031034 -0.041956
C62   C     C_R   0.038288 0.218707 0.031035 -0.041955
C63   C     C_R   0.218707 0.961710 0.031034 -0.041956
C64   C     C_R   0.961711 0.781293 0.031034 -0.041957
C65   C     C_R   0.718708 0.538282 0.468961 -0.041952
C66   C     C_R   0.461712 0.718707 0.468965 -0.041955
C67   C     C_R   0.281293 0.461711 0.468965 -0.041955
C68   C     C_R   0.538283 0.281292 0.468962 -0.041952
C69   C     C_R   0.281293 0.538289 0.531034 -0.041955
C70   C     C_R   0.538288 0.718707 0.531035 -0.041955
C71   C     C_R   0.718708 0.461718 0.531039 -0.041952
C72   C     C_R   0.461717 0.281292 0.531038 -0.041953
C73   C     C_R   0.187399 1.000000 0.000000 -0.119585
C74   C     C_R   1.000000 0.187400 0.000000 -0.119586
C75   C     C_R   0.812601 1.000000 1.000000 -0.119586
C76   C     C_R   1.000000 0.812600 1.000000 -0.119585
C77   C     C_R   0.687400 0.500000 0.500000 -0.119592
C78   C     C_R   0.500000 0.687400 0.500000 -0.119587
C79   C     C_R   0.312601 0.500000 0.500000 -0.119586
C80   C     C_R   0.500000 0.312600 0.500000 -0.119590
O33   O     O_R   0.000010 0.908280 0.964370 -0.614371
O34   O     O_R   0.091720 0.000010 0.964370 -0.614371
O35   O     O_R   0.999990 0.091720 0.964370 -0.614371
O36   O     O_R   0.908280 0.999990 0.964370 -0.614371
O37   O     O_R   0.999990 0.908280 0.035630 -0.614371
O38   O     O_R   0.908280 0.000010 0.035630 -0.614371
O39   O     O_R   0.000010 0.091720 0.035630 -0.614371
O40   O     O_R   0.091720 0.999990 0.035630 -0.614372
O41   O     O_R   0.500010 0.408280 0.464370 -0.614369
O42   O     O_R   0.591720 0.500010 0.464370 -0.614369
O43   O     O_R   0.499990 0.591720 0.464370 -0.614371
O44   O     O_R   0.408280 0.499990 0.464370 -0.614371
O45   O     O_R   0.499990 0.408280 0.535630 -0.614369
O46   O     O_R   0.408280 0.500010 0.535630 -0.614371
O47   O     O_R   0.500010 0.591720 0.535630 -0.614371
O48   O     O_R   0.591720 0.499990 0.535630 -0.614369
C81   C     C_R   0.314240 0.000000 0.000000 -0.301412
C82   C     C_R   1.000000 0.314240 1.000000 -0.301411
C83   C     C_R   0.685760 1.000000 0.000000 -0.301412
C84   C     C_R   1.000000 0.685760 1.000000 -0.301412
C85   C     C_R   0.814240 0.500000 0.500000 -0.301405
C86   C     C_R   0.500000 0.814240 0.500000 -0.301410
C87   C     C_R   0.185760 0.500000 0.500000 -0.301411
C88   C     C_R   0.500000 0.185760 0.500000 -0.301406
C89   C     C_R   1.000000 0.878514 0.000000 0.996895
C90   C     C_R   0.121486 1.000000 0.000000 0.996894
C91   C     C_R   1.000000 0.121486 0.000000 0.996894
C92   C     C_R   0.878514 1.000000 0.000000 0.996894
C93   C     C_R   0.500000 0.378514 0.500000 0.996888
C94   C     C_R   0.621486 0.500000 0.500000 0.996886
C95   C     C_R   0.500000 0.621486 0.500000 0.996892
C96   C     C_R   0.378514 0.500000 0.500000 0.996893
N1    N     N_R   0.315837 0.073407 0.934947 0.216173
O49   O     O_R   0.309578 0.132997 0.933280 -0.363727
O50   O     O_R   0.352707 0.046192 0.906144 -0.407510
N2    N     N_R   0.926596 0.315837 0.934946 0.216172
O51   O     O_R   0.867005 0.309578 0.933277 -0.363727
O52   O     O_R   0.953811 0.352708 0.906143 -0.407513
N3    N     N_R   0.684163 0.926594 0.934947 0.216173
O53   O     O_R   0.690422 0.867004 0.933278 -0.363727
O54   O     O_R   0.647292 0.953809 0.906143 -0.407512
N4    N     N_R   0.073407 0.684163 0.934947 0.216173
O55   O     O_R   0.132997 0.690421 0.933280 -0.363727
O56   O     O_R   0.046192 0.647293 0.906143 -0.407511
N5    N     N_R   0.684163 0.073405 0.065054 0.216173
O57   O     O_R   0.690422 0.132996 0.066722 -0.363727
O58   O     O_R   0.647292 0.046190 0.093857 -0.407512
N6    N     N_R   0.073404 0.315837 0.065054 0.216173
O59   O     O_R   0.132995 0.309578 0.066723 -0.363727
O60   O     O_R   0.046189 0.352708 0.093857 -0.407512
N7    N     N_R   0.315837 0.926593 0.065053 0.216173
O61   O     O_R   0.309578 0.867003 0.066720 -0.363727
O62   O     O_R   0.352707 0.953808 0.093856 -0.407511
N8    N     N_R   0.926593 0.684163 0.065053 0.216174
O63   O     O_R   0.867003 0.690422 0.066720 -0.363727
O64   O     O_R   0.953808 0.647293 0.093856 -0.407511
N9    N     N_R   0.815838 0.573391 0.434938 0.216168
O65   O     O_R   0.809579 0.632981 0.433263 -0.363730
O66   O     O_R   0.852710 0.546170 0.406139 -0.407524
N10   N     N_R   0.426597 0.815837 0.434945 0.216172
O67   O     O_R   0.367006 0.809578 0.433276 -0.363728
O68   O     O_R   0.453813 0.852708 0.406142 -0.407515
N11   N     N_R   0.184163 0.426595 0.434946 0.216173
O69   O     O_R   0.190422 0.367004 0.433278 -0.363729
O70   O     O_R   0.147292 0.453810 0.406143 -0.407514
N12   N     N_R   0.573394 0.184162 0.434939 0.216169
O71   O     O_R   0.632984 0.190421 0.433265 -0.363729
O72   O     O_R   0.546173 0.147290 0.406140 -0.407522
N13   N     N_R   0.184163 0.573405 0.565054 0.216173
O73   O     O_R   0.190422 0.632996 0.566722 -0.363728
O74   O     O_R   0.147292 0.546190 0.593857 -0.407514
N14   N     N_R   0.573403 0.815837 0.565055 0.216172
O75   O     O_R   0.632993 0.809578 0.566724 -0.363729
O76   O     O_R   0.546187 0.852708 0.593857 -0.407515
N15   N     N_R   0.815838 0.426608 0.565062 0.216168
O77   O     O_R   0.809580 0.367018 0.566736 -0.363729
O78   O     O_R   0.852710 0.453829 0.593861 -0.407523
N16   N     N_R   0.426606 0.184162 0.565060 0.216169
O79   O     O_R   0.367016 0.190422 0.566735 -0.363729
O80   O     O_R   0.453826 0.147291 0.593860 -0.407522
N17   N     N_3   0.184765 0.076981 0.937932 -0.417915
H1    H     H_    0.198921 0.067488 0.904365 0.235410
H2    H     H_    0.194561 0.123032 0.945479 0.235476
N18   N     N_3   0.923021 0.184766 0.937930 -0.417915
H3    H     H_    0.932516 0.198921 0.904364 0.235410
H4    H     H_    0.876970 0.194562 0.945476 0.235477
N19   N     N_3   0.815234 0.923020 0.937931 -0.417914
H5    H     H_    0.801079 0.932513 0.904364 0.235411
H6    H     H_    0.805439 0.876969 0.945478 0.235476
N20   N     N_3   0.076981 0.815234 0.937932 -0.417916
H7    H     H_    0.067488 0.801079 0.904365 0.235410
H8    H     H_    0.123032 0.805438 0.945479 0.235476
N21   N     N_3   0.815234 0.076980 0.062069 -0.417916
H9    H     H_    0.801080 0.067486 0.095635 0.235410
H10   H     H_    0.805438 0.123031 0.054522 0.235477
N22   N     N_3   0.076979 0.184766 0.062070 -0.417914
H11   H     H_    0.067485 0.198922 0.095636 0.235411
H12   H     H_    0.123030 0.194561 0.054523 0.235476
N23   N     N_3   0.184765 0.923019 0.062068 -0.417916
H13   H     H_    0.198921 0.932512 0.095635 0.235410
H14   H     H_    0.194562 0.876968 0.054521 0.235476
N24   N     N_3   0.923019 0.815234 0.062068 -0.417915
H15   H     H_    0.932512 0.801079 0.095635 0.235410
H16   H     H_    0.876968 0.805438 0.054521 0.235476
N25   N     N_3   0.684767 0.576966 0.437921 -0.417908
H17   H     H_    0.698922 0.567463 0.404356 0.235408
H18   H     H_    0.694563 0.623019 0.445461 0.235478
N26   N     N_3   0.423022 0.684766 0.437929 -0.417913
H19   H     H_    0.432517 0.698921 0.404363 0.235410
H20   H     H_    0.376970 0.694562 0.445475 0.235477
N27   N     N_3   0.315234 0.423020 0.437931 -0.417915
H21   H     H_    0.301079 0.432514 0.404364 0.235410
H22   H     H_    0.305438 0.376969 0.445477 0.235477
N28   N     N_3   0.576968 0.315233 0.437922 -0.417910
H23   H     H_    0.567467 0.301078 0.404357 0.235409
H24   H     H_    0.623020 0.305438 0.445464 0.235478
N29   N     N_3   0.315234 0.576980 0.562069 -0.417914
H25   H     H_    0.301079 0.567486 0.595636 0.235410
H26   H     H_    0.305438 0.623031 0.554523 0.235476
N30   N     N_3   0.576978 0.684766 0.562071 -0.417914
H27   H     H_    0.567482 0.698921 0.595637 0.235410
H28   H     H_    0.623029 0.694562 0.554525 0.235478
N31   N     N_3   0.684767 0.423034 0.562079 -0.417908
H29   H     H_    0.698921 0.432537 0.595644 0.235407
H30   H     H_    0.694564 0.376981 0.554539 0.235479
N32   N     N_3   0.423032 0.315234 0.562077 -0.417909
H31   H     H_    0.432532 0.301078 0.595642 0.235409
H32   H     H_    0.376979 0.305437 0.554535 0.235478

loop_
_geom_bond_atom_site_label_1
_geom_bond_atom_site_label_2
_geom_bond_distance
_ccdc_geom_bond_type
C50   C86   1.406489 A    
C62   N22   1.436797 S    
N1    O49   1.300762 A    
C71   C77   1.403179 A    
C26   C34   1.456050 S    
O40   C90   1.222601 A    
N5    O57   1.300764 A    
C4    C84   1.428685 S    
C43   N3    1.437432 S    
N3    O53   1.300767 A    
C56   C72   1.391217 A    
C9    C17   1.480793 S    
O22   C12   1.301017 A    
C32   C40   1.456050 S    
Zn9   O36   2.020042 S    
N22   H12   1.044783 S    
N8    O63   1.300764 A    
C11   C19   1.480793 S    
N7    O62   1.301034 A    
O21   Zn1   1.878068 S    
N17   H1    1.045590 S    
C12   C20   1.480793 S    
C42   C58   1.391217 A    
C52   C68   1.391219 A    
C18   C26   1.232780 T    
C76   C89   1.429909 S    
O8    C4    1.279006 A    
N16   O80   1.301032 A    
O4    Zn4   2.022871 S    
C62   C74   1.403180 A    
O41   C93   1.222603 A    
C66   N26   1.436798 S    
C60   C76   1.403178 A    
N3    O54   1.301036 A    
Zn10  O38   2.020042 S    
C14   C22   1.480793 S    
O18   Zn2   1.878068 S    
C55   C71   1.391217 A    
O44   C96   1.222604 A    
N20   H8    1.044781 S    
C54   C70   1.391217 A    
O2    C2    1.279006 A    
Zn10  O37   2.020042 S    
C52   N12   1.437432 S    
C22   C30   1.232780 T    
N9    O65   1.300761 A    
Zn11  O44   2.020042 S    
C21   C29   1.232780 T    
N30   H27   1.045587 S    
O13   C7    1.279008 A    
C1    C81   1.428685 S    
N29   H25   1.045591 S    
C78   C95   1.429911 S    
C53   N13   1.437434 S    
O11   C7    1.279006 A    
C64   C76   1.403178 A    
O2    Zn2   2.022873 S    
O35   C91   1.222604 A    
C70   N30   1.436796 S    
C13   C21   1.480793 S    
C65   N25   1.436795 S    
C34   C39   1.232853 T    
O36   C92   1.222604 A    
O31   Zn7   1.878068 S    
C6    C86   1.428685 S    
C53   C69   1.391217 A    
Zn10  O40   2.020040 S    
N18   H3    1.045586 S    
O7    C1    1.279006 A    
C69   C79   1.403181 A    
C67   N27   1.436798 S    
N27   H21   1.045587 S    
C49   C85   1.406484 A    
C73   C90   1.429909 S    
O26   C14   1.301014 A    
O29   C15   1.301015 A    
C48   C64   1.391217 A    
O10   Zn6   2.022873 S    
C10   C18   1.480793 S    
C63   N23   1.436799 S    
C58   C74   1.403179 A    
O34   C90   1.222604 A    
Zn12  O45   2.020042 S    
N24   H16   1.044783 S    
O29   Zn5   1.878068 S    
N9    O66   1.301032 A    
C55   C85   1.406482 A    
N15   O77   1.300759 A    
N1    O50   1.301034 A    
C80   C93   1.429915 S    
O21   C11   1.301017 A    
N4    O56   1.301033 A    
N27   H22   1.044782 S    
O5    Zn1   2.022871 S    
C74   C91   1.429911 S    
C50   N10   1.437432 S    
C30   C38   1.456050 S    
C52   C88   1.406482 A    
C57   N17   1.436798 S    
C27   C35   1.456050 S    
N22   H11   1.045589 S    
C44   C60   1.391217 A    
N25   H17   1.045584 S    
O19   Zn3   1.878068 S    
C71   N31   1.436795 S    
C79   C96   1.429909 S    
N31   H30   1.044778 S    
O25   Zn5   1.878068 S    
O6    C2    1.279008 A    
N28   H24   1.044773 S    
C63   C73   1.403179 A    
N16   O79   1.300761 A    
C67   C79   1.403181 A    
C65   C77   1.403182 A    
C47   C63   1.391217 A    
C2    C82   1.428683 S    
C51   C87   1.406490 A    
C46   C62   1.391217 A    
N23   H13   1.045587 S    
N14   O76   1.301034 A    
C77   C94   1.429915 S    
O43   C95   1.222604 A    
O17   C9    1.301015 A    
Zn9   O34   2.020040 S    
O3    Zn3   2.022871 S    
C59   N19   1.436798 S    
C36   C37   1.232853 T    
C54   C86   1.406486 A    
C33   C40   1.232853 T    
N13   O74   1.301034 A    
N32   H31   1.045584 S    
C45   C83   1.406489 A    
C7    C87   1.428683 S    
Zn11  O41   2.020042 S    
O27   Zn7   1.878068 S    
O10   C6    1.279005 A    
N29   H26   1.044786 S    
O15   Zn7   2.022873 S    
C66   C78   1.403179 A    
N12   O71   1.300761 A    
O37   C89   1.222601 A    
O25   C13   1.301015 A    
O28   Zn8   1.878068 S    
O33   C89   1.222604 A    
O7    Zn3   2.022873 S    
O19   C9    1.301014 A    
N7    O61   1.300764 A    
O48   C94   1.222604 A    
O47   C95   1.222601 A    
Zn10  O39   2.020040 S    
C47   N7    1.437432 S    
C44   N4    1.437433 S    
N26   H20   1.044786 S    
O24   C12   1.301015 A    
C54   N14   1.437431 S    
C15   C23   1.480793 S    
O12   Zn8   2.022871 S    
C42   N2    1.437431 S    
C16   C24   1.480793 S    
O3    C3    1.279006 A    
O24   Zn2   1.878068 S    
C46   C82   1.406487 A    
O23   C11   1.301015 A    
C29   C37   1.456050 S    
C43   C59   1.391217 A    
C48   N8    1.437433 S    
C64   N24   1.436799 S    
C45   C61   1.391217 A    
N19   H6    1.044785 S    
C19   C27   1.232780 T    
C51   N11   1.437433 S    
N32   H32   1.044777 S    
C68   N28   1.436794 S    
C8    C88   1.428681 S    
N4    O55   1.300764 A    
N25   H18   1.044781 S    
C50   C66   1.391217 A    
O9    Zn5   2.022873 S    
Zn12  O48   2.020040 S    
C55   N15   1.437428 S    
O9    C5    1.279006 A    
O8    Zn2   2.022871 S    
N15   O78   1.301031 A    
C69   N29   1.436798 S    
C41   C57   1.391217 A    
N6    O59   1.300763 A    
C42   C82   1.406488 A    
O31   C15   1.301017 A    
C45   N5    1.437434 S    
N5    O58   1.301033 A    
O38   C92   1.222601 A    
O46   C96   1.222601 A    
C75   C92   1.429909 S    
O32   C16   1.301015 A    
O22   Zn4   1.878068 S    
N28   H23   1.045580 S    
O45   C93   1.222605 A    
C3    C83   1.428683 S    
C72   C80   1.403181 A    
N20   H7    1.045589 S    
O30   C16   1.301017 A    
N12   O72   1.301031 A    
Zn11  O43   2.020040 S    
N2    O52   1.301034 A    
C59   C75   1.403180 A    
N24   H15   1.045590 S    
O23   Zn3   1.878068 S    
N14   O75   1.300761 A    
C43   C83   1.406489 A    
Zn9   O35   2.020040 S    
C35   C38   1.232853 T    
N8    O64   1.301032 A    
N31   H29   1.045584 S    
N23   H14   1.044782 S    
C68   C80   1.403180 A    
O5    C3    1.279008 A    
O4    C4    1.279008 A    
C24   C32   1.232780 T    
O30   Zn8   1.878068 S    
O14   Zn8   2.022873 S    
O12   C8    1.279006 A    
Zn11  O42   2.020040 S    
O32   Zn6   1.878068 S    
N10   O68   1.301035 A    
C25   C33   1.456050 S    
O11   Zn7   2.022871 S    
C17   C25   1.232780 T    
C57   C73   1.403180 A    
O14   C6    1.279007 A    
O16   Zn6   2.022871 S    
Zn12  O46   2.020042 S    
N21   H9    1.045586 S    
C56   N16   1.437430 S    
N11   O69   1.300762 A    
C28   C36   1.456050 S    
N18   H4    1.044779 S    
C51   C67   1.391217 A    
N2    O51   1.300764 A    
C61   N21   1.436798 S    
Zn9   O33   2.020042 S    
O28   C14   1.301016 A    
O20   Zn4   1.878068 S    
O26   Zn6   1.878068 S    
C31   C39   1.456050 S    
O42   C94   1.222606 A    
C72   N32   1.436796 S    
C56   C88   1.406481 A    
C53   C87   1.406490 A    
O20   C10   1.301016 A    
N26   H19   1.045591 S    
N6    O60   1.301034 A    
N30   H28   1.044780 S    
O39   C91   1.222601 A    
C49   N9    1.437428 S    
C20   C28   1.232780 T    
O18   C10   1.301014 A    
N21   H10   1.044781 S    
C48   C84   1.406488 A    
O17   Zn1   1.878068 S    
N11   O70   1.301034 A    
C58   N18   1.436797 S    
O13   Zn5   2.022871 S    
Zn12  O47   2.020040 S    
C60   N20   1.436798 S    
N19   H5    1.045591 S    
C70   C78   1.403179 A    
C41   C81   1.406488 A    
O15   C5    1.279004 A    
C23   C31   1.232780 T    
O1    C1    1.279008 A    
O16   C8    1.279004 A    
N13   O73   1.300767 A    
C46   N6    1.437432 S    
C41   N1    1.437433 S    
C61   C75   1.403182 A    
N10   O67   1.300765 A    
O6    Zn4   2.022873 S    
N17   H2    1.044785 S    
O1    Zn1   2.022873 S    
C44   C84   1.406487 A    
C5    C85   1.428679 S    
C49   C65   1.391217 A    
C47   C81   1.406487 A    
O27   C13   1.301014 A    
