data_mof_unit_68010.cif
_audit_creation_date              2013-03-05T15:40:23-0500
_audit_creation_method            fapswitch 2.2
_symmetry_space_group_name_H-M    P1
_symmetry_Int_Tables_number       1
_space_group_crystal_system       triclinic
_cell_length_a                    7.202505
_cell_length_b                    11.51106
_cell_length_c                    13.106994
_cell_angle_alpha                 90.000027
_cell_angle_beta                  90.000046
_cell_angle_gamma                 90.0
_cell_volume                      1086.68078221

loop_
_atom_site_label
_atom_site_type_symbol
_atom_site_description
_atom_site_fract_x
_atom_site_fract_y
_atom_site_fract_z
_atom_type_partial_charge
O1    O     O_R   0.563540 0.856420 0.141290 -0.520760
O2    O     O_R   0.436460 0.143580 0.858710 -0.524006
O3    O     O_R   0.436460 0.143580 0.641290 -0.520758
O4    O     O_R   0.563540 0.856420 0.358710 -0.524005
O5    O     O_R   0.063540 0.643580 0.358710 -0.520768
O6    O     O_R   0.936460 0.356420 0.641290 -0.524015
O7    O     O_R   0.936460 0.356420 0.858710 -0.520766
O8    O     O_R   0.063540 0.643580 0.141290 -0.524014
O9    O     O_R   0.233730 0.870400 0.357990 -0.536410
O10   O     O_R   0.766270 0.129600 0.642010 -0.538680
O11   O     O_R   0.766270 0.129600 0.857990 -0.536411
O12   O     O_R   0.233730 0.870400 0.142010 -0.538680
O13   O     O_R   0.733730 0.629600 0.142010 -0.536416
O14   O     O_R   0.266270 0.370400 0.857990 -0.538671
O15   O     O_R   0.266270 0.370400 0.642010 -0.536418
O16   O     O_R   0.733730 0.629600 0.357990 -0.538671
C1    C     C_R   0.404580 0.897979 0.392008 0.679824
C2    C     C_R   0.596116 0.103212 0.606984 0.652443
C3    C     C_R   0.595420 0.102020 0.892007 0.679830
C4    C     C_R   0.403884 0.896788 0.106984 0.652443
C5    C     C_R   0.904580 0.602020 0.107993 0.679840
C6    C     C_R   0.096115 0.396788 0.893016 0.652437
C7    C     C_R   0.095420 0.397981 0.607993 0.679841
C8    C     C_R   0.903885 0.603212 0.393016 0.652438
O17   O     O_3   0.396920 0.675570 0.250000 -0.371589
O18   O     O_3   0.603080 0.324430 0.750000 -0.371590
O19   O     O_3   0.896920 0.824430 0.250000 -0.371578
O20   O     O_3   0.103080 0.175570 0.750000 -0.371578
V1    V     V_3+5 0.122110 0.763800 0.250000 1.479159
V2    V     V_3+5 0.877890 0.236200 0.750000 1.479161
V3    V     V_3+5 0.622110 0.736200 0.250000 1.479169
V4    V     V_3+5 0.377890 0.263800 0.750000 1.479172
C9    C     C_2   0.916472 0.527386 0.485946 0.125018
C10   C     C_2   0.080195 0.475462 0.516387 0.131973
C11   C     C_2   0.083528 0.472614 0.985947 0.125024
C12   C     C_2   0.919805 0.524539 0.016386 0.131965
C13   C     C_2   0.416471 0.972615 0.014053 0.125038
C14   C     C_2   0.580192 0.024545 0.983618 0.131963
C15   C     C_2   0.583529 0.027386 0.514053 0.125045
C16   C     C_2   0.419809 0.975453 0.483619 0.131958
O21   O     O_3   0.755155 0.511317 0.541933 -0.547940
C17   C     C_3   0.718137 0.614277 0.596804 0.131862
H1    H     H_    0.722493 0.693297 0.547841 0.109098
H2    H     H_    0.820857 0.623094 0.659162 0.076084
C18   C     C_3   0.525210 0.609126 0.642710 -0.682010
H3    H     H_    0.512216 0.533050 0.693855 0.244823
H4    H     H_    0.498692 0.689630 0.686716 0.125542
H5    H     H_    0.420464 0.603708 0.581355 0.251672
O22   O     O_3   0.239015 0.489843 0.458651 -0.551201
C19   C     C_3   0.273325 0.387157 0.402819 0.120659
H6    H     H_    0.233353 0.402848 0.322759 0.119816
H7    H     H_    0.195834 0.308829 0.429517 0.074541
C20   C     C_3   0.478159 0.358613 0.407746 -0.643916
H8    H     H_    0.520094 0.341286 0.487781 0.243987
H9    H     H_    0.503600 0.280062 0.361648 0.110779
H10   H     H_    0.561384 0.431228 0.376446 0.239208
O23   O     O_3   0.244844 0.488681 0.041936 -0.547940
C21   C     C_3   0.281862 0.385720 0.096804 0.131866
H11   H     H_    0.277514 0.306701 0.047839 0.109100
H12   H     H_    0.179138 0.376898 0.159160 0.076078
C22   C     C_3   0.474787 0.390873 0.142715 -0.681984
H13   H     H_    0.487762 0.466938 0.193878 0.244800
H14   H     H_    0.501316 0.310354 0.186705 0.125537
H15   H     H_    0.579543 0.396318 0.081363 0.251684
O24   O     O_3   0.760987 0.510160 0.958648 -0.551204
C23   C     C_3   0.726677 0.612847 0.902819 0.120663
H16   H     H_    0.766645 0.597159 0.822758 0.119819
H17   H     H_    0.804171 0.691174 0.929517 0.074539
C24   C     C_3   0.521842 0.641393 0.907748 -0.643917
H18   H     H_    0.479909 0.658715 0.987785 0.243989
H19   H     H_    0.496403 0.719948 0.861655 0.110776
H20   H     H_    0.438615 0.568782 0.876443 0.239201
O25   O     O_3   0.255157 0.988682 0.958063 -0.547943
C25   C     C_3   0.218131 0.885720 0.903199 0.131837
H21   H     H_    0.222464 0.806706 0.952168 0.109113
H22   H     H_    0.320857 0.876890 0.840847 0.076098
C26   C     C_3   0.025213 0.890881 0.857281 -0.681955
H23   H     H_    0.012270 0.966929 0.806096 0.244786
H24   H     H_    0.998663 0.810349 0.813312 0.125533
H25   H     H_    0.920453 0.896362 0.918629 0.251704
O26   O     O_3   0.739004 0.010174 0.041362 -0.551206
C27   C     C_3   0.773320 0.112873 0.097174 0.120657
H26   H     H_    0.733297 0.097217 0.177232 0.119784
H27   H     H_    0.695874 0.191204 0.070443 0.074566
C28   C     C_3   0.978167 0.141385 0.092271 -0.643943
H28   H     H_    0.020131 0.158717 0.012241 0.243968
H29   H     H_    0.003628 0.219925 0.138380 0.110795
H30   H     H_    0.061353 0.068751 0.123568 0.239225
O27   O     O_3   0.744842 0.011320 0.458061 -0.547943
C29   C     C_3   0.781869 0.114284 0.403199 0.131843
H31   H     H_    0.777538 0.193298 0.452171 0.109111
H32   H     H_    0.679141 0.123116 0.340847 0.076090
C30   C     C_3   0.974787 0.109123 0.357280 -0.681928
H33   H     H_    0.987719 0.033080 0.306083 0.244767
H34   H     H_    0.001343 0.189665 0.313322 0.125527
H35   H     H_    0.079553 0.103624 0.418627 0.251707
O28   O     O_3   0.261000 0.989821 0.541367 -0.551208
C31   C     C_3   0.226682 0.887117 0.597172 0.120665
H36   H     H_    0.266711 0.902765 0.677230 0.119779
H37   H     H_    0.304123 0.808787 0.570434 0.074566
C32   C     C_3   0.021833 0.858609 0.592270 -0.643943
H38   H     H_    0.979865 0.841283 0.512240 0.243969
H39   H     H_    0.996371 0.780066 0.638374 0.110792
H40   H     H_    0.938650 0.931241 0.623573 0.239220

loop_
_geom_bond_atom_site_label_1
_geom_bond_atom_site_label_2
_geom_bond_distance
_ccdc_geom_bond_type
O17   V3    1.765715 S    
C23   H17   1.116650 S    
O18   V4    1.765715 S    
C30   H33   1.106873 S    
O12   V1    2.038499 S    
O19   V1    1.765715 S    
O21   C17   1.411725 S    
O16   C8    1.343493 A    
C20   H9    1.102827 S    
C11   C12   1.380939 D    
O26   C27   1.412004 S    
C29   H31   1.113655 S    
O15   V4    2.038498 S    
C5    C12   1.499707 S    
C20   H8    1.109718 S    
O16   V3    2.038497 S    
C6    C11   1.501236 S    
O11   C3    1.346789 A    
C32   H38   1.109708 S    
C25   H22   1.107095 S    
O7    C6    1.319250 A    
O8    V1    2.030579 S    
C28   H28   1.109712 S    
C18   H5    1.104424 S    
C23   C24   1.512854 S    
C21   H12   1.107115 S    
C31   H36   1.103021 S    
O1    V3    2.030580 S    
O3    C2    1.319254 A    
O2    V4    2.030579 S    
O25   C25   1.411716 S    
C24   H19   1.102822 S    
O11   V2    2.038498 S    
O1    C4    1.319252 A    
C25   C26   1.515397 S    
C19   H7    1.116650 S    
C15   O27   1.386617 S    
O9    V1    2.038496 S    
C21   C22   1.515405 S    
C26   H24   1.108160 S    
C23   H16   1.103009 S    
C32   H39   1.102817 S    
O7    V2    2.030579 S    
C22   H13   1.106831 S    
C17   H2    1.107108 S    
O28   C31   1.412004 S    
O5    V1    2.030580 S    
C18   H4    1.108116 S    
C19   C20   1.512847 S    
C25   H21   1.113642 S    
C28   H29   1.102825 S    
C15   C16   1.380934 D    
C12   O24   1.381515 S    
C19   H6    1.103010 S    
C21   H11   1.113656 S    
C26   H23   1.106838 S    
C17   C18   1.515396 S    
C22   H15   1.104463 S    
C2    C15   1.501239 S    
C13   C14   1.380936 D    
C3    C14   1.499713 S    
O10   V2    2.038497 S    
C29   H32   1.107107 S    
C7    C10   1.499707 S    
O12   C4    1.343492 A    
C22   H14   1.108154 S    
O8    C5    1.315354 A    
O13   C5    1.346786 A    
O3    V4    2.030580 S    
O4    C1    1.315351 A    
O9    C1    1.346789 A    
O6    V2    2.030581 S    
C27   H26   1.103018 S    
C30   H35   1.104510 S    
C27   H27   1.116649 S    
C14   O26   1.381513 S    
C17   H1    1.113648 S    
C31   C32   1.512848 S    
C16   O28   1.381513 S    
C24   H20   1.107385 S    
C28   H30   1.107388 S    
C29   C30   1.515407 S    
C20   H10   1.107388 S    
C13   O25   1.386614 S    
C10   O22   1.381513 S    
O2    C3    1.315351 A    
O13   V3    2.038498 S    
O14   V4    2.038497 S    
C32   H40   1.107388 S    
C27   C28   1.512843 S    
C31   H37   1.116650 S    
C8    C9    1.501234 S    
C11   O23   1.386613 S    
C9    O21   1.386611 S    
O14   C6    1.343493 A    
O20   V2    1.765715 S    
C4    C13   1.501238 S    
C26   H25   1.104468 S    
O23   C21   1.411726 S    
O5    C8    1.319249 A    
O10   C2    1.343491 A    
O6    C7    1.315354 A    
O15   C7    1.346785 A    
C9    C10   1.380939 D    
O24   C23   1.412004 S    
C24   H18   1.109716 S    
O4    V3    2.030578 S    
C18   H3    1.106799 S    
C30   H34   1.108197 S    
O22   C19   1.412002 S    
O27   C29   1.411719 S    
C1    C16   1.499714 S    
