data_mof_unit_48175.cif
_audit_creation_date              2012-12-11T16:35:13-0500
_audit_creation_method            fapswitch 2.2
_symmetry_space_group_name_H-M    P1
_symmetry_Int_Tables_number       1
_space_group_crystal_system       triclinic
_cell_length_a                    6.964921
_cell_length_b                    17.772236
_cell_length_c                    19.452369
_cell_angle_alpha                 108.979106
_cell_angle_beta                  90.085771
_cell_angle_gamma                 90.588554
_cell_volume                      2276.80970623

loop_
_atom_site_label
_atom_site_type_symbol
_atom_type_description
_atom_site_fract_x
_atom_site_fract_y
_atom_site_fract_z
_atom_type_partial_charge
O1    O     O_R   0.505700 0.440210 0.561730 -0.539140
O2    O     O_R   0.169350 0.406300 0.412660 -0.538618
O3    O     O_R   0.005650 0.559790 0.438270 -0.507065
C1    C     C_R   0.339301 0.384479 0.383731 0.681079
O4    O     O_R   0.175560 0.430650 0.559600 -0.548896
O5    O     O_R   0.011900 0.584320 0.586250 -0.533777
C2    C     C_R   0.344394 0.415562 0.581005 0.682746
O6    O     O_R   0.499450 0.415680 0.413750 -0.539729
O7    O     O_3   0.341370 0.550390 0.508570 -0.355844
V1    V     V_3+5 0.063940 0.490650 0.498410 1.427227
O8    O     O_R   0.682570 0.593700 0.587340 -0.538306
C3    C     C_R   0.852334 0.616522 0.614961 0.695296
O9    O     O_R   0.676370 0.569350 0.440400 -0.553153
C4    C     C_R   0.846392 0.586749 0.420527 0.691724
V2    V     V_3+5 0.564750 0.509350 0.501590 1.415710
O10   O     O_3   0.837190 0.449610 0.491430 -0.373113
C5    C     C_R   0.046944 0.724547 0.319964 -0.224714
H1    H     H_    0.185753 0.746993 0.310041 0.118483
C6    C     C_R   0.037781 0.672278 0.360891 0.302599
C7    C     C_R   0.861144 0.642034 0.375908 -0.097108
C8    C     C_R   0.698610 0.661687 0.344249 -0.280597
H2    H     H_    0.569711 0.633307 0.349038 0.159063
C9    C     C_R   0.705776 0.710330 0.300488 -0.096409
H3    H     H_    0.575318 0.718918 0.273800 0.138123
C10   C     C_R   0.880920 0.743386 0.288281 0.070354
C11   C     C_R   0.752339 0.847760 0.236485 0.304903
C12   C     C_R   0.762875 0.886498 0.184030 -0.226614
C13   C     C_R   0.915844 0.872981 0.134670 -0.082180
C14   C     C_R   0.058769 0.819283 0.137805 -0.185519
H4    H     H_    0.178286 0.807737 0.100371 0.129679
C15   C     C_R   0.046355 0.778192 0.187948 -0.210612
C16   C     C_R   0.893483 0.791231 0.237770 0.066356
H5    H     H_    0.125112 0.636907 0.924121 0.113025
C17   C     C_R   0.785812 0.904703 0.751410 -0.140423
C18   C     C_R   0.718126 0.916925 0.688495 -0.125213
C19   C     C_R   0.699551 0.853265 0.624401 -0.119354
C20   C     C_R   0.748252 0.776858 0.622735 -0.131545
C21   C     C_R   0.815160 0.762308 0.685972 0.068201
C22   C     C_R   0.834589 0.827637 0.751742 0.070211
C23   C     C_R   0.866531 0.684620 0.684059 -0.184438
C24   C     C_R   0.937687 0.672423 0.748042 0.070647
C25   C     C_R   0.957132 0.737746 0.813809 0.069588
C26   C     C_R   0.905540 0.815427 0.815754 -0.184809
C27   C     C_R   0.986805 0.595373 0.748328 -0.138458
C28   C     C_R   0.054925 0.583156 0.811181 -0.123549
C29   C     C_R   0.073549 0.646812 0.875271 -0.119902
C30   C     C_R   0.024431 0.723200 0.876995 -0.135601
H6    H     H_    0.801020 0.956560 0.799390 0.104994
H7    H     H_    0.681303 0.976279 0.689390 0.118236
H8    H     H_    0.648354 0.863184 0.575506 0.114954
H9    H     H_    0.734036 0.729698 0.571175 0.106754
H10   H     H_    0.971600 0.543525 0.700352 0.102669
H11   H     H_    0.092045 0.523815 0.810240 0.118015
H12   H     H_    0.038708 0.770348 0.928559 0.103906
C31   C     C_R   0.185169 0.226234 0.367660 -0.141681
C32   C     C_R   0.116644 0.150865 0.363223 -0.123876
C33   C     C_R   0.148549 0.086343 0.301222 -0.129172
C34   C     C_R   0.248754 0.096743 0.243066 -0.139235
C35   C     C_R   0.316220 0.172946 0.244967 0.069756
C36   C     C_R   0.284312 0.239336 0.308903 0.069860
C37   C     C_R   0.417562 0.182957 0.185054 -0.174142
C38   C     C_R   0.491083 0.258801 0.189744 0.071566
C39   C     C_R   0.472150 0.324109 0.255293 0.044487
C40   C     C_R   0.359551 0.315795 0.314297 -0.172104
C41   C     C_R   0.583473 0.270976 0.129368 -0.209169
C42   C     C_R   0.671076 0.342998 0.134733 -0.125977
C43   C     C_R   0.667279 0.405687 0.199907 0.340858
C44   C     C_R   0.568088 0.396305 0.259406 -0.230804
H13   H     H_    0.161807 0.273231 0.418366 0.118669
H14   H     H_    0.040857 0.142290 0.408704 0.112542
H15   H     H_    0.097463 0.027659 0.298465 0.119605
H16   H     H_    0.274921 0.043926 0.197233 0.108223
H17   H     H_    0.591013 0.225093 0.077005 0.130158
H18   H     H_    0.571684 0.446059 0.308584 0.114741
C45   C     C_R   0.540214 0.285081 0.685343 -0.147756
H19   H     H_    0.675370 0.257128 0.689100 0.100260
C46   C     C_R   0.528462 0.330655 0.638797 -0.160187
H20   H     H_    0.655552 0.337237 0.609142 0.121752
C47   C     C_R   0.354893 0.366316 0.629874 -0.048511
C48   C     C_R   0.193487 0.355577 0.669133 -0.171717
C49   C     C_R   0.205872 0.310888 0.716543 -0.145809
C50   C     C_R   0.379407 0.274669 0.725278 0.091708
C51   C     C_R   0.233374 0.181576 0.785828 -0.148491
H21   H     H_    0.099782 0.180517 0.757021 0.101582
C52   C     C_R   0.245007 0.136299 0.832615 -0.153655
C53   C     C_R   0.416786 0.133258 0.869776 -0.051862
C54   C     C_R   0.576632 0.177010 0.859015 -0.176092
H22   H     H_    0.710946 0.176393 0.886950 0.121126
C55   C     C_R   0.564329 0.223185 0.812860 -0.144366
H23   H     H_    0.689342 0.257487 0.807512 0.100495
C56   C     C_R   0.392518 0.226069 0.775332 0.089055
O11   O     O_R   0.273230 0.084330 0.086440 -0.535892
O12   O     O_R   0.596660 0.069390 0.940470 -0.548509
O13   O     O_R   0.760270 0.915710 0.913690 -0.534058
C57   C     C_R   0.427749 0.084353 0.918981 0.683982
O14   O     O_R   0.603330 0.093680 0.087390 -0.538634
O15   O     O_R   0.766990 0.940160 0.061660 -0.538808
C58   C     C_R   0.434151 0.115115 0.115964 0.693275
O16   O     O_R   0.266510 0.059870 0.938470 -0.538253
O17   O     O_3   0.431050 0.949630 0.991510 -0.367845
V3    V     V_3+5 0.708490 0.009340 0.001580 1.410246
O18   O     O_R   0.096270 0.930570 0.059390 -0.548230
C59   C     C_R   0.927400 0.917056 0.081929 0.700326
O19   O     O_R   0.089600 0.906290 0.912460 -0.539161
C60   C     C_R   0.919784 0.883521 0.884874 0.695461
V4    V     V_3+5 0.207670 0.990600 0.998190 1.413640
O20   O     O_3   0.935250 0.050360 0.008480 -0.369408
N1    N     N_2   0.772155 0.476901 0.206837 -0.526969
H24   H     H_    0.799096 0.511722 0.259600 0.247557
C61   C     C_3   0.706703 0.521972 0.161491 -0.544822
H25   H     H_    0.802541 0.574485 0.169424 0.207564
H26   H     H_    0.558063 0.542982 0.176433 0.186448
H27   H     H_    0.711082 0.485453 0.103143 0.197383
N2    N     N_2   0.208763 0.641896 0.378720 -0.508946
H28   H     H_    0.316344 0.683940 0.395553 0.240542
C62   C     C_3   0.258076 0.565779 0.326022 -0.483747
H29   H     H_    0.319917 0.574227 0.276418 0.164700
H30   H     H_    0.131313 0.525427 0.309273 0.189567
H31   H     H_    0.360406 0.536286 0.351814 0.194460
H32   H     H_    0.747101 0.349006 0.088252 0.123202
H33   H     H_    0.058084 0.382884 0.664226 0.113733
H34   H     H_    0.079562 0.305893 0.747176 0.098502
H35   H     H_    0.119340 0.102744 0.838883 0.118586
N3    N     N_2   0.601434 0.867390 0.288394 -0.542237
H36   H     H_    0.477219 0.885490 0.269716 0.254112
C63   C     C_3   0.658458 0.920697 0.359153 -0.556861
H37   H     H_    0.534974 0.929974 0.396934 0.198443
H38   H     H_    0.704436 0.979187 0.355096 0.191990
H39   H     H_    0.777832 0.895072 0.381969 0.209861
H40   H     H_    0.654038 0.929493 0.183562 0.121260
H41   H     H_    0.155482 0.734813 0.186669 0.125846

loop_
_geom_bond_atom_site_label_1
_geom_bond_atom_site_label_2
_ccdc_geom_bond_type
V3    O20   S    
C21   C23   A    
C31   C32   A    
O13   C60   A    
C11   C16   A    
C63   H37   S    
C24   C25   A    
C37   C58   S    
C1    O6    A    
O19   V4    S    
N2    H28   S    
O11   C58   A    
C28   C29   A    
C32   C33   A    
C11   C12   A    
C14   H4    S    
N3    C63   S    
C19   C20   A    
C20   C21   A    
C52   C53   A    
C21   C22   A    
C20   H9    S    
C57   O16   A    
C43   N1    S    
V4    O20   S    
C44   H18   S    
V2    O10   S    
C41   H17   S    
N1    H24   S    
C17   C18   A    
C26   C60   S    
C61   H25   S    
C15   H41   S    
C29   C30   A    
O8    V2    S    
C6    C7    A    
O13   V3    S    
N1    C61   S    
O14   C58   A    
C18   H7    S    
C9    H3    S    
C52   H35   S    
O1    V2    S    
C55   C56   A    
O7    V1    S    
C31   C36   A    
C27   H10   S    
C10   C16   S    
C42   C43   A    
C28   H11   S    
C35   C36   A    
O12   C57   A    
C42   H32   S    
O14   V3    S    
H5    C29   S    
C37   C38   A    
C11   N3    S    
O19   C60   A    
C49   C50   A    
C48   H33   S    
C46   C47   A    
C35   C37   A    
C43   C44   A    
C4    C7    S    
C47   C48   A    
O12   V3    S    
O4    C2    A    
C53   C54   A    
C22   C26   A    
C6    N2    S    
C34   C35   A    
C46   H20   S    
C50   C56   S    
C17   C22   A    
C18   C19   A    
C3    C23   S    
O2    C1    A    
C45   H19   S    
C38   C39   A    
C51   H21   S    
C5    H1    S    
C31   H13   S    
C33   H15   S    
C45   C46   A    
C61   H27   S    
O15   C59   A    
O3    C4    A    
C30   H12   S    
O11   V4    S    
C23   C24   A    
C51   C52   A    
O6    V2    S    
C32   H14   S    
O9    V2    S    
C24   C27   A    
C17   H6    S    
C25   C26   A    
O2    V1    S    
C19   H8    S    
C27   C28   A    
C2    C47   S    
C12   H40   S    
O16   V4    S    
C39   C44   A    
C13   C14   A    
C63   H38   S    
C38   C41   A    
O1    C2    A    
C15   C16   A    
C48   C49   A    
O5    V1    S    
N2    C62   S    
O8    C3    A    
C45   C50   A    
C51   C56   A    
C1    C40   S    
O17   V4    S    
C63   H39   S    
C62   H31   S    
C49   H34   S    
C36   C40   A    
C5    C10   A    
C8    H2    S    
C8    C9    A    
O7    V2    S    
O4    V1    S    
C14   C15   A    
O3    V1    S    
V1    O10   S    
O5    C3    A    
C13   C59   S    
C34   H16   S    
C33   C34   A    
O17   V3    S    
C5    C6    A    
C62   H30   S    
C62   H29   S    
O18   V4    S    
C25   C30   A    
C9    C10   A    
O18   C59   A    
C61   H26   S    
C53   C57   S    
C39   C40   A    
C7    C8    A    
C54   H22   S    
C41   C42   A    
C12   C13   A    
C54   C55   A    
C55   H23   S    
O9    C4    A    
O15   V3    S    
N3    H36   S    
