data_mof_unit_42815.cif
_audit_creation_date              2012-10-26T17:13:02-0400
_audit_creation_method            fapswitch 2.2
_symmetry_space_group_name_H-M    P1
_symmetry_Int_Tables_number       1
_space_group_crystal_system       triclinic
_cell_length_a                    16.765861
_cell_length_b                    16.887926
_cell_length_c                    16.888139
_cell_angle_alpha                 67.615817
_cell_angle_beta                  67.566656
_cell_angle_gamma                 67.567828
_cell_volume                      3927.56731626

loop_
_atom_site_label
_atom_site_type_symbol
_atom_type_description
_atom_site_fract_x
_atom_site_fract_y
_atom_site_fract_z
_atom_type_partial_charge
C1    C     C_R   0.320898 0.968291 0.447638 -0.001075
C2    C     C_R   0.320888 0.447634 0.968336 -0.001075
C3    C     C_R   0.528457 0.402466 0.031902 0.024893
C4    C     C_R   0.943025 0.477181 0.605770 0.025745
C5    C     C_R   0.935882 0.557453 0.428773 0.025589
C6    C     C_R   0.972048 0.699315 0.568423 -0.000404
C7    C     C_R   0.938191 0.325677 0.456798 -0.001424
C8    C     C_R   0.448124 0.006664 0.447758 -0.005219
C9    C     C_R   0.538949 0.035653 0.540714 -0.004994
C10   C     C_R   0.937066 0.467321 0.467322 -0.004917
C11   C     C_R   0.951717 0.564223 0.564226 -0.004371
C12   C     C_R   0.448102 0.447746 0.006732 -0.005217
C13   C     C_R   0.538925 0.540698 0.035734 -0.004995
C14   C     C_R   0.012394 0.831978 0.569518 0.558850
C15   C     C_R   0.674371 0.054942 0.545964 -0.002395
C16   C     C_R   0.971991 0.171677 0.435268 0.551132
C17   C     C_R   0.828133 0.564582 0.028504 0.543929
C18   C     C_R   0.171575 0.434750 0.973703 0.562210
C19   C     C_R   0.565213 0.026341 0.828711 0.565114
C20   C     C_R   0.430911 0.984745 0.168778 0.552444
C21   C     C_R   0.430912 0.168778 0.984748 0.552451
C22   C     C_R   0.565210 0.828709 0.026350 0.565102
C23   C     C_R   0.971991 0.435269 0.171677 0.551134
C24   C     C_R   0.012391 0.569519 0.831978 0.558852
C25   C     C_R   0.171575 0.973697 0.434752 0.562210
C26   C     C_R   0.938195 0.456800 0.325676 -0.001417
C27   C     C_R   0.828133 0.028506 0.564581 0.543930
C28   C     C_R   0.402027 0.993065 0.401075 0.023835
C29   C     C_R   0.586570 0.044782 0.588848 0.023757
C30   C     C_R   0.938116 0.416350 0.416350 0.025499
C31   C     C_R   0.966715 0.610290 0.610291 0.023319
C32   C     C_R   0.402014 0.401068 0.993114 0.023837
C33   C     C_R   0.586555 0.588835 0.044845 0.023760
C34   C     C_R   0.269346 0.966208 0.398223 -0.026486
C35   C     C_R   0.728532 0.045312 0.598715 -0.025912
C36   C     C_R   0.953828 0.401996 0.271043 -0.025557
C37   C     C_R   0.972039 0.568424 0.699317 -0.000402
C38   C     C_R   0.999027 0.610718 0.740903 -0.021281
C39   C     C_R   0.391792 0.262688 0.987335 -0.021010
C40   C     C_R   0.598490 0.730555 0.041047 -0.022711
C41   C     C_R   0.598494 0.041019 0.730559 -0.022704
C42   C     C_R   0.391792 0.987324 0.262689 -0.021011
C43   C     C_R   0.728532 0.598715 0.045320 -0.025914
C44   C     C_R   0.269344 0.398222 0.966229 -0.026488
C45   C     C_R   0.999031 0.740902 0.610718 -0.021275
C46   C     C_R   0.953828 0.271042 0.401995 -0.025559
C47   C     C_R   0.454026 0.043440 0.714964 -0.113516
C48   C     C_R   0.435803 0.307772 0.007127 -0.000323
C49   C     C_R   0.511714 0.041411 0.263418 -0.115055
C50   C     C_R   0.946741 0.743374 0.487408 -0.115789
C51   C     C_R   0.921165 0.294164 0.550978 -0.116487
C52   C     C_R   0.704111 0.451820 0.074462 -0.119060
C53   C     C_R   0.292831 0.541628 0.949873 -0.112372
C54   C     C_R   0.292845 0.949813 0.541633 -0.112366
C55   C     C_R   0.704114 0.074426 0.451823 -0.119069
C56   C     C_R   0.511719 0.263412 0.041422 -0.115074
C57   C     C_R   0.454000 0.714939 0.043558 -0.113517
C58   C     C_R   0.921183 0.550983 0.294162 -0.116488
C59   C     C_R   0.545764 0.679411 0.043794 -0.001002
C60   C     C_R   0.946718 0.487413 0.743379 -0.115789
C61   C     C_R   0.308359 0.970126 0.308038 -0.164198
C62   C     C_R   0.688650 0.040958 0.689296 -0.165071
C63   C     C_R   0.960986 0.310730 0.310730 -0.164603
C64   C     C_R   0.013187 0.694870 0.694870 -0.167692
C65   C     C_R   0.308361 0.308038 0.970135 -0.164198
C66   C     C_R   0.688652 0.689298 0.040956 -0.165064
C67   C     C_R   0.656484 0.066718 0.404004 0.012264
C68   C     C_R   0.333158 0.971637 0.586078 0.013864
C69   C     C_R   0.937198 0.440037 0.696709 0.008670
C70   C     C_R   0.545780 0.043724 0.679426 -0.000992
C71   C     C_R   0.923933 0.600304 0.343159 0.012585
C72   C     C_R   0.413648 0.672973 0.019234 0.009666
C73   C     C_R   0.561000 0.310028 0.047660 0.011322
C74   C     C_R   0.561005 0.047629 0.310036 0.011329
C75   C     C_R   0.413687 0.019105 0.672997 0.009652
C76   C     C_R   0.333130 0.586067 0.971725 0.013861
C77   C     C_R   0.656477 0.403995 0.066762 0.012274
C78   C     C_R   0.923906 0.343163 0.600308 0.012590
C79   C     C_R   0.937230 0.696700 0.440030 0.008664
C80   C     C_R   0.689592 0.080255 0.311514 -0.127020
C81   C     C_R   0.435806 0.007103 0.307777 -0.000324
C82   C     C_R   0.293992 0.969749 0.676241 -0.124115
C83   C     C_R   0.921035 0.355972 0.740083 -0.124338
C84   C     C_R   0.914764 0.692222 0.307823 -0.123748
C85   C     C_R   0.332032 0.718395 0.997098 -0.124835
C86   C     C_R   0.642222 0.265061 0.070514 -0.124852
C87   C     C_R   0.642224 0.070489 0.265068 -0.124840
C88   C     C_R   0.332076 0.996957 0.718421 -0.124847
C89   C     C_R   0.293957 0.676227 0.969858 -0.124108
C90   C     C_R   0.689585 0.311506 0.080291 -0.127014
C91   C     C_R   0.914715 0.307836 0.692232 -0.123748
C92   C     C_R   0.674366 0.545959 0.054975 -0.002406
C93   C     C_R   0.921087 0.740070 0.355958 -0.124335
C94   C     C_R   0.528473 0.031845 0.402477 0.024890
C95   C     C_R   0.455507 0.016727 0.584566 0.024752
C96   C     C_R   0.935868 0.428774 0.557457 0.025587
C97   C     C_R   0.943040 0.605764 0.477179 0.025745
C98   C     C_R   0.412314 0.539367 0.998273 0.024915
C99   C     C_R   0.575271 0.449309 0.043581 0.025583
C100  C     C_R   0.575287 0.043518 0.449322 0.025585
C101  C     C_R   0.412345 0.998181 0.539382 0.024917
C102  C     C_R   0.455473 0.584547 0.016832 0.024749
Cu1   Cu    Cu3+1 0.995180 0.995180 0.424630 0.895360
Cu2   Cu    Cu3+1 0.004820 0.004820 0.575370 0.903714
Cu3   Cu    Cu3+1 0.995180 0.424630 0.995180 0.895375
Cu4   Cu    Cu3+1 0.004820 0.575370 0.004820 0.903707
Cu5   Cu    Cu3+1 0.424630 0.995180 0.995180 0.895288
Cu6   Cu    Cu3+1 0.575370 0.004820 0.004820 0.899829
H1    H     H_    0.299457 0.997703 0.787354 0.101306
H2    H     H_    0.299408 0.787325 0.997858 0.101308
H3    H     H_    0.904141 0.726872 0.242366 0.104476
H4    H     H_    0.914996 0.326652 0.810709 0.103582
H5    H     H_    0.410002 0.063674 0.773650 0.152983
H6    H     H_    0.532454 0.068509 0.192537 0.137661
H7    H     H_    0.930026 0.814451 0.460161 0.157191
H8    H     H_    0.903018 0.232887 0.588504 0.146685
H9    H     H_    0.762574 0.413808 0.098548 0.143420
H10   H     H_    0.240263 0.582276 0.917706 0.143862
H11   H     H_    0.240263 0.917654 0.582280 0.143851
H12   H     H_    0.670538 0.077731 0.194457 0.091169
H13   H     H_    0.762577 0.098502 0.413799 0.143428
H14   H     H_    0.532479 0.192529 0.068492 0.137674
H15   H     H_    0.409990 0.773621 0.063810 0.152961
H16   H     H_    0.903049 0.588520 0.232884 0.146687
H17   H     H_    0.930009 0.460165 0.814460 0.157182
H18   H     H_    0.271800 0.962567 0.271734 0.157614
H19   H     H_    0.729626 0.033636 0.729430 0.158073
H20   H     H_    0.975345 0.268955 0.268957 0.157419
H21   H     H_    0.034482 0.725951 0.725950 0.153158
H22   H     H_    0.271807 0.271738 0.962563 0.157613
H23   H     H_    0.915064 0.810694 0.326633 0.103578
H24   H     H_    0.729634 0.729438 0.033603 0.158080
H25   H     H_    0.904079 0.242385 0.726884 0.104487
H26   H     H_    0.752529 0.275286 0.097247 0.098814
H27   H     H_    0.232216 0.713040 0.950657 0.102156
H28   H     H_    0.232247 0.950561 0.713047 0.102166
H29   H     H_    0.752533 0.097218 0.275296 0.098807
H30   H     H_    0.670540 0.194454 0.077743 0.091165
O1    O     O_R   0.124540 0.978640 0.385460 -0.501249
O2    O     O_R   0.124540 0.385460 0.978640 -0.501243
O3    O     O_R   0.021360 0.875460 0.614540 -0.509914
O4    O     O_R   0.978640 0.124540 0.385460 -0.511797
O5    O     O_R   0.013780 0.867370 0.487190 -0.521027
O6    O     O_R   0.986220 0.132630 0.512810 -0.514206
O7    O     O_R   0.867370 0.487190 0.013780 -0.526983
O8    O     O_R   0.132630 0.512810 0.986220 -0.511973
O9    O     O_R   0.487190 0.013780 0.867370 -0.520565
O10   O     O_R   0.512810 0.986220 0.132630 -0.527272
O11   O     O_R   0.512810 0.132630 0.986220 -0.527276
O12   O     O_R   0.875460 0.021360 0.614540 -0.514236
O13   O     O_R   0.487190 0.867370 0.013780 -0.520550
O14   O     O_R   0.986220 0.512810 0.132630 -0.514210
O15   O     O_R   0.013780 0.487190 0.867370 -0.521019
O16   O     O_R   0.132630 0.986220 0.512810 -0.511965
O17   O     O_R   0.867370 0.013780 0.487190 -0.526984
O18   O     O_R   0.978640 0.385460 0.124540 -0.511798
O19   O     O_R   0.021360 0.614540 0.875460 -0.509910
O20   O     O_R   0.385460 0.124540 0.978640 -0.512968
O21   O     O_R   0.614540 0.875460 0.021360 -0.503227
O22   O     O_R   0.614540 0.021360 0.875460 -0.503223
O23   O     O_R   0.385460 0.978640 0.124540 -0.512981
O24   O     O_R   0.875460 0.614540 0.021360 -0.514238

loop_
_geom_bond_atom_site_label_1
_geom_bond_atom_site_label_2
_ccdc_geom_bond_type
Cu3   O15   S    
C23   O14   A    
C55   H13   S    
C89   H27   S    
C6    C45   A    
C32   C48   A    
C21   O20   A    
C74   C94   A    
C17   O7    A    
C48   C56   A    
C50   C79   A    
C72   C85   A    
C75   C95   A    
Cu6   O21   S    
C24   O15   A    
C19   O22   A    
C60   H17   S    
C16   O6    A    
C79   C93   A    
C80   C87   A    
C18   C44   S    
C62   H19   S    
C90   H26   S    
C58   C71   A    
C57   C59   A    
C54   C68   A    
C22   O21   A    
C76   C98   A    
C80   H29   S    
C2    C32   A    
C50   H7    S    
Cu2   O12   S    
C3    C12   A    
C4    C96   A    
Cu5   O23   S    
C78   C96   A    
C91   H25   S    
C1    C28   A    
C24   C38   S    
Cu5   Cu6   S    
C20   O10   A    
C15   C29   A    
C61   H18   S    
C21   O11   A    
C74   C87   A    
C36   C63   A    
C8    C101  A    
C9    C95   A    
C12   C98   A    
C63   H20   S    
C9    C29   A    
C25   C34   S    
Cu5   O13   S    
C52   H9    S    
C6    C31   A    
C25   O16   A    
C14   O3    A    
C11   C31   A    
C33   C59   A    
C7    C30   A    
C40   C66   A    
C23   O18   A    
C12   C32   A    
C39   C65   A    
C44   C65   A    
C42   C81   A    
C41   C62   A    
C15   C35   A    
C4    C69   A    
C1    C34   A    
C65   H22   S    
C14   C45   S    
C38   C64   A    
C27   O17   A    
C83   H4    S    
C54   H11   S    
C77   C90   A    
C84   H3    S    
Cu4   O14   S    
C7    C46   A    
C8    C94   A    
C68   C101  A    
C85   H2    S    
C86   C90   A    
C33   C92   A    
C16   C46   S    
C85   C89   A    
C53   H10   S    
C27   C35   S    
C10   C96   A    
C98   C102  A    
C34   C61   A    
C19   O9    A    
C31   C37   A    
C56   H14   S    
C13   C99   A    
C77   C99   A    
C16   O4    A    
C1    C54   A    
C17   C43   S    
C47   C70   A    
C13   C33   A    
C37   C38   A    
C69   C83   A    
Cu1   O1    S    
C57   H15   S    
Cu5   O9    S    
C10   C30   A    
C55   C67   A    
C21   C39   S    
C94   C100  A    
C22   C40   S    
Cu2   O6    S    
C49   C74   A    
C6    C50   A    
C4    C11   A    
C18   O2    A    
C26   C58   A    
C42   C61   A    
C67   C100  A    
C88   H1    S    
Cu1   O17   S    
C5    C97   A    
C26   C30   A    
C27   O12   A    
C8    C28   A    
C52   C92   A    
C53   C76   A    
C52   C77   A    
Cu1   O4    S    
Cu5   O20   S    
C2    C44   A    
C71   C84   A    
C26   C36   A    
C47   H5    S    
C22   O13   A    
C56   C73   A    
C25   O1    A    
C28   C81   A    
C24   O19   A    
C79   C97   A    
C67   C80   A    
C43   C92   A    
C18   O8    A    
C2    C53   A    
Cu1   O5    S    
C20   C42   S    
Cu6   O22   S    
C78   C91   A    
C9    C100  A    
Cu4   O19   S    
C83   C91   A    
Cu3   Cu4   S    
C76   C89   A    
C45   C64   A    
C58   H16   S    
C51   H8    S    
Cu4   O8    S    
C66   H24   S    
C46   C63   A    
C11   C97   A    
C68   C82   A    
C14   O5    A    
C51   C78   A    
C7    C51   A    
C5    C10   A    
C5    C71   A    
Cu3   O2    S    
C72   C102  A    
C60   C69   A    
C43   C66   A    
C82   C88   A    
C20   O23   A    
C95   C101  A    
C49   H6    S    
C35   C62   A    
C49   C81   A    
C84   C93   A    
Cu4   O24   S    
C57   C72   A    
C82   H28   S    
C3    C73   A    
C73   C86   A    
C29   C70   A    
C37   C60   A    
C17   O24   A    
C86   H30   S    
C47   C75   A    
Cu6   O11   S    
C3    C99   A    
C75   C88   A    
C87   H12   S    
Cu3   O18   S    
C64   H21   S    
C23   C36   S    
Cu1   Cu2   S    
C40   C59   A    
Cu2   O3    S    
C41   C70   A    
Cu2   O16   S    
C13   C102  A    
C93   H23   S    
Cu3   O7    S    
C19   C41   S    
C15   C55   A    
C39   C48   A    
Cu6   O10   S    
