data_mof_unit_57323.cif
_audit_creation_date              2013-03-05T15:56:42-0500
_audit_creation_method            fapswitch 2.2
_symmetry_space_group_name_H-M    P1
_symmetry_Int_Tables_number       1
_space_group_crystal_system       triclinic
_cell_length_a                    20.65704
_cell_length_b                    21.846071
_cell_length_c                    13.972053
_cell_angle_alpha                 90.003986
_cell_angle_beta                  89.995301
_cell_angle_gamma                 89.997231
_cell_volume                      6305.24044406

loop_
_atom_site_label
_atom_site_type_symbol
_atom_site_description
_atom_site_fract_x
_atom_site_fract_y
_atom_site_fract_z
_atom_type_partial_charge
O1    O     O_R   0.064880 0.435140 0.582280 -0.549757
O2    O     O_R   0.935120 0.564860 0.417720 -0.576315
O3    O     O_R   0.935120 0.564860 0.582280 -0.549603
O4    O     O_R   0.064880 0.435140 0.417720 -0.576322
O5    O     O_R   0.935120 0.435140 0.417720 -0.547719
O6    O     O_R   0.064880 0.564860 0.582280 -0.590643
O7    O     O_R   0.064880 0.564860 0.417720 -0.547669
O8    O     O_R   0.935120 0.435140 0.582280 -0.590665
O9    O     O_R   0.564880 0.935140 0.582280 -0.547423
O10   O     O_R   0.435120 0.064860 0.417720 -0.590658
O11   O     O_R   0.435120 0.064860 0.582280 -0.547575
O12   O     O_R   0.564880 0.935140 0.417720 -0.590623
O13   O     O_R   0.435120 0.935140 0.417720 -0.549755
O14   O     O_R   0.564880 0.064860 0.582280 -0.576329
O15   O     O_R   0.564880 0.064860 0.417720 -0.549855
O16   O     O_R   0.435120 0.935140 0.582280 -0.576299
C1    C     C_R   0.085830 0.414901 0.500373 0.825965
C2    C     C_R   0.914172 0.585100 0.500380 0.825916
C3    C     C_R   0.914449 0.414591 0.499930 0.822960
C4    C     C_R   0.085550 0.585411 0.499930 0.823026
C5    C     C_R   0.585555 0.914596 0.500063 0.823012
C6    C     C_R   0.414451 0.085409 0.500074 0.823007
C7    C     C_R   0.414177 0.914892 0.499622 0.826001
C8    C     C_R   0.585827 0.085103 0.499623 0.825884
Cu1   Cu    Cu3+1 0.000000 0.500000 0.597420 1.028226
Cu2   Cu    Cu3+1 0.000000 0.500000 0.402580 1.034922
Cu3   Cu    Cu3+1 0.500000 0.000000 0.597420 1.035019
Cu4   Cu    Cu3+1 0.500000 0.000000 0.402580 1.028148
C9    C     C_R   0.129250 0.681542 0.567041 -0.194428
C10   C     C_R   0.870732 0.318480 0.567068 -0.194883
C11   C     C_R   0.868819 0.679559 0.570093 -0.151618
C12   C     C_R   0.131286 0.320549 0.570264 -0.151667
C13   C     C_R   0.631356 0.179402 0.429620 -0.151487
C14   C     C_R   0.368651 0.820587 0.429617 -0.151223
C15   C     C_R   0.370817 0.181582 0.433052 -0.194681
C16   C     C_R   0.629079 0.818309 0.433235 -0.193859
C17   C     C_R   0.132987 0.634699 0.499176 -0.079583
C18   C     C_R   0.867006 0.365310 0.499181 -0.079410
C19   C     C_R   0.864625 0.632387 0.502807 -0.051293
C20   C     C_R   0.135374 0.367611 0.502786 -0.051560
C21   C     C_R   0.635371 0.132396 0.497207 -0.051739
C22   C     C_R   0.364629 0.867602 0.497200 -0.051723
C23   C     C_R   0.367012 0.134693 0.500827 -0.079393
C24   C     C_R   0.633001 0.865316 0.500802 -0.079528
C25   C     C_R   0.180908 0.635673 0.428840 -0.174308
C26   C     C_R   0.819077 0.364341 0.428863 -0.174310
C27   C     C_R   0.811685 0.628710 0.441566 -0.183386
C28   C     C_R   0.188195 0.371162 0.441295 -0.183110
C29   C     C_R   0.688116 0.128912 0.558839 -0.182997
C30   C     C_R   0.311852 0.871121 0.558778 -0.183042
C31   C     C_R   0.319004 0.135602 0.571039 -0.174348
C32   C     C_R   0.681106 0.864510 0.570850 -0.174448
C33   C     C_R   0.226544 0.682458 0.427054 0.079317
C34   C     C_R   0.773435 0.317559 0.427089 0.079473
C35   C     C_R   0.765076 0.674662 0.441011 0.086800
C36   C     C_R   0.234784 0.325195 0.440708 0.086846
C37   C     C_R   0.734701 0.174876 0.559429 0.086856
C38   C     C_R   0.265253 0.825168 0.559346 0.086788
C39   C     C_R   0.273363 0.182386 0.572817 0.079515
C40   C     C_R   0.726741 0.817722 0.572646 0.079442
C41   C     C_R   0.222539 0.730446 0.494198 0.063512
C42   C     C_R   0.777432 0.269582 0.494248 0.063559
C43   C     C_R   0.769257 0.722896 0.507700 0.059485
C44   C     C_R   0.230729 0.277092 0.507636 0.059390
C45   C     C_R   0.730724 0.222917 0.492384 0.059332
C46   C     C_R   0.269250 0.777107 0.492331 0.059348
C47   C     C_R   0.277439 0.230425 0.505774 0.063548
C48   C     C_R   0.722546 0.769561 0.505827 0.063435
C49   C     C_R   0.172279 0.731275 0.563657 0.038693
C50   C     C_R   0.827658 0.268783 0.563752 0.038446
C51   C     C_R   0.820282 0.724390 0.575892 0.034203
C52   C     C_R   0.179816 0.275715 0.576030 0.034119
C53   C     C_R   0.679890 0.224233 0.423871 0.034086
C54   C     C_R   0.320094 0.775780 0.423823 0.034102
C55   C     C_R   0.327745 0.231283 0.436385 0.038480
C56   C     C_R   0.672090 0.768557 0.436693 0.038880
C57   C     C_R   0.275614 0.681884 0.358152 -0.212871
C58   C     C_R   0.724348 0.318143 0.358220 -0.212938
C59   C     C_R   0.714304 0.672518 0.374932 -0.221046
C60   C     C_R   0.285361 0.327151 0.374279 -0.220682
C61   C     C_R   0.785200 0.172979 0.625982 -0.220532
C62   C     C_R   0.214685 0.827131 0.625785 -0.220683
C63   C     C_R   0.224199 0.181744 0.641576 -0.213227
C64   C     C_R   0.775991 0.818462 0.641249 -0.213399
C65   C     C_R   0.832168 0.219130 0.628829 -0.026160
C66   C     C_R   0.167675 0.781011 0.628584 -0.026579
C67   C     C_R   0.177947 0.228474 0.645559 -0.018970
C68   C     C_R   0.822234 0.771725 0.645270 -0.018875
C69   C     C_R   0.321854 0.728621 0.354139 -0.018923
C70   C     C_R   0.678098 0.271414 0.354238 -0.018968
C71   C     C_R   0.667266 0.718623 0.372161 -0.026717
C72   C     C_R   0.332334 0.280999 0.371438 -0.026132
H1    H     H_    0.092330 0.678552 0.621601 0.204547
H2    H     H_    0.907691 0.321439 0.621576 0.204211
H3    H     H_    0.911094 0.681432 0.615602 0.185640
H4    H     H_    0.089097 0.318763 0.615964 0.185576
H5    H     H_    0.589220 0.181148 0.383821 0.185620
H6    H     H_    0.410812 0.818814 0.383861 0.185777
H7    H     H_    0.407834 0.178661 0.378615 0.204124
H8    H     H_    0.592036 0.821195 0.378850 0.204321
H9    H     H_    0.183544 0.599304 0.376523 0.206335
H10   H     H_    0.816439 0.400711 0.376549 0.206343
H11   H     H_    0.806181 0.589379 0.395865 0.173301
H12   H     H_    0.193620 0.410404 0.395410 0.173437
H13   H     H_    0.693485 0.089720 0.604833 0.173477
H14   H     H_    0.306464 0.910335 0.604735 0.173449
H15   H     H_    0.316303 0.099182 0.623258 0.206275
H16   H     H_    0.683891 0.901016 0.622914 0.206185
H17   H     H_    0.277257 0.645203 0.305995 0.175065
H18   H     H_    0.722685 0.354830 0.306079 0.174876
H19   H     H_    0.710975 0.634281 0.325616 0.179446
H20   H     H_    0.288543 0.365225 0.324644 0.178811
H21   H     H_    0.788326 0.134951 0.675711 0.178665
H22   H     H_    0.211505 0.865224 0.675392 0.179078
H23   H     H_    0.222476 0.145009 0.693632 0.174882
H24   H     H_    0.777775 0.855273 0.693178 0.175066
C73   C     C_R   0.057292 0.505361 0.793913 0.117418
C74   C     C_R   0.943102 0.505066 0.204687 0.133843
C75   C     C_R   0.942707 0.494644 0.793924 0.117437
C76   C     C_R   0.056893 0.494949 0.204662 0.133961
C77   C     C_R   0.556898 0.004978 0.795329 0.134197
C78   C     C_R   0.442710 0.005394 0.206088 0.117389
C79   C     C_R   0.443099 0.995007 0.795335 0.134027
C80   C     C_R   0.557292 0.994590 0.206078 0.117313
N1    N     N_R   1.000000 0.500000 0.743810 -0.268907
N2    N     N_R   1.000000 0.500000 0.256190 -0.263958
N3    N     N_R   0.500000 0.000000 0.743810 -0.263960
N4    N     N_R   0.500000 0.000000 0.256190 -0.268916
C81   C     C_R   0.940862 0.498930 0.896664 -0.102853
C82   C     C_R   0.058436 0.502559 0.102440 -0.095748
C83   C     C_R   0.059132 0.501092 0.896653 -0.102917
C84   C     C_R   0.941551 0.497476 0.102457 -0.095848
C85   C     C_R   0.441566 0.002632 0.897556 -0.095695
C86   C     C_R   0.559141 0.998799 0.103327 -0.103042
C87   C     C_R   0.558427 0.997323 0.897540 -0.095635
C88   C     C_R   0.440863 0.001152 0.103343 -0.102959
C89   C     C_R   0.999996 0.500013 0.947960 0.097191
C90   C     C_R   0.999994 0.500015 0.050765 0.086008
C91   C     C_R   0.499998 0.999979 0.949235 0.085843
C92   C     C_R   0.500001 0.999977 0.052039 0.097231
C93   C     C_R   0.881804 0.499171 0.950093 -0.089875
C94   C     C_R   0.117318 0.508759 0.050436 -0.077908
C95   C     C_R   0.118188 0.500871 0.950072 -0.089934
C96   C     C_R   0.882665 0.491302 0.050462 -0.077989
C97   C     C_R   0.382696 0.008941 0.949547 -0.077849
C98   C     C_R   0.618197 0.998867 0.049867 -0.089907
C99   C     C_R   0.617294 0.990972 0.949503 -0.077819
C100  C     C_R   0.381806 0.001041 0.049908 -0.089890
C101  C     C_2   0.885662 0.212655 0.699060 0.881556
O17   O     O_2   0.873977 0.194960 0.780301 -0.531056
O18   O     O_R   0.949615 0.224031 0.671540 -0.764077
H25   H     H_    0.981360 0.217884 0.725974 0.361894
C102  C     C_2   0.113911 0.787736 0.698354 0.881679
O19   O     O_2   0.125208 0.806117 0.779365 -0.531115
O20   O     O_R   0.050106 0.775924 0.670551 -0.764680
H26   H     H_    0.018103 0.782584 0.724535 0.362026
C103  C     C_2   0.130522 0.227229 0.725506 0.854944
O21   O     O_2   0.107963 0.178375 0.752293 -0.557730
O22   O     O_R   0.114111 0.281233 0.773505 -0.726430
H27   H     H_    0.081995 0.274135 0.827246 0.354514
C104  C     C_2   0.869699 0.773045 0.725151 0.854441
O23   O     O_2   0.892141 0.821944 0.751972 -0.558068
O24   O     O_R   0.886255 0.719063 0.773093 -0.726582
H28   H     H_    0.918362 0.726217 0.826816 0.354632
C105  C     C_2   0.369110 0.727485 0.273963 0.853744
O25   O     O_2   0.391414 0.678641 0.246640 -0.558395
O26   O     O_R   0.385618 0.781588 0.226325 -0.726318
H29   H     H_    0.417611 0.774558 0.172402 0.355097
C106  C     C_2   0.630754 0.272604 0.274197 0.854718
O27   O     O_2   0.608229 0.321443 0.247267 -0.557858
O28   O     O_R   0.614378 0.218562 0.226280 -0.726384
H30   H     H_    0.582298 0.225623 0.172488 0.354641
C107  C     C_2   0.613205 0.711636 0.302937 0.881533
O29   O     O_2   0.624131 0.692756 0.222071 -0.530953
O30   O     O_R   0.549530 0.723731 0.331150 -0.765172
H31   H     H_    0.517285 0.716816 0.277537 0.362140
C108  C     C_2   0.385919 0.287540 0.301362 0.881523
O31   O     O_2   0.374345 0.305349 0.220149 -0.530970
O32   O     O_R   0.449833 0.276099 0.329008 -0.764273
H32   H     H_    0.481651 0.282308 0.274680 0.361953
C109  C     C_2   0.116160 0.524122 0.742099 0.900084
O33   O     O_2   0.146938 0.487070 0.695036 -0.557520
O34   O     O_R   0.138545 0.584188 0.752005 -0.748976
H33   H     H_    0.180155 0.591703 0.715352 0.347296
C110  C     C_2   0.884728 0.530068 0.250177 0.875812
O35   O     O_2   0.854214 0.499894 0.308124 -0.614300
O36   O     O_R   0.860864 0.586212 0.217329 -0.741116
H34   H     H_    0.814863 0.594625 0.238408 0.338022
C111  C     C_2   0.883842 0.475869 0.742126 0.900033
O37   O     O_2   0.853068 0.512907 0.695043 -0.557507
O38   O     O_R   0.861456 0.415805 0.752060 -0.748927
H35   H     H_    0.819849 0.408279 0.715414 0.347322
C112  C     C_2   0.115277 0.469946 0.250098 0.875518
O39   O     O_2   0.145772 0.500093 0.308100 -0.614195
O40   O     O_R   0.139194 0.413857 0.217085 -0.741243
H36   H     H_    0.185239 0.405506 0.237998 0.337942
C113  C     C_2   0.615307 0.029973 0.749940 0.875351
O41   O     O_2   0.645755 0.999871 0.691820 -0.614220
O42   O     O_R   0.639316 0.085974 0.783156 -0.741342
H37   H     H_    0.685380 0.094278 0.762281 0.337876
C114  C     C_2   0.383845 0.024137 0.257929 0.900092
O43   O     O_2   0.353059 0.987061 0.304924 -0.557464
O44   O     O_R   0.361476 0.084218 0.248141 -0.748865
H38   H     H_    0.319867 0.091721 0.284809 0.347327
C115  C     C_2   0.384695 0.970022 0.749927 0.875449
O45   O     O_2   0.354238 0.000147 0.691860 -0.614192
O46   O     O_R   0.360709 0.913992 0.783055 -0.741321
H39   H     H_    0.314650 0.905682 0.762174 0.337919
C116  C     C_2   0.616153 0.975878 0.257931 0.900150
O47   O     O_2   0.646950 0.012986 0.304847 -0.557525
O48   O     O_R   0.638504 0.915781 0.248253 -0.748826
H40   H     H_    0.680105 0.908296 0.284936 0.347279
C117  C     C_2   0.818876 0.514571 0.904755 0.905449
O49   O     O_2   0.775887 0.476198 0.899600 -0.526405
O50   O     O_R   0.809349 0.573330 0.867771 -0.690471
H41   H     H_    0.764856 0.578617 0.838293 0.363708
C118  C     C_2   0.177102 0.530844 0.098820 0.896455
O51   O     O_2   0.226776 0.500378 0.096838 -0.531513
O52   O     O_R   0.175546 0.586387 0.148367 -0.729037
H42   H     H_    0.218817 0.596848 0.178273 0.341845
C119  C     C_2   0.181121 0.485472 0.904734 0.905512
O53   O     O_2   0.224098 0.523856 0.899541 -0.526410
O54   O     O_R   0.190668 0.426702 0.867790 -0.690342
H43   H     H_    0.235163 0.421417 0.838306 0.363742
C120  C     C_2   0.822858 0.469274 0.098854 0.896512
O55   O     O_2   0.773224 0.499799 0.096916 -0.531404
O56   O     O_R   0.824344 0.413716 0.148356 -0.728958
H44   H     H_    0.781064 0.403303 0.178285 0.341833
C121  C     C_2   0.322965 0.031138 0.901137 0.896331
O57   O     O_2   0.273214 0.000791 0.903154 -0.531544
O58   O     O_R   0.324665 0.086643 0.851503 -0.728988
H45   H     H_    0.281427 0.097186 0.821562 0.341745
C122  C     C_2   0.681190 0.014094 0.095139 0.905583
O59   O     O_2   0.724019 0.975564 0.100411 -0.526520
O60   O     O_R   0.690973 0.072876 0.131894 -0.690222
H46   H     H_    0.735493 0.078038 0.161334 0.363732
C123  C     C_2   0.676999 0.968729 0.901049 0.896192
O61   O     O_2   0.726791 0.999015 0.903102 -0.531613
O62   O     O_R   0.675226 0.913255 0.851323 -0.728973
H47   H     H_    0.718448 0.902678 0.821346 0.341757
C124  C     C_2   0.318836 0.985746 0.095209 0.905526
O63   O     O_2   0.275942 0.024216 0.100452 -0.526411
O64   O     O_R   0.309153 0.926971 0.132045 -0.690308
H48   H     H_    0.264643 0.921760 0.161506 0.363726

loop_
_geom_bond_atom_site_label_1
_geom_bond_atom_site_label_2
_geom_bond_distance
_ccdc_geom_bond_type
C84   C96   1.423278 A    
C63   C67   1.399288 A    
O28   H30   1.013855 S    
C103  O21   1.223263 D    
C8    C21   1.454679 S    
O5    Cu2   1.961849 S    
O2    C2    1.310141 A    
C106  O28   1.398732 S    
C114  O43   1.221333 D    
O54   H43   1.013779 S    
C14   C22   1.397620 A    
C88   C92   1.416570 A    
C44   C52   1.421274 A    
C23   C31   1.395006 A    
C97   C100  1.412966 A    
C104  O23   1.223305 D    
C110  O35   1.219581 D    
C47   C55   1.421268 A    
C45   C53   1.421275 A    
C12   C52   1.403827 A    
C109  O33   1.221321 D    
O10   C6    1.306771 A    
O48   H40   1.013899 S    
C87   C91   1.407725 A    
C26   H10   1.081011 S    
C15   C55   1.404510 A    
C105  O25   1.223292 D    
C7    C22   1.454699 S    
O12   Cu4   1.961778 S    
C76   C82   1.438261 A    
C13   C53   1.403874 A    
C78   C114  1.473309 S    
C27   C35   1.390944 A    
C66   C102  1.484952 S    
C39   C63   1.398010 A    
C53   C70   1.417903 A    
C77   N3    1.382589 A    
C101  O18   1.398160 S    
C86   C92   1.416606 A    
C73   C109  1.473345 S    
C110  O36   1.399314 S    
O6    Cu1   1.961847 S    
C81   C93   1.430196 A    
C80   C116  1.473284 S    
C84   C90   1.407855 A    
O64   H48   1.013783 S    
C46   C54   1.421260 A    
C29   C37   1.390868 A    
C71   C107  1.485283 S    
O3    C2    1.300896 A    
C111  O38   1.398195 S    
C124  O63   1.223374 D    
Cu2   N2    2.045369 S    
O14   C8    1.310184 A    
C113  O42   1.399309 S    
O56   H44   1.012860 S    
Cu1   N1    2.045369 S    
C32   C40   1.390672 A    
C39   C47   1.409265 A    
C43   C48   1.403908 A    
Cu3   N3    2.045369 S    
C41   C46   1.403908 A    
C38   C46   1.409174 A    
O62   H47   1.012868 S    
C108  O32   1.398162 S    
C35   C43   1.409210 A    
O60   H46   1.013782 S    
C36   C44   1.409228 A    
O13   Cu4   1.961849 S    
C115  O45   1.219555 D    
O14   Cu3   1.961847 S    
C102  O20   1.398141 S    
C15   C23   1.397254 A    
C122  O59   1.223365 D    
C59   C71   1.400009 A    
O9    Cu3   1.961733 S    
C80   N4    1.380091 A    
C24   C32   1.394922 A    
O16   Cu3   1.961852 S    
C117  O50   1.397716 S    
C98   C122  1.484637 S    
C25   C33   1.390700 A    
O42   H37   1.011631 S    
C64   H24   1.083702 S    
C123  O61   1.223331 D    
C117  O49   1.223365 D    
C28   H12   1.076371 S    
O1    Cu1   1.961733 S    
O8    Cu1   1.961852 S    
C114  O44   1.398206 S    
C42   C50   1.421265 A    
C60   H20   1.084978 S    
C105  O26   1.398726 S    
C111  O37   1.221323 D    
Cu4   N4    2.045369 S    
C33   C41   1.409190 A    
C15   H7    1.080354 S    
C21   C29   1.390896 A    
C10   C50   1.404520 A    
O13   C7    1.300903 A    
C120  O55   1.223345 D    
C31   C39   1.390688 A    
C9    C49   1.404571 A    
C99   C123  1.488401 S    
C86   C98   1.430370 A    
O4    Cu2   1.961778 S    
O20   H26   1.013426 S    
O8    C3    1.306809 A    
C27   H11   1.076521 S    
O46   H39   1.011621 S    
C30   C38   1.390879 A    
C44   C47   1.403891 A    
C63   H23   1.083700 S    
O3    Cu1   1.961778 S    
C74   C84   1.438305 A    
C62   H22   1.084968 S    
C38   C62   1.398051 A    
C58   H18   1.083676 S    
C109  O34   1.398196 S    
C93   C117  1.484702 S    
O26   H29   1.013846 S    
C104  O24   1.398753 S    
C34   C42   1.409256 A    
C79   C115  1.468378 S    
C112  O40   1.399313 S    
Cu1   Cu2   2.722313 S    
C107  O29   1.223744 D    
O12   C5    1.306766 A    
C58   C70   1.399308 A    
O38   H35   1.013896 S    
C9    C17   1.397195 A    
C124  O64   1.397726 S    
C1    C20   1.454570 S    
C64   C68   1.399307 A    
C60   C72   1.399844 A    
C33   C57   1.397937 A    
C2    C19   1.454557 S    
O34   H33   1.013897 S    
C119  O53   1.223357 D    
C83   C89   1.416538 A    
C3    C18   1.455935 S    
C75   C81   1.439031 A    
C5    C24   1.455875 S    
C35   C59   1.398113 A    
C79   N3    1.382615 A    
O22   H27   1.013855 S    
C107  O30   1.398275 S    
O11   Cu3   1.961778 S    
O18   H25   1.013210 S    
C57   C69   1.399320 A    
C26   C34   1.390721 A    
C116  O47   1.221332 D    
C16   H8    1.080275 S    
C106  O27   1.223304 D    
C48   C56   1.421282 A    
C77   C87   1.438209 A    
C57   H17   1.083638 S    
C51   C68   1.417910 A    
C122  O60   1.397716 S    
C77   C113  1.468384 S    
C88   C100  1.430320 A    
C94   C118  1.488305 S    
C25   H9    1.080958 S    
C55   C72   1.418518 A    
C22   C30   1.390871 A    
O4    C1    1.310168 A    
C75   N1    1.380058 A    
C31   H15   1.080984 S    
O15   C8    1.300914 A    
C12   H4    1.081047 S    
C14   C54   1.403899 A    
C112  O39   1.219582 D    
O16   C7    1.310204 A    
C87   C99   1.423104 A    
C123  O62   1.397362 S    
O44   H38   1.013900 S    
C100  C124  1.484669 S    
C121  O58   1.397351 S    
C37   C61   1.398115 A    
C96   C120  1.488298 S    
C93   C96   1.412980 A    
C85   C97   1.423145 A    
C78   C88   1.439056 A    
C17   C25   1.394975 A    
C82   C90   1.407825 A    
C121  O57   1.223339 D    
Cu3   Cu4   2.722313 S    
C52   C67   1.417896 A    
C83   C95   1.430187 A    
C54   C69   1.417933 A    
C19   C27   1.390939 A    
C98   C99   1.412980 A    
C115  O46   1.399320 S    
O10   Cu4   1.961733 S    
C28   C36   1.390878 A    
C97   C121  1.488360 S    
C20   C28   1.390898 A    
C116  O48   1.398213 S    
C42   C45   1.403921 A    
C75   C111  1.473346 S    
C14   H6    1.081017 S    
C37   C45   1.409209 A    
O2    Cu2   1.961733 S    
C95   C119  1.484690 S    
C29   H13   1.076295 S    
C91   C92   1.436377 A    
C85   C91   1.407759 A    
O5    C3    1.305079 A    
C80   C86   1.439106 A    
O32   H32   1.013183 S    
C118  O52   1.397321 S    
O6    C4    1.306811 A    
C89   C90   1.436400 A    
O11   C6    1.305076 A    
O1    C1    1.300875 A    
C76   C112  1.468337 S    
C36   C60   1.398109 A    
C59   H19   1.085015 S    
C119  O54   1.397711 S    
C40   C48   1.409244 A    
C41   C49   1.421227 A    
C74   C110  1.468355 S    
O52   H42   1.012841 S    
C118  O51   1.223336 D    
C13   C21   1.397591 A    
O36   H34   1.011634 S    
C10   H2    1.080352 S    
O30   H31   1.013765 S    
C62   C66   1.399920 A    
C101  O17   1.223188 D    
C9    H1    1.080250 S    
C4    C17   1.455972 S    
C40   C64   1.397943 A    
O9    C5    1.305091 A    
O15   Cu4   1.961849 S    
C73   C83   1.439027 A    
O7    Cu2   1.961849 S    
C11   H3    1.081060 S    
C70   C106  1.485940 S    
C11   C51   1.403871 A    
C120  O56   1.397333 S    
C11   C19   1.397563 A    
C76   N2    1.382590 A    
C12   C20   1.397567 A    
O50   H41   1.013782 S    
C78   N4    1.380077 A    
C113  O41   1.219543 D    
C82   C94   1.423246 A    
C65   C101  1.484640 S    
C18   C26   1.395044 A    
O24   H28   1.013818 S    
C16   C24   1.397231 A    
C72   C108  1.484642 S    
C108  O31   1.223188 D    
C56   C71   1.418706 A    
O40   H36   1.011627 S    
C67   C103  1.485951 S    
C16   C56   1.404619 A    
C81   C89   1.416508 A    
C79   C85   1.438253 A    
C103  O22   1.398714 S    
O7    C4    1.305097 A    
C61   H21   1.084975 S    
O58   H45   1.012858 S    
C30   H14   1.076342 S    
C94   C95   1.412946 A    
C32   H16   1.080942 S    
C74   N2    1.382631 A    
C10   C18   1.397280 A    
C13   H5    1.081037 S    
C102  O19   1.223471 D    
C50   C65   1.418518 A    
C73   N1    1.380045 A    
C43   C51   1.421271 A    
C6    C23   1.455850 S    
C61   C65   1.399828 A    
C49   C66   1.418585 A    
C68   C104  1.485953 S    
C34   C58   1.398002 A    
C69   C105  1.486009 S    
