data_mof_unit_38446.cif
_audit_creation_date              2012-12-10T20:43:30-0500
_audit_creation_method            fapswitch 2.2
_symmetry_space_group_name_H-M    P1
_symmetry_Int_Tables_number       1
_space_group_crystal_system       triclinic
_cell_length_a                    18.603714
_cell_length_b                    18.856795
_cell_length_c                    18.96838
_cell_angle_alpha                 110.088601
_cell_angle_beta                  109.254556
_cell_angle_gamma                 109.206999
_cell_volume                      5113.49348566

loop_
_atom_site_label
_atom_site_type_symbol
_atom_type_description
_atom_site_fract_x
_atom_site_fract_y
_atom_site_fract_z
_atom_type_partial_charge
C1    C     C_R   0.377407 0.498423 0.380083 0.945765
C2    C     C_R   0.786685 0.895536 0.835308 0.149646
C3    C     C_R   0.920561 0.746805 0.967509 0.439825
C4    C     C_R   0.919948 0.737343 0.037063 -0.231688
C5    C     C_R   0.999298 0.770050 0.110478 0.037096
C6    C     C_R   0.250084 0.567960 0.931462 0.228443
C7    C     C_R   0.177281 0.485300 0.868242 -0.278551
C8    C     C_R   0.170244 0.411047 0.873523 -0.000612
C9    C     C_R   0.245056 0.418359 0.934187 0.336724
C10   C     C_R   0.317733 0.501100 0.998567 -0.233620
C11   C     C_R   0.319909 0.576520 0.999165 0.236979
C12   C     C_R   0.079670 0.259395 0.750240 -0.222497
C13   C     C_R   0.817098 0.832438 0.578002 0.390082
C14   C     C_R   0.998171 0.187285 0.683282 -0.116884
C15   C     C_R   0.919109 0.184055 0.676745 0.123938
C16   C     C_R   0.924102 0.246478 0.746163 -0.128078
C17   C     C_R   0.005328 0.316724 0.815173 -0.122815
C18   C     C_R   0.084459 0.327686 0.814264 0.071536
C19   C     C_R   0.819039 0.137007 0.524878 -0.187811
C20   C     C_R   0.737093 0.087504 0.449214 0.137463
C21   C     C_R   0.664910 0.027624 0.445910 0.258201
C22   C     C_R   0.676043 0.017463 0.518181 0.338028
C23   C     C_R   0.759649 0.064940 0.592895 0.318671
C24   C     C_R   0.811891 0.814497 0.497927 -0.199587
C25   C     C_R   0.832034 0.124629 0.596012 -0.077585
C26   C     C_R   0.741678 0.737550 0.420346 -0.041218
C27   C     C_R   0.686442 0.672938 0.426814 -0.173777
C28   C     C_R   0.691655 0.688475 0.506113 -0.140978
C29   C     C_R   0.756001 0.770043 0.582793 0.043565
C30   C     C_R   0.633042 0.694887 0.269795 0.209505
C31   C     C_R   0.612192 0.673016 0.184282 -0.171016
C32   C     C_R   0.677011 0.684361 0.160971 -0.106230
C33   C     C_R   0.623844 0.620675 0.503852 0.888329
C34   C     C_R   0.762857 0.715810 0.222308 -0.076347
C35   C     C_R   0.783726 0.734203 0.306640 -0.076187
C36   C     C_R   0.719799 0.723616 0.331707 0.104861
C37   C     C_R   0.278968 0.689770 0.517386 -0.255872
C38   C     C_R   0.262069 0.627438 0.438667 0.386596
C39   C     C_R   0.327611 0.639534 0.415171 0.063971
C40   C     C_R   0.408080 0.717327 0.468888 -0.176686
C41   C     C_R   0.424387 0.780076 0.547427 -0.045750
C42   C     C_R   0.360631 0.765684 0.572354 0.398143
C43   C     C_R   0.251551 0.576326 0.258943 0.206667
C44   C     C_R   0.616327 0.496356 0.619977 0.868652
C45   C     C_R   0.186408 0.497194 0.182264 -0.162701
C46   C     C_R   0.178802 0.416994 0.172346 -0.049521
C47   C     C_R   0.242797 0.417365 0.236901 0.414958
C48   C     C_R   0.307787 0.496786 0.314436 -0.226753
C49   C     C_R   0.305136 0.574385 0.328639 -0.039327
C50   C     C_R   0.025650 0.285254 0.085798 0.515061
C51   C     C_R   0.959701 0.206491 0.009234 -0.191535
C52   C     C_R   0.973691 0.175004 0.939637 -0.104056
C53   C     C_R   0.053643 0.222171 0.946245 -0.063443
C54   C     C_R   0.119663 0.300636 0.022575 -0.208165
C55   C     C_R   0.376365 0.380379 0.497003 0.920887
C56   C     C_R   0.106648 0.332852 0.092721 0.044324
C57   C     C_R   0.253248 0.539346 0.626615 -0.276346
C58   C     C_R   0.277101 0.475116 0.606969 0.229557
C59   C     C_R   0.231436 0.404299 0.521365 -0.013832
C60   C     C_R   0.162123 0.399948 0.456777 0.318198
C61   C     C_R   0.128876 0.456537 0.480212 0.252288
C62   C     C_R   0.178173 0.528687 0.565066 -0.246613
C63   C     C_R   0.175608 0.256784 0.503040 0.161530
C64   C     C_R   0.187193 0.185917 0.500739 -0.158681
C65   C     C_R   0.260435 0.180868 0.498718 0.002808
C66   C     C_R   0.713230 0.873608 0.761208 -0.271379
C67   C     C_R   0.318843 0.244426 0.494005 -0.200881
C68   C     C_R   0.309131 0.315420 0.497328 -0.100596
C69   C     C_R   0.238980 0.324304 0.505012 0.093158
C70   C     C_R   0.335887 0.130201 0.587905 -0.140480
C71   C     C_R   0.374100 0.078919 0.597232 0.114359
C72   C     C_R   0.357788 0.009477 0.522901 0.352052
C73   C     C_R   0.304433 0.993007 0.440037 0.170409
C74   C     C_R   0.266652 0.045048 0.431891 -0.250443
C75   C     C_R   0.282366 0.113990 0.505673 0.036645
C76   C     C_R   0.558800 0.586312 0.854747 -0.291984
C77   C     C_R   0.701587 0.829096 0.679092 0.438265
C78   C     C_R   0.601217 0.571979 0.807450 -0.188035
C79   C     C_R   0.601701 0.493256 0.774961 -0.001473
C80   C     C_R   0.553528 0.426489 0.786087 0.263524
C81   C     C_R   0.514832 0.442547 0.838365 0.135866
C82   C     C_R   0.518805 0.523677 0.873187 0.395955
C83   C     C_R   0.739393 0.490508 0.817109 -0.131879
C84   C     C_R   0.813333 0.496620 0.810705 -0.067635
C85   C     C_R   0.822976 0.503942 0.742475 0.109483
C86   C     C_R   0.754831 0.499680 0.678927 -0.185059
C87   C     C_R   0.681255 0.495146 0.686101 -0.052011
C88   C     C_R   0.757442 0.797240 0.667161 -0.045257
C89   C     C_R   0.673347 0.491773 0.756705 0.134268
C90   C     C_R   0.973042 0.603148 0.778686 -0.207429
C91   C     C_R   0.044723 0.620652 0.764591 0.225796
C92   C     C_R   0.045940 0.551587 0.706869 -0.322952
C93   C     C_R   0.978071 0.465242 0.664996 0.207825
C94   C     C_R   0.905766 0.448260 0.679135 0.317038
C95   C     C_R   0.902937 0.517804 0.735377 -0.032989
C96   C     C_R   0.997025 0.876429 0.380585 0.873665
C97   C     C_R   0.879349 0.878756 0.497845 0.925451
C98   C     C_R   0.998289 0.119111 0.619318 0.922894
C99   C     C_R   0.830230 0.816177 0.740533 0.166497
C100  C     C_R   0.120613 0.117689 0.498295 0.891710
C101  C     C_R   0.003469 0.380479 0.882437 0.878529
C102  C     C_R   0.120239 0.497760 0.117180 0.905791
C103  C     C_R   0.000733 0.620048 0.120797 0.927318
C104  C     C_R   0.879747 0.497685 0.877750 0.888030
C105  C     C_R   0.043530 0.739297 0.536684 -0.157532
C106  C     C_R   0.058490 0.760805 0.476550 0.268955
C107  C     C_R   0.987619 0.716806 0.390351 -0.029718
C108  C     C_R   0.907171 0.646575 0.365379 0.405405
C109  C     C_R   0.894217 0.628094 0.426832 -0.184280
C110  C     C_R   0.847631 0.870451 0.824501 0.377092
C111  C     C_R   0.961672 0.675047 0.512294 -0.250486
C112  C     C_R   0.004574 0.676528 0.259906 0.393140
C113  C     C_R   0.002145 0.685858 0.188893 -0.193031
C114  C     C_R   0.998804 0.756841 0.182428 -0.020997
C115  C     C_R   0.995966 0.817273 0.246058 -0.252331
C116  C     C_R   0.996348 0.807910 0.315887 -0.168959
C117  C     C_R   0.998679 0.735982 0.323017 -0.065221
C118  C     C_R   0.079290 0.813655 0.114714 -0.124864
C119  C     C_R   0.080291 0.822286 0.044439 0.212869
C120  C     C_R   0.000171 0.787404 0.970417 -0.177754
H1    H     H_    0.660815 0.668700 0.095316 0.188918
H2    H     H_    0.812749 0.723745 0.203739 0.164842
H3    H     H_    0.849622 0.755209 0.352334 0.102845
H4    H     H_    0.228104 0.680204 0.534811 0.189243
H5    H     H_    0.456720 0.729621 0.448797 0.214953
H6    H     H_    0.485541 0.841183 0.588432 0.262330
H7    H     H_    0.667145 0.895220 0.766346 0.208738
H8    H     H_    0.897304 0.169870 0.003401 0.176314
H9    H     H_    0.922500 0.114206 0.880563 0.216712
H10   H     H_    0.064394 0.197996 0.892238 0.210048
H11   H     H_    0.181499 0.337206 0.028220 0.209674
H12   H     H_    0.157992 0.576081 0.585407 0.169439
H13   H     H_    0.288337 0.593788 0.692175 0.169966
H14   H     H_    0.375130 0.240558 0.491868 0.186519
H15   H     H_    0.350753 0.185035 0.645055 0.185892
H16   H     H_    0.228403 0.034276 0.368252 0.176491
H17   H     H_    0.562093 0.648794 0.882015 0.188678
H18   H     H_    0.639000 0.625157 0.801948 0.235144
H19   H     H_    0.734886 0.488507 0.872098 0.159974
H20   H     H_    0.760999 0.503819 0.625335 0.153920
H21   H     H_    0.971149 0.655834 0.822876 0.165112
H22   H     H_    0.099830 0.565491 0.693741 0.159120
H23   H     H_    0.951526 0.659230 0.559166 0.165750
H24   H     H_    0.095458 0.770493 0.602578 0.150703
H25   H     H_    0.832104 0.575615 0.407833 0.182427
H26   H     H_    0.994997 0.872954 0.241812 0.184723
H27   H     H_    0.140347 0.838348 0.171458 0.161744
H28   H     H_    0.999710 0.793392 0.915720 0.171033
H29   H     H_    0.858033 0.704469 0.033936 0.169182
H30   H     H_    0.122017 0.480211 0.819486 0.184753
H31   H     H_    0.373222 0.506763 0.047850 0.191913
H32   H     H_    0.139126 0.264671 0.749166 0.181864
H33   H     H_    0.864027 0.243802 0.743540 0.198986
H34   H     H_    0.873544 0.185175 0.527994 0.180286
H35   H     H_    0.634919 0.611591 0.368184 0.185273
H36   H     H_    0.545709 0.647673 0.135847 0.179869
O1    O     O_R   0.408360 0.551710 0.460090 -0.624270
O2    O     O_R   0.948280 0.908380 0.356650 -0.624245
O3    O     O_R   0.960110 0.908350 0.551690 -0.580565
O4    O     O_R   0.856660 0.908370 0.448270 -0.627241
O5    O     O_R   0.051720 0.091580 0.643310 -0.575294
O6    O     O_R   0.948270 0.091600 0.539890 -0.647705
O7    O     O_R   0.143340 0.091590 0.551680 -0.632525
O8    O     O_R   0.039890 0.091610 0.448270 -0.613623
O9    O     O_R   0.051730 0.460050 0.908360 -0.631120
O10   O     O_R   0.948290 0.356630 0.908390 -0.616527
O11   O     O_R   0.143340 0.551690 0.091580 -0.643705
O12   O     O_R   0.408400 0.448280 0.356670 -0.571697
O13   O     O_R   0.039900 0.448270 0.091610 -0.564481
O14   O     O_R   0.051710 0.643320 0.091560 -0.646641
O15   O     O_R   0.948270 0.539900 0.091590 -0.546671
O16   O     O_R   0.960100 0.551680 0.908340 -0.635165
O17   O     O_R   0.856660 0.448270 0.908370 -0.607276
O18   O     O_R   0.591600 0.643340 0.551710 -0.595049
O19   O     O_R   0.591630 0.539900 0.448290 -0.632089
O20   O     O_R   0.591600 0.551720 0.643330 -0.630585
O21   O     O_R   0.591640 0.448290 0.539910 -0.615860
O22   O     O_R   0.408370 0.460100 0.551710 -0.628144
O23   O     O_R   0.408400 0.356660 0.448290 -0.598762
O24   O     O_R   0.051730 0.908360 0.460060 -0.631371
Zn1   Zn    Zn3+2 0.499980 0.569060 0.569060 0.987226
Zn2   Zn    Zn3+2 0.500020 0.430940 0.430940 1.046140
Zn3   Zn    Zn3+2 0.069070 0.999960 0.569030 0.989393
Zn4   Zn    Zn3+2 0.930930 0.999990 0.430930 0.956192
Zn5   Zn    Zn3+2 0.069070 0.569030 0.999960 0.924774
Zn6   Zn    Zn3+2 0.930930 0.430930 0.000000 1.086283
N1    N     N_2   0.803824 0.946772 0.921056 -0.262296
H37   H     H_    0.831679 0.930440 0.965303 0.286970
C121  C     C_3   0.742926 0.974574 0.933473 -0.741920
H38   H     H_    0.768685 0.015228 0.003867 0.249851
H39   H     H_    0.678023 0.917086 0.905356 0.240763
H40   H     H_    0.736119 0.015157 0.903715 0.256506
Cl1   Cl    Cl    0.382050 0.844487 0.670990 -0.633990
Cl2   Cl    Cl    0.155947 0.537822 0.366015 -0.534666
N2    N     N_2   0.253922 0.656571 0.272513 -0.293650
H41   H     H_    0.194686 0.655019 0.248178 0.250588
C122  C     C_3   0.322421 0.715312 0.267072 -0.703335
H42   H     H_    0.292763 0.722489 0.210468 0.239899
H43   H     H_    0.368222 0.691360 0.259866 0.224898
H44   H     H_    0.360579 0.780140 0.326927 0.289195
Cl3   Cl    Cl    0.234424 0.316461 0.223260 -0.504111
Cl4   Cl    Cl    0.003486 0.324171 0.169994 -0.472754
N3    N     N_2   0.341863 0.478047 0.675325 -0.279151
H45   H     H_    0.393758 0.539981 0.721960 0.236930
C123  C     C_3   0.307227 0.428314 0.711425 -0.793513
H46   H     H_    0.326451 0.377655 0.702436 0.252073
H47   H     H_    0.234482 0.395829 0.679854 0.238112
H48   H     H_    0.333505 0.471617 0.781285 0.270588
Cl5   Cl    Cl    0.114093 0.319145 0.347755 -0.539825
N4    N     N_2   0.043719 0.436194 0.420352 -0.278226
H49   H     H_    0.019388 0.397545 0.355145 0.332919
C124  C     C_3   0.009292 0.494016 0.442796 -0.645385
H50   H     H_    0.051794 0.558632 0.453938 0.272844
H51   H     H_    0.004252 0.501328 0.501362 0.219173
H52   H     H_    0.942300 0.465981 0.388870 0.259912
Cl6   Cl    Cl    0.624288 0.825200 0.592832 -0.585292
N5    N     N_2   0.106959 0.266434 0.515771 -0.343133
H53   H     H_    0.100188 0.254545 0.563030 0.202930
C125  C     C_3   0.023540 0.229075 0.438834 -0.621340
H54   H     H_    0.968874 0.185552 0.441954 0.231407
H55   H     H_    0.022372 0.190718 0.378579 0.281475
H56   H     H_    0.010546 0.281369 0.435439 0.236722
N6    N     N_2   0.428407 0.098004 0.681976 -0.304977
H57   H     H_    0.403287 0.050502 0.695997 0.254333
C126  C     C_3   0.521274 0.132099 0.710830 -0.477885
H58   H     H_    0.538961 0.080937 0.709123 0.257961
H59   H     H_    0.559782 0.187077 0.778673 0.237584
H60   H     H_    0.539862 0.155849 0.669887 0.274024
Cl7   Cl    Cl    0.403353 0.942931 0.533369 -0.595498
N7    N     N_2   0.291744 0.927160 0.364358 -0.293765
H61   H     H_    0.348919 0.927982 0.369206 0.297007
C127  C     C_3   0.222683 0.841152 0.331977 -0.783161
H62   H     H_    0.162544 0.843151 0.326683 0.247466
H63   H     H_    0.242509 0.816074 0.375790 0.286906
H64   H     H_    0.208280 0.796065 0.266930 0.243339
Cl8   Cl    Cl    0.481014 0.551759 0.946304 -0.723493
N8    N     N_2   0.891378 0.790611 0.728592 -0.265995
H65   H     H_    0.955370 0.829334 0.778570 0.280468
C128  C     C_3   0.860735 0.698408 0.692735 -0.797234
H66   H     H_    0.906599 0.682955 0.674182 0.235930
H67   H     H_    0.794793 0.658997 0.633923 0.231888
H68   H     H_    0.857674 0.679993 0.741541 0.280343
Cl9   Cl    Cl    0.546115 0.324312 0.737696 -0.691016
N9    N     N_2   0.483837 0.383256 0.866090 -0.258326
H69   H     H_    0.514074 0.346555 0.869494 0.271742
C129  C     C_3   0.389565 0.332538 0.826807 -0.615948
H70   H     H_    0.359086 0.290650 0.755961 0.198474
H71   H     H_    0.361054 0.375353 0.840172 0.282671
H72   H     H_    0.373731 0.290144 0.854358 0.267809
N10   N     N_2   0.117099 0.706960 0.810011 -0.314145
H73   H     H_    0.172262 0.710521 0.806550 0.228345
C130  C     C_3   0.096968 0.769957 0.795045 -0.798246
H74   H     H_    0.158021 0.834220 0.832823 0.254406
H75   H     H_    0.050633 0.777988 0.817034 0.242961
H76   H     H_    0.068716 0.749262 0.725214 0.240281
N11   N     N_2   0.980525 0.396927 0.604776 -0.291108
H77   H     H_    0.923748 0.337707 0.562082 0.257344
C131  C     C_3   0.060645 0.392726 0.631163 -0.802620
H78   H     H_    0.049255 0.334127 0.637283 0.237955
H79   H     H_    0.116341 0.450598 0.693376 0.236401
H80   H     H_    0.080438 0.389748 0.581995 0.272731
Cl10  Cl    Cl    0.819197 0.340574 0.628063 -0.680365
Cl11  Cl    Cl    0.950766 0.917835 0.916404 -0.620894
N12   N     N_2   0.145274 0.820433 0.500352 -0.286017
H81   H     H_    0.152636 0.834692 0.454571 0.242523
C132  C     C_3   0.201711 0.893397 0.588264 -0.665706
H82   H     H_    0.261192 0.938795 0.593348 0.237488
H83   H     H_    0.223580 0.871127 0.634131 0.255814
H84   H     H_    0.167567 0.928785 0.606481 0.232605
Cl12  Cl    Cl    0.822140 0.576320 0.256425 -0.589899
Cl13  Cl    Cl    0.018736 0.592263 0.272286 -0.507753
N13   N     N_2   0.161142 0.862777 0.046567 -0.321875
H85   H     H_    0.154631 0.853634 0.987494 0.241506
C133  C     C_3   0.222132 0.952165 0.116047 -0.688595
H86   H     H_    0.282307 0.977206 0.111256 0.242771
H87   H     H_    0.242045 0.956902 0.180187 0.240541
H88   H     H_    0.191904 0.993486 0.111161 0.269827
Cl14  Cl    Cl    0.821524 0.709581 0.877598 -0.729934
Cl15  Cl    Cl    0.893763 0.938638 0.670855 -0.566135
N14   N     N_2   0.390289 0.660400 0.069553 -0.307633
H89   H     H_    0.424787 0.663544 0.126664 0.203600
C134  C     C_3   0.442116 0.719066 0.050067 -0.624603
H90   H     H_    0.512424 0.738892 0.086192 0.224954
H91   H     H_    0.435951 0.778401 0.070529 0.246925
H92   H     H_    0.420741 0.688543 0.979869 0.257480
N15   N     N_2   0.251513 0.642558 0.928203 -0.320674
H93   H     H_    0.223476 0.631722 0.866062 0.207567
C135  C     C_3   0.219643 0.685251 0.979142 -0.672784
H94   H     H_    0.234563 0.748770 0.982577 0.235664
H95   H     H_    0.252092 0.697709 0.046265 0.240129
H96   H     H_    0.147402 0.644506 0.948224 0.246413
Cl16  Cl    Cl    0.252360 0.326189 0.929179 -0.667906
N16   N     N_2   0.728707 0.098519 0.376891 -0.308235
H97   H     H_    0.683011 0.043154 0.317274 0.265906
C136  C     C_3   0.721834 0.174331 0.383010 -0.651436
H98   H     H_    0.718923 0.179522 0.325681 0.227549
H99   H     H_    0.780002 0.234413 0.441897 0.251126
H100  H     H_    0.661242 0.168785 0.384957 0.273681
Cl17  Cl    Cl    0.559485 0.968901 0.353214 -0.615749
Cl18  Cl    Cl    0.583826 0.947886 0.515935 -0.448197
Cl19  Cl    Cl    0.773026 0.051047 0.682980 -0.516661
N17   N     N_2   0.566786 0.688103 0.293164 -0.343911
H101  H     H_    0.503812 0.641563 0.242868 0.206386
C137  C     C_3   0.573366 0.770623 0.341058 -0.655910
H102  H     H_    0.560711 0.799343 0.299229 0.255510
H103  H     H_    0.639385 0.816916 0.399662 0.273598
H104  H     H_    0.524023 0.760363 0.362494 0.258543

loop_
_geom_bond_atom_site_label_1
_geom_bond_atom_site_label_2
_ccdc_geom_bond_type
N16   C136  S    
C96   O2    A    
N3    H45   S    
C40   C41   A    
C102  O11   A    
C82   Cl8   S    
C5    C114  S    
C122  H44   S    
C133  H88   S    
C85   C95   S    
C41   C42   A    
C12   H32   S    
C130  H76   S    
C35   C36   A    
O22   Zn1   S    
C105  H24   S    
C83   H19   S    
C114  C115  A    
C57   C58   A    
C93   N11   S    
C7    C8    A    
C136  H99   S    
C85   C86   A    
N9    H69   S    
C92   C93   A    
C119  N13   S    
N3    C123  S    
C115  H26   S    
C134  H90   S    
N16   H97   S    
C23   Cl19  S    
C51   H8    S    
C97   O3    A    
C81   N9    S    
C13   C29   A    
C118  H27   S    
C103  C113  S    
C24   C26   A    
O13   Zn6   S    
C133  H86   S    
C32   H1    S    
C109  C111  A    
C112  C117  A    
C15   C25   S    
C8    C18   S    
C106  C107  A    
N10   C130  S    
O21   Zn2   S    
C37   H4    S    
C126  H60   S    
C66   H7    S    
C47   Cl3   S    
O14   Zn5   S    
C43   N2    S    
C34   C35   A    
C73   C74   A    
C130  H74   S    
C37   C42   A    
C122  H43   S    
C17   C101  S    
C118  C119  A    
C73   N7    S    
C29   C88   S    
C46   C47   A    
C84   C85   A    
C30   N17   S    
C137  H104  S    
C2    C110  A    
C128  H66   S    
C77   C88   A    
N9    C129  S    
C8    C9    A    
C65   C67   A    
C64   C65   A    
C74   H16   S    
C103  O14   A    
C107  C108  A    
C70   C71   A    
C108  C109  A    
O8    Zn4   S    
C128  H68   S    
C44   C87   S    
C92   H22   S    
C60   Cl5   S    
C129  H70   S    
C61   C62   A    
C6    C11   A    
O24   Zn3   S    
C111  H23   S    
C104  O16   A    
O23   Zn2   S    
C15   C16   A    
C102  O13   A    
C137  H103  S    
C105  C111  A    
C59   C60   A    
C34   H2    S    
O10   Zn6   S    
C21   C22   A    
C103  O15   A    
C20   N16   S    
C19   H34   S    
C57   H13   S    
C135  H96   S    
C101  O10   A    
O1    Zn1   S    
C33   O19   A    
C78   H18   S    
O18   Zn1   S    
C106  N12   S    
C112  C113  A    
C98   O6    A    
C14   C98   S    
C136  H100  S    
C54   C56   A    
C50   Cl4   S    
C27   H35   S    
O20   Zn1   S    
C83   C89   A    
C129  H71   S    
O17   Zn6   S    
C71   N6    S    
C74   C75   A    
C76   C78   A    
O7    Zn3   S    
C67   C68   A    
C90   H21   S    
C97   O4    A    
C63   C69   A    
C57   C62   A    
C67   H14   S    
N14   H89   S    
N6    H57   S    
C100  O8    A    
C132  H82   S    
C76   C82   A    
C39   C40   A    
C55   C68   S    
C86   C87   A    
C16   C17   A    
C3    Cl14  S    
N2    H41   S    
C81   C82   A    
C1    O12   A    
C50   C51   A    
N10   H73   S    
C76   H17   S    
C99   C110  A    
C127  H64   S    
O9    Zn5   S    
C38   Cl2   S    
C13   C24   A    
N11   C131  S    
C60   C61   A    
C135  H95   S    
O5    Zn3   S    
C42   Cl1   S    
C131  H79   S    
C54   H11   S    
O6    Zn4   S    
C37   C38   A    
C4    H29   S    
C62   H12   S    
C10   H31   S    
C125  H55   S    
C7    H30   S    
C83   C84   A    
C14   C15   A    
C124  H52   S    
C64   C100  S    
O16   Zn5   S    
N11   H77   S    
C20   C21   A    
C27   C28   A    
C127  H63   S    
C17   C18   A    
C26   C27   A    
N15   H93   S    
C94   C95   A    
C128  H67   S    
C93   C94   A    
C112  Cl13  S    
C1    O1    A    
C96   O24   A    
N7    C127  S    
C33   O18   A    
C43   C45   A    
C110  Cl11  S    
C104  O17   A    
C132  H83   S    
C59   C69   S    
O19   Zn2   S    
C26   C36   S    
C48   C49   A    
C94   Cl10  S    
C12   C14   A    
C58   N3    S    
C120  H28   S    
N4    C124  S    
C10   C11   A    
N8    C128  S    
N7    H61   S    
C70   H15   S    
C84   C104  S    
C55   O22   A    
N2    C122  S    
C79   C80   A    
C58   C59   A    
C131  H80   S    
N13   H85   S    
C46   C56   S    
C3    C4    A    
N12   C132  S    
C11   N14   S    
C91   C92   A    
C98   O5    A    
C52   C53   A    
C13   Cl15  S    
C130  H75   S    
C113  C114  A    
C9    C10   A    
C123  H48   S    
C91   N10   S    
C121  H38   S    
C125  H54   S    
C66   C77   A    
C123  H46   S    
N17   H101  S    
C28   C29   A    
O15   Zn6   S    
C6    N15   S    
C47   C48   A    
C21   Cl17  S    
C55   O23   A    
C41   H6    S    
C68   C69   A    
C31   C32   A    
C43   C49   A    
C3    C120  A    
C44   O20   A    
N14   C134  S    
C80   C81   A    
C2    C66   A    
C132  H84   S    
C90   C95   A    
C44   O21   A    
C28   C33   S    
C9    Cl16  S    
C119  C120  A    
C39   C49   S    
C1    C48   S    
C53   C54   A    
C6    C7    A    
C109  H25   S    
C86   H20   S    
N5    C125  S    
C105  C106  A    
C24   C97   S    
O12   Zn2   S    
C65   C75   S    
C80   Cl9   S    
C30   C36   A    
C5    C118  A    
O3    Zn3   S    
C135  H94   S    
C63   N5    S    
C19   C20   A    
C35   H3    S    
C131  H78   S    
N12   H81   S    
C51   C52   A    
C136  H98   S    
N17   C137  S    
C121  H40   S    
C101  O9    A    
C125  H56   S    
N15   C135  S    
C78   C79   A    
C30   C31   A    
C90   C91   A    
C38   C39   A    
C137  H102  S    
C72   C73   A    
C40   H5    S    
N5    H53   S    
C108  Cl12  S    
C127  H62   S    
C126  H59   S    
C107  C117  S    
C116  C117  A    
C100  O7    A    
C133  H87   S    
C61   N4    S    
C23   C25   A    
N6    C126  S    
C122  H42   S    
C19   C25   A    
C50   C56   A    
N1    C121  S    
C88   C99   A    
C52   H9    S    
C45   C102  S    
C124  H51   S    
C134  H91   S    
C63   C64   A    
C99   N8    S    
C31   H36   S    
C4    C5    A    
C2    N1    S    
C71   C72   A    
C124  H50   S    
C70   C75   A    
C134  H92   S    
N13   C133  S    
N4    H49   S    
C22   Cl18  S    
C12   C18   A    
C16   H33   S    
C87   C89   A    
C72   Cl7   S    
C22   C23   A    
C96   C116  S    
C79   C89   S    
N1    H37   S    
C53   H10   S    
C121  H39   S    
N8    H65   S    
C123  H47   S    
O2    Zn4   S    
O4    Zn4   S    
C115  C116  A    
C77   Cl6   S    
C32   C34   A    
C45   C46   A    
C126  H58   S    
C129  H72   S    
O11   Zn5   S    
