data_mof_unit_42754.cif
_audit_creation_date              2012-12-10T17:09:19-0500
_audit_creation_method            fapswitch 2.2
_symmetry_space_group_name_H-M    P1
_symmetry_Int_Tables_number       1
_space_group_crystal_system       triclinic
_cell_length_a                    17.665035
_cell_length_b                    19.173571
_cell_length_c                    11.787327
_cell_angle_alpha                 89.306715
_cell_angle_beta                  76.060241
_cell_angle_gamma                 89.994511
_cell_volume                      3874.5112416

loop_
_atom_site_label
_atom_site_type_symbol
_atom_type_description
_atom_site_fract_x
_atom_site_fract_y
_atom_site_fract_z
_atom_type_partial_charge
C1    C     C_R   0.401414 0.101316 0.520314 0.825507
C2    C     C_R   0.463004 0.000663 0.037434 -0.033097
C3    C     C_R   0.037663 0.501078 0.962835 -0.035909
C4    C     C_R   0.963004 0.500665 0.037434 -0.033077
C5    C     C_R   0.407948 0.006828 0.864317 0.629780
C6    C     C_R   0.592836 0.004089 0.137028 0.616927
C7    C     C_R   0.907947 0.506831 0.864316 0.629796
C8    C     C_R   0.092837 0.504086 0.137028 0.616937
C9    C     C_R   0.398476 0.002887 0.986697 -0.382246
C10   C     C_R   0.602397 0.003158 0.013736 -0.405138
C11   C     C_R   0.898476 0.502892 0.986697 -0.382286
C12   C     C_R   0.599392 0.898947 0.479138 0.863912
C13   C     C_R   0.102398 0.503152 0.013737 -0.405118
C14   C     C_R   0.545468 0.999378 0.839223 0.270008
C15   C     C_R   0.454743 0.998951 0.160752 0.261072
C16   C     C_R   0.045468 0.499377 0.839223 0.269991
C17   C     C_R   0.954743 0.498952 0.160752 0.261059
C18   C     C_R   0.659527 0.155814 0.461453 -0.211221
C19   C     C_R   0.345453 0.839422 0.534315 -0.171506
C20   C     C_R   0.349925 0.161670 0.529726 -0.216310
C21   C     C_R   0.652199 0.838944 0.468049 -0.188713
C22   C     C_R   0.159524 0.655816 0.461454 -0.211216
C23   C     C_R   0.601220 0.099752 0.477516 0.827832
C24   C     C_R   0.845458 0.339419 0.534314 -0.171505
C25   C     C_R   0.849927 0.661672 0.529726 -0.216342
C26   C     C_R   0.152198 0.338944 0.468049 -0.188715
C27   C     C_R   0.283532 0.736111 0.636980 0.041180
C28   C     C_R   0.739561 0.246216 0.343266 0.107105
C29   C     C_R   0.705193 0.731133 0.374901 0.096931
C30   C     C_R   0.291550 0.265415 0.629930 0.106099
C31   C     C_R   0.783542 0.236103 0.636974 0.041184
C32   C     C_R   0.239554 0.746221 0.343268 0.107091
C33   C     C_R   0.205178 0.231124 0.374916 0.096941
C34   C     C_R   0.398950 0.899733 0.522199 0.863802
C35   C     C_R   0.791536 0.765406 0.629949 0.106116
C36   C     C_R   0.319416 0.801530 0.640756 0.429856
C37   C     C_R   0.681150 0.195169 0.356225 0.373536
C38   C     C_R   0.658515 0.790583 0.376889 0.390364
C39   C     C_R   0.345736 0.211141 0.618238 0.378771
C40   C     C_R   0.819427 0.301522 0.640752 0.429854
C41   C     C_R   0.181143 0.695173 0.356227 0.373552
C42   C     C_R   0.158507 0.290578 0.376898 0.390360
C43   C     C_R   0.845722 0.711133 0.618259 0.378772
C44   C     C_R   0.322891 0.817583 0.434110 -0.231992
C45   C     C_R   0.901415 0.601316 0.520314 0.825507
C46   C     C_R   0.695033 0.169178 0.552437 -0.255721
C47   C     C_R   0.694676 0.828929 0.552614 -0.243486
C48   C     C_R   0.304347 0.169361 0.448956 -0.259352
C49   C     C_R   0.822894 0.317581 0.434111 -0.231993
C50   C     C_R   0.195029 0.669181 0.552439 -0.255726
C51   C     C_R   0.194682 0.328933 0.552606 -0.243492
C52   C     C_R   0.804362 0.669371 0.448941 -0.259343
C53   C     C_R   0.271215 0.762111 0.439055 0.019758
C54   C     C_R   0.750587 0.221610 0.542697 0.032711
C55   C     C_R   0.746174 0.773389 0.546725 0.018439
C56   C     C_R   0.099392 0.398948 0.479138 0.863913
C57   C     C_R   0.252193 0.224460 0.455903 0.019392
C58   C     C_R   0.771220 0.262108 0.439053 0.019759
C59   C     C_R   0.250580 0.721615 0.542700 0.032711
C60   C     C_R   0.246177 0.273391 0.546720 0.018436
C61   C     C_R   0.752203 0.724467 0.455894 0.019391
C62   C     C_3   0.727144 0.025522 0.119424 0.034949
C63   C     C_3   0.785459 0.034751 0.194294 -0.684638
C64   C     C_3   0.296306 0.069765 0.863171 0.042888
C65   C     C_3   0.234213 0.082015 0.795001 -0.696524
C66   C     C_3   0.227151 0.525500 0.119416 0.034918
C67   C     C_R   0.101219 0.599753 0.477517 0.827839
C68   C     C_3   0.285467 0.534740 0.194280 -0.684665
C69   C     C_3   0.796277 0.569741 0.863202 0.042885
C70   C     C_3   0.734202 0.582001 0.795004 -0.696455
C71   C     C_3   0.580612 0.221933 0.274020 0.107413
C72   C     C_3   0.544158 0.206354 0.172569 -0.718563
C73   C     C_3   0.263007 0.820769 0.838186 0.098944
C74   C     C_3   0.243171 0.888767 0.901874 -0.708033
C75   C     C_3   0.463711 0.238083 0.651962 0.109801
C76   C     C_3   0.513959 0.231389 0.739761 -0.742135
C77   C     C_3   0.656091 0.823136 0.191172 0.084905
C78   C     C_R   0.898952 0.399732 0.522198 0.863813
C79   C     C_3   0.605599 0.825138 0.103306 -0.664547
C80   C     C_3   0.080591 0.721938 0.274053 0.107440
C81   C     C_3   0.044101 0.706335 0.172647 -0.718537
C82   C     C_3   0.763036 0.320749 0.838192 0.098948
C83   C     C_3   0.743201 0.388745 0.901886 -0.708080
C84   C     C_3   0.963685 0.738056 0.652050 0.109817
C85   C     C_3   0.013918 0.731328 0.739865 -0.742114
C86   C     C_3   0.156080 0.323127 0.191180 0.084898
C87   C     C_3   0.105584 0.325129 0.103318 -0.664568
C88   C     C_R   0.537662 0.001079 0.962835 -0.035914
Cu1   Cu    Cu3+1 0.507800 1.000000 0.383250 1.031277
Cu2   Cu    Cu3+1 0.492200 0.000000 0.616750 1.048301
Cu3   Cu    Cu3+1 0.007800 0.500000 0.383250 1.031273
Cu4   Cu    Cu3+1 0.992200 0.500000 0.616750 1.048302
H1    H     H_    0.676092 0.140809 0.633737 0.225167
H2    H     H_    0.660198 0.003659 0.958290 0.191420
H3    H     H_    0.840088 0.501384 0.040579 0.189630
H4    H     H_    0.160199 0.503649 0.958290 0.191415
H5    H     H_    0.722519 0.075935 0.073598 0.202851
H6    H     H_    0.750009 0.983689 0.055785 0.149091
H7    H     H_    0.792131 0.984922 0.239942 0.223691
H8    H     H_    0.843015 0.050498 0.138245 0.216045
H9    H     H_    0.765173 0.075599 0.260394 0.266625
H10   H     H_    0.331555 0.118186 0.859422 0.210020
H11   H     H_    0.264627 0.059289 0.955167 0.154756
H12   H     H_    0.343168 0.846221 0.353351 0.230496
H13   H     H_    0.187104 0.042479 0.820124 0.218237
H14   H     H_    0.208100 0.134502 0.814778 0.224429
H15   H     H_    0.259561 0.078406 0.699790 0.255849
H16   H     H_    0.222539 0.575904 0.073558 0.202840
H17   H     H_    0.250006 0.483651 0.055803 0.149088
H18   H     H_    0.292115 0.484922 0.239973 0.223714
H19   H     H_    0.343031 0.550456 0.138219 0.216036
H20   H     H_    0.265196 0.575614 0.260337 0.266630
H21   H     H_    0.831505 0.618170 0.859520 0.210000
H22   H     H_    0.764581 0.559226 0.955177 0.154754
H23   H     H_    0.310283 0.131911 0.380290 0.228767
H24   H     H_    0.687113 0.542440 0.820049 0.218219
H25   H     H_    0.708056 0.634471 0.814838 0.224421
H26   H     H_    0.759573 0.578439 0.699794 0.255851
H27   H     H_    0.594478 0.278674 0.271783 0.152066
H28   H     H_    0.536832 0.209232 0.356726 0.107454
H29   H     H_    0.490953 0.238467 0.179535 0.193159
H30   H     H_    0.586243 0.218671 0.088275 0.245148
H31   H     H_    0.527695 0.150410 0.174412 0.250016
H32   H     H_    0.274624 0.782006 0.902482 0.217881
H33   H     H_    0.209434 0.804602 0.810744 0.118839
H34   H     H_    0.688131 0.865616 0.622186 0.229629
H35   H     H_    0.231359 0.928841 0.840091 0.264418
H36   H     H_    0.189997 0.882010 0.973951 0.204043
H37   H     H_    0.291781 0.904597 0.940164 0.277553
H38   H     H_    0.455358 0.294585 0.635634 0.160039
H39   H     H_    0.495395 0.213654 0.569029 0.094277
H40   H     H_    0.571090 0.257446 0.704643 0.193584
H41   H     H_    0.484405 0.256410 0.823169 0.251414
H42   H     H_    0.524053 0.175493 0.757010 0.256577
H43   H     H_    0.707943 0.790349 0.154590 0.157033
H44   H     H_    0.677150 0.876601 0.201543 0.177638
H45   H     H_    0.176087 0.640812 0.633739 0.225171
H46   H     H_    0.551865 0.855727 0.138351 0.249073
H47   H     H_    0.638449 0.849664 0.020223 0.215279
H48   H     H_    0.588824 0.771293 0.085465 0.261143
H49   H     H_    0.094458 0.778679 0.271777 0.152084
H50   H     H_    0.036830 0.709250 0.356787 0.107399
H51   H     H_    0.990888 0.738439 0.179637 0.193151
H52   H     H_    0.086161 0.718643 0.088326 0.245134
H53   H     H_    0.027642 0.650389 0.174525 0.250040
H54   H     H_    0.774663 0.281986 0.902480 0.217881
H55   H     H_    0.709459 0.304580 0.810763 0.118847
H56   H     H_    0.843166 0.346222 0.353354 0.230497
H57   H     H_    0.731378 0.428819 0.840112 0.264410
H58   H     H_    0.690034 0.381985 0.973975 0.204059
H59   H     H_    0.791818 0.404579 0.940160 0.277551
H60   H     H_    0.955343 0.794563 0.635753 0.160040
H61   H     H_    0.995376 0.713642 0.569106 0.094284
H62   H     H_    0.071055 0.757381 0.704779 0.193576
H63   H     H_    0.984358 0.756334 0.823285 0.251397
H64   H     H_    0.024000 0.675426 0.757083 0.256582
H65   H     H_    0.207929 0.290337 0.154597 0.157028
H66   H     H_    0.177142 0.376592 0.201545 0.177624
H67   H     H_    0.810310 0.631930 0.380259 0.228770
H68   H     H_    0.051855 0.355727 0.138360 0.249072
H69   H     H_    0.138435 0.349644 0.020227 0.215268
H70   H     H_    0.088797 0.271284 0.085494 0.261149
H71   H     H_    0.188147 0.365626 0.622168 0.229626
H72   H     H_    0.340087 0.001378 0.040576 0.189637
I1    I     I_    0.338994 0.995366 0.270733 -0.354371
I2    I     I_    0.777366 0.296722 0.176508 -0.385893
I3    I     I_    0.695418 0.649846 0.255785 -0.352334
I4    I     I_    0.280456 0.331389 0.777982 -0.391813
I5    I     I_    0.660673 0.998500 0.729039 -0.346464
I6    I     I_    0.838994 0.495368 0.270734 -0.354369
I7    I     I_    0.160673 0.498503 0.729039 -0.346461
I8    I     I_    0.789743 0.156963 0.764778 -0.365219
I9    I     I_    0.277350 0.796733 0.176513 -0.385846
I10   I     I_    0.195389 0.149832 0.255819 -0.352307
I11   I     I_    0.780424 0.831369 0.778019 -0.391827
I12   I     I_    0.289725 0.656977 0.764798 -0.365202
N1    N     N_R   0.519530 0.000000 0.207810 -0.235839
N2    N     N_R   0.480470 0.000000 0.792190 -0.225613
N3    N     N_R   0.019530 0.500000 0.207810 -0.235857
N4    N     N_R   0.980470 0.500000 0.792190 -0.225614
O1    O     O_R   0.430030 0.075530 0.417420 -0.587748
O2    O     O_R   0.583140 0.924490 0.385390 -0.530790
O3    O     O_R   0.583140 0.075510 0.385390 -0.504875
O4    O     O_R   0.416860 0.924490 0.614610 -0.501761
O5    O     O_R   0.916860 0.575510 0.614610 -0.514610
O6    O     O_R   0.083140 0.424490 0.385390 -0.530797
O7    O     O_R   0.083140 0.575510 0.385390 -0.504864
O8    O     O_R   0.916860 0.424490 0.614610 -0.501759
O9    O     O_3   0.654447 0.005660 0.192200 -0.557263
O10   O     O_3   0.344182 0.012795 0.815198 -0.562989
O11   O     O_3   0.154448 0.505662 0.192201 -0.557245
O12   O     O_R   0.569970 0.924470 0.582580 -0.570885
O13   O     O_3   0.844183 0.512795 0.815192 -0.562973
O14   O     O_3   0.648750 0.181396 0.262989 -0.541264
O15   O     O_3   0.331137 0.828090 0.744880 -0.539506
O16   O     O_3   0.391490 0.204529 0.697891 -0.565574
O17   O     O_3   0.611349 0.796578 0.299023 -0.545260
O18   O     O_3   0.148735 0.681405 0.262997 -0.541248
O19   O     O_3   0.831159 0.328075 0.744874 -0.539511
O20   O     O_3   0.891455 0.704507 0.697939 -0.565547
O21   O     O_3   0.111339 0.296572 0.299035 -0.545257
O22   O     O_R   0.569970 0.075530 0.582580 -0.590382
O23   O     O_R   0.430030 0.924470 0.417420 -0.575237
O24   O     O_R   0.930030 0.575530 0.417420 -0.587753
O25   O     O_R   0.069970 0.424470 0.582580 -0.570879
O26   O     O_R   0.069970 0.575530 0.582580 -0.590399
O27   O     O_R   0.930030 0.424470 0.417420 -0.575234
O28   O     O_R   0.416860 0.075510 0.614610 -0.514631

loop_
_geom_bond_atom_site_label_1
_geom_bond_atom_site_label_2
_ccdc_geom_bond_type
C64   H11   S    
C79   H47   S    
Cu2   N2    S    
C8    C13   A    
C72   H29   S    
C73   C74   S    
C65   H14   S    
C66   C68   S    
C8    N3    A    
C63   H9    S    
C12   O2    A    
C25   C43   A    
C82   H55   S    
C44   H12   S    
C50   H45   S    
C48   C57   A    
Cu2   O12   S    
C84   O20   S    
C7    C11   A    
C69   H21   S    
C87   H70   S    
C62   C63   S    
C71   H28   S    
C50   C59   A    
Cu1   O3    S    
C18   C37   A    
C5    O10   S    
C52   C61   A    
C85   H63   S    
Cu4   O5    S    
C22   C41   A    
C31   I8    S    
C10   H2    S    
C8    O11   S    
C82   O19   S    
C87   H68   S    
C68   H20   S    
C1    O28   A    
C78   O27   A    
C63   H7    S    
Cu4   O25   S    
Cu4   N4    S    
C31   C40   A    
C62   H6    S    
C44   C53   A    
C81   H52   S    
C74   H36   S    
C21   C38   A    
C67   O7    A    
Cu3   N3    S    
C29   C38   A    
C7    N4    A    
C33   C57   A    
C32   C41   A    
C34   O4    A    
C43   O20   S    
C77   H44   S    
Cu1   N1    S    
C7    O13   S    
C35   C43   A    
Cu3   O24   S    
C3    C13   A    
C75   H38   S    
C28   I2    S    
C22   C50   A    
C83   H58   S    
C75   O16   S    
C17   N3    A    
C52   H67   S    
C79   H48   S    
Cu1   O23   S    
C14   I5    S    
C18   C46   A    
C65   H13   S    
C82   H54   S    
C75   H39   S    
C62   O9    S    
C83   H59   S    
C77   C79   S    
C53   C59   A    
C12   O12   A    
C29   C61   A    
C69   H22   S    
C56   O25   A    
C23   O22   A    
C35   C55   A    
C18   C23   S    
C5    N2    A    
C31   C54   A    
C84   C85   S    
C66   H16   S    
Cu3   Cu4   S    
C20   C39   A    
C1    O1    A    
C17   I6    S    
C41   O18   S    
C57   C60   A    
C68   H19   S    
C13   H4    S    
C70   H24   S    
C12   C21   S    
C49   C58   A    
C49   H56   S    
C30   C60   A    
C85   H64   S    
Cu1   O1    S    
C9    H72   S    
C64   H10   S    
C75   C76   S    
C5    C9    A    
C63   H8    S    
C2    C15   A    
C62   H5    S    
C84   H61   S    
C64   O10   S    
C74   H35   S    
C34   O23   A    
C73   H32   S    
C80   O18   S    
C66   O11   S    
C46   C54   A    
C69   O13   S    
C38   O17   S    
C68   H18   S    
C4    C11   A    
C2    C88   A    
C33   I10   S    
C86   H66   S    
C86   O21   S    
C23   O3    A    
C14   N2    A    
C67   O26   A    
C48   H23   S    
Cu2   O28   S    
C4    C17   A    
C84   H60   S    
C24   C78   S    
C51   H71   S    
C87   H69   S    
Cu3   O6    S    
Cu2   O4    S    
C82   C83   S    
C80   H50   S    
C73   O15   S    
C72   H31   S    
C78   O8    A    
C33   C42   A    
C3    C4    A    
C25   C45   S    
C32   C53   A    
C19   C44   A    
C26   C42   A    
C47   H34   S    
C47   C55   A    
C54   C58   A    
C11   H3    S    
C24   C49   A    
Cu3   O7    S    
C1    C20   S    
C76   H42   S    
C20   C48   A    
C72   H30   S    
C86   C87   S    
C56   O6    A    
C80   C81   S    
C71   O14   S    
C19   C34   S    
C26   C56   S    
C27   I12   S    
C6    C10   A    
Cu3   O27   S    
C76   H41   S    
Cu4   O8    S    
C40   O19   S    
C28   C58   A    
C27   C36   A    
C77   H43   S    
C32   I9    S    
C39   O16   S    
C81   H53   S    
C71   H27   S    
C19   C36   A    
C35   I11   S    
C37   O14   S    
C29   I3    S    
C15   N1    A    
C25   C52   A    
C14   C88   A    
C71   C72   S    
C6    N1    A    
C27   C59   A    
C26   C51   A    
C64   C65   S    
C76   H40   S    
C16   I7    S    
C45   O5    A    
C46   H1    S    
C28   C37   A    
C70   H26   S    
C45   O24   A    
C73   H33   S    
C55   C61   A    
C6    O9    S    
Cu2   O22   S    
C24   C40   A    
C30   C39   A    
C85   H62   S    
C66   H17   S    
C69   C70   S    
C86   H65   S    
C22   C67   S    
C36   O15   S    
Cu4   O26   S    
C30   I4    S    
C10   C88   A    
C81   H51   S    
C79   H46   S    
C80   H49   S    
C74   H37   S    
C15   I1    S    
C42   O21   S    
C51   C60   A    
C70   H25   S    
C21   C47   A    
Cu1   Cu2   S    
C2    C9    A    
C77   O17   S    
C65   H15   S    
C3    C16   A    
C16   N4    A    
Cu1   O2    S    
C83   H57   S    
