data_mof_unit_52518.cif
_audit_creation_date              2012-12-11T15:42:57-0500
_audit_creation_method            fapswitch 2.2
_symmetry_space_group_name_H-M    P1
_symmetry_Int_Tables_number       1
_space_group_crystal_system       triclinic
_cell_length_a                    19.095173
_cell_length_b                    11.011142
_cell_length_c                    18.716454
_cell_angle_alpha                 90.382486
_cell_angle_beta                  90.249198
_cell_angle_gamma                 89.888813
_cell_volume                      3935.18318365

loop_
_atom_site_label
_atom_site_type_symbol
_atom_type_description
_atom_site_fract_x
_atom_site_fract_y
_atom_site_fract_z
_atom_type_partial_charge
C1    C     C_R   0.710644 0.328095 0.139383 0.565919
C2    C     C_R   0.289641 0.327913 0.861013 0.556454
C3    C     C_R   0.210017 0.826557 0.139314 0.571459
C4    C     C_R   0.789595 0.826742 0.860927 0.557533
C5    C     C_R   0.476521 0.395429 0.939864 -0.080068
C6    C     C_R   0.465175 0.377932 0.087579 -0.089397
C7    C     C_R   0.995861 0.894545 0.931011 -0.076151
C8    C     C_R   0.980203 0.887047 0.078627 -0.094966
C9    C     C_R   0.983120 0.000985 0.969503 -0.118421
C10   C     C_R   0.974721 0.997035 0.043021 -0.138590
C11   C     C_R   0.463331 0.498576 0.981396 -0.119466
C12   C     C_R   0.457474 0.489756 0.054973 -0.133257
C13   C     C_R   0.774292 0.844785 0.936045 0.007870
C14   C     C_R   0.215817 0.839910 0.062319 -0.015717
C15   C     C_R   0.276282 0.353930 0.935245 0.013925
C16   C     C_R   0.719956 0.349126 0.064590 -0.012226
C17   C     C_R   0.712961 0.904332 0.955665 0.040454
C18   C     C_R   0.266762 0.784111 0.019694 -0.000477
C19   C     C_R   0.242385 0.461495 0.952466 0.037409
C20   C     C_R   0.779921 0.316806 0.027525 0.000901
C21   C     C_R   0.703323 0.939479 0.025203 -0.013244
C22   C     C_R   0.277585 0.820742 0.950324 0.011750
C23   C     C_R   0.230966 0.492163 0.023106 -0.030313
C24   C     C_R   0.790295 0.349378 0.958979 0.003392
C25   C     C_R   0.801446 0.820553 0.063157 -0.031965
C26   C     C_R   0.182265 0.964210 0.962068 -0.029546
C27   C     C_R   0.289827 0.309408 0.062036 -0.035187
C28   C     C_R   0.678565 0.451977 0.958509 -0.037824
C29   C     C_R   0.814497 0.790171 0.990673 -0.164193
C30   C     C_R   0.167763 0.916921 0.028527 -0.152485
C31   C     C_R   0.301586 0.278267 0.989912 -0.155308
C32   C     C_R   0.667137 0.410777 0.027314 -0.159190
C33   C     C_3   0.675462 0.013128 0.927047 -0.120463
C34   C     C_3   0.341074 0.744868 0.028889 -0.138013
C35   C     C_3   0.170037 0.497030 0.930654 -0.121617
C36   C     C_3   0.846767 0.248411 0.033351 -0.137381
C37   C     C_3   0.671511 0.056969 0.004189 -0.286435
C38   C     C_3   0.353612 0.790057 0.952921 -0.267300
C39   C     C_3   0.157792 0.530538 0.008110 -0.270943
C40   C     C_3   0.861252 0.291787 0.956623 -0.261430
C41   C     C_R   0.750359 0.908962 0.079015 0.009908
C42   C     C_R   0.240071 0.917855 0.921714 0.020438
C43   C     C_R   0.252662 0.416758 0.078285 0.014020
C44   C     C_R   0.741950 0.419607 0.921733 0.019218
C45   C     C_R   0.529096 0.154767 0.148844 0.543690
C46   C     C_R   0.465678 0.156285 0.855181 0.533796
C47   C     C_R   0.030688 0.655489 0.147416 0.557981
C48   C     C_R   0.968493 0.656324 0.853286 0.545327
C49   C     C_R   0.500745 0.170426 0.577927 0.011536
C50   C     C_R   0.518878 0.160076 0.429652 0.030830
C51   C     C_R   0.990614 0.666714 0.573469 0.018789
C52   C     C_R   0.001498 0.656307 0.424021 0.015520
C53   C     C_R   0.538494 0.076164 0.547160 -0.011305
C54   C     C_R   0.550578 0.073520 0.474386 -0.005907
C55   C     C_R   0.007226 0.559533 0.538936 0.027414
C56   C     C_R   0.009675 0.552050 0.466201 0.017911
C57   C     C_R   0.484596 0.258774 0.460320 -0.165818
C58   C     C_R   0.479603 0.266936 0.534477 -0.165569
C59   C     C_R   0.974889 0.760970 0.456435 -0.163188
C60   C     C_R   0.971366 0.767125 0.531350 -0.165629
C61   C     C_3   0.523828 0.943876 0.548953 -0.131445
C62   C     C_3   0.547118 0.937088 0.472278 -0.132429
C63   C     C_3   0.065679 0.471520 0.550445 -0.145313
C64   C     C_3   0.065591 0.456174 0.469505 -0.126966
C65   C     C_R   0.781517 0.843085 0.562146 0.003807
C66   C     C_R   0.223235 0.858306 0.436590 -0.002648
C67   C     C_R   0.282481 0.337554 0.561203 0.008689
C68   C     C_R   0.724735 0.362591 0.434846 -0.000040
C69   C     C_R   0.828671 0.917358 0.527036 -0.003203
C70   C     C_R   0.165528 0.875670 0.481352 0.005482
C71   C     C_R   0.331672 0.405744 0.524927 -0.010597
C72   C     C_R   0.667555 0.375369 0.480523 0.006363
C73   C     C_R   0.822229 0.942084 0.455767 0.003305
C74   C     C_R   0.173886 0.892216 0.554149 0.030445
C75   C     C_R   0.325023 0.431541 0.453488 0.004387
C76   C     C_R   0.677048 0.391958 0.553159 0.009502
C77   C     C_R   0.726340 0.803302 0.445173 -0.055639
C78   C     C_R   0.296362 0.846497 0.543129 -0.046569
C79   C     C_R   0.226030 0.300773 0.444291 -0.053855
C80   C     C_R   0.801743 0.363544 0.537733 -0.055806
C81   C     C_R   0.734179 0.775246 0.518956 -0.162518
C82   C     C_R   0.288741 0.839112 0.468853 -0.179516
C83   C     C_R   0.233222 0.272871 0.518385 -0.161120
C84   C     C_R   0.791936 0.353785 0.464257 -0.175261
C85   C     C_3   0.854491 0.041535 0.545075 -0.246211
C86   C     C_3   0.107912 0.967527 0.479357 -0.254882
C87   C     C_3   0.359503 0.527886 0.542408 -0.242787
C88   C     C_3   0.610269 0.467997 0.479448 -0.260159
C89   C     C_R   0.741751 0.966573 0.148596 0.540155
C90   C     C_R   0.258790 0.973617 0.854001 0.547588
C91   C     C_R   0.242769 0.464594 0.149778 0.540588
C92   C     C_R   0.758358 0.471705 0.852945 0.549744
C93   C     C_3   0.848395 0.068177 0.466389 -0.258637
C94   C     C_3   0.112986 0.976857 0.559702 -0.268872
C95   C     C_3   0.354505 0.555033 0.463927 -0.259579
C96   C     C_3   0.615708 0.475854 0.559563 -0.265510
C97   C     C_R   0.764727 0.900096 0.416580 0.014156
C98   C     C_R   0.241022 0.893761 0.584419 0.028646
C99   C     C_R   0.265518 0.395823 0.415442 0.009967
C100  C     C_R   0.744790 0.399444 0.581674 0.005496
C101  C     C_R   0.712631 0.336297 0.360002 0.563736
C102  C     C_R   0.289066 0.329534 0.640077 0.576608
C103  C     C_R   0.212486 0.835871 0.360279 0.565527
C104  C     C_R   0.788854 0.830661 0.640132 0.568137
C105  C     C_R   0.534702 0.156216 0.354637 0.550096
C106  C     C_R   0.468051 0.157348 0.647059 0.545305
C107  C     C_R   0.031959 0.656017 0.353179 0.545565
C108  C     C_R   0.967271 0.657401 0.646472 0.553185
C109  C     C_R   0.743475 0.967821 0.352601 0.537331
C110  C     C_R   0.256851 0.965789 0.648202 0.546703
C111  C     C_R   0.243722 0.466842 0.352344 0.527278
C112  C     C_R   0.757814 0.467544 0.647201 0.540727
C113  C     C_R   0.485378 0.167502 0.930808 -0.009802
C114  C     C_R   0.492846 0.160771 0.080047 0.017300
C115  C     C_R   0.994991 0.667634 0.926525 0.004286
C116  C     C_R   0.999690 0.664743 0.076015 0.019263
C117  C     C_R   0.480547 0.278650 0.971110 0.008348
C118  C     C_R   0.479353 0.272536 0.046788 0.014294
C119  C     C_R   0.995226 0.780043 0.965010 0.009596
C120  C     C_R   0.992387 0.777539 0.040703 0.009896
C121  C     C_R   0.491417 0.053595 0.039788 -0.150197
C122  C     C_R   0.490294 0.057303 0.966920 -0.188421
C123  C     C_R   0.996829 0.557141 0.036644 -0.161630
C124  C     C_R   0.998272 0.558644 0.963766 -0.177351
Cr1   Cr    Cr6+3 0.772010 0.169670 0.250090 1.046474
Cr2   Cr    Cr6+3 0.227990 0.169670 0.749910 1.038007
Cr3   Cr    Cr6+3 0.272010 0.669670 0.250090 1.053447
Cr4   Cr    Cr6+3 0.727990 0.669670 0.749910 1.066065
Cr5   Cr    Cr6+3 0.615000 0.323260 0.249260 1.028577
Cr6   Cr    Cr6+3 0.385000 0.323260 0.750740 1.014212
Cr7   Cr    Cr6+3 0.115000 0.823260 0.249260 1.034673
Cr8   Cr    Cr6+3 0.885000 0.823260 0.750740 1.011529
Cr9   Cr    Cr6+3 0.616710 0.010760 0.250840 1.069894
Cr10  Cr    Cr6+3 0.383290 0.010760 0.749160 1.050600
Cr11  Cr    Cr6+3 0.116710 0.510760 0.250840 1.062072
Cr12  Cr    Cr6+3 0.883290 0.510760 0.749160 1.044968
H1    H     H_    0.502656 0.966210 0.063087 0.175510
H2    H     H_    0.494605 0.971360 0.938787 0.145797
H3    H     H_    0.002322 0.469654 0.061488 0.171347
H4    H     H_    0.001128 0.471932 0.936359 0.142604
H5    H     H_    0.462721 0.329755 0.427179 0.127524
H6    H     H_    0.454717 0.344203 0.558019 0.137268
H7    H     H_    0.961785 0.839637 0.424640 0.131614
H8    H     H_    0.954807 0.850223 0.556606 0.134915
H9    H     H_    0.050924 0.389951 0.581409 0.160300
H10   H     H_    0.115125 0.481516 0.442787 0.138460
H11   H     H_    0.467323 0.930476 0.555512 0.165622
H12   H     H_    0.599639 0.897530 0.464933 0.129030
H13   H     H_    0.701921 0.706608 0.542694 0.130652
H14   H     H_    0.333540 0.816446 0.436582 0.167113
H15   H     H_    0.199674 0.206418 0.542351 0.120624
H16   H     H_    0.836821 0.336131 0.430354 0.157706
H17   H     H_    0.909430 0.042855 0.564758 0.152936
H18   H     H_    0.057852 0.933627 0.459344 0.151742
H19   H     H_    0.414074 0.528435 0.562884 0.152801
H20   H     H_    0.559677 0.437369 0.458880 0.149347
H21   H     H_    0.816569 0.094002 0.578075 0.170135
H22   H     H_    0.123921 0.052212 0.454328 0.181077
H23   H     H_    0.321103 0.579063 0.575190 0.203117
H24   H     H_    0.627369 0.552453 0.455103 0.172672
H25   H     H_    0.806357 0.133054 0.453962 0.154714
H26   H     H_    0.124675 0.070012 0.578379 0.157885
H27   H     H_    0.314247 0.622661 0.451565 0.162067
H28   H     H_    0.626762 0.569212 0.578273 0.171448
H29   H     H_    0.899493 0.083573 0.439806 0.173520
H30   H     H_    0.068351 0.934205 0.587718 0.145397
H31   H     H_    0.406080 0.566529 0.437492 0.154959
H32   H     H_    0.571444 0.432527 0.587758 0.148823
H33   H     H_    0.486405 0.411548 0.884165 0.162658
H34   H     H_    0.458034 0.374152 0.144833 0.145159
H35   H     H_    0.007405 0.904358 0.874957 0.152784
H36   H     H_    0.971263 0.888425 0.135596 0.155550
H37   H     H_    0.980613 0.087200 0.942215 0.136756
H38   H     H_    0.965251 0.079650 0.072901 0.133340
H39   H     H_    0.459159 0.586464 0.956399 0.136370
H40   H     H_    0.448213 0.569955 0.087243 0.128880
H41   H     H_    0.855180 0.725789 0.977048 0.118444
H42   H     H_    0.123910 0.955115 0.057631 0.164026
H43   H     H_    0.329255 0.195210 0.976393 0.108492
H44   H     H_    0.618572 0.435450 0.053675 0.159359
H45   H     H_    0.137568 0.419677 0.911392 0.152122
H46   H     H_    0.838438 0.148852 0.037659 0.127023
H47   H     H_    0.623739 0.989127 0.903598 0.134367
H48   H     H_    0.345371 0.645102 0.034154 0.130489
H49   H     H_    0.706960 0.131550 0.017190 0.126026
H50   H     H_    0.386890 0.872203 0.949257 0.146202
H51   H     H_    0.148655 0.628581 0.018720 0.135491
H52   H     H_    0.903253 0.360376 0.952426 0.140831
H53   H     H_    0.618871 0.068252 0.025479 0.144626
H54   H     H_    0.366724 0.716117 0.914570 0.144921
H55   H     H_    0.121127 0.467866 0.034868 0.150689
H56   H     H_    0.864461 0.216246 0.917185 0.158320
O1    O     O_R   0.787520 0.042810 0.170440 -0.528693
O2    O     O_R   0.212480 0.042810 0.829560 -0.509395
O3    O     O_R   0.287520 0.542810 0.170440 -0.529807
O4    O     O_R   0.712480 0.542810 0.829560 -0.511085
O5    O     O_R   0.556610 0.252880 0.323980 -0.524242
O6    O     O_R   0.443390 0.252880 0.676020 -0.527899
O7    O     O_R   0.056610 0.752880 0.323980 -0.518109
O8    O     O_R   0.943390 0.752880 0.676020 -0.529474
O9    O     O_R   0.545950 0.051210 0.330860 -0.488057
O10   O     O_R   0.454050 0.051210 0.669140 -0.499076
O11   O     O_R   0.045950 0.551210 0.330860 -0.501625
O12   O     O_R   0.954050 0.551210 0.669140 -0.488483
O13   O     O_R   0.681390 0.959480 0.325510 -0.490047
O14   O     O_R   0.318610 0.959480 0.674490 -0.482642
O15   O     O_R   0.181390 0.459480 0.325510 -0.499176
O16   O     O_R   0.818610 0.459480 0.674490 -0.487374
O17   O     O_3   0.667900 0.167900 0.250060 -0.312192
O18   O     O_3   0.332100 0.167900 0.749940 -0.309752
O19   O     O_3   0.167900 0.667900 0.250060 -0.313321
O20   O     O_3   0.832100 0.667900 0.749940 -0.313000
O21   O     O_R   0.765640 0.292100 0.175020 -0.466960
O22   O     O_R   0.234360 0.292100 0.824980 -0.480232
O23   O     O_R   0.265640 0.792100 0.175020 -0.458547
O24   O     O_R   0.734360 0.792100 0.824980 -0.475702
O25   O     O_R   0.670190 0.408840 0.168540 -0.497237
O26   O     O_R   0.329810 0.408840 0.831460 -0.499932
O27   O     O_R   0.170190 0.908840 0.168540 -0.500155
O28   O     O_R   0.829810 0.908840 0.831460 -0.489863
O29   O     O_R   0.556620 0.251410 0.175160 -0.536149
O30   O     O_R   0.443380 0.251410 0.824840 -0.533575
O31   O     O_R   0.056620 0.751410 0.175160 -0.536675
O32   O     O_R   0.943380 0.751410 0.824840 -0.531969
O33   O     O_R   0.545960 0.049620 0.170320 -0.496465
O34   O     O_R   0.454040 0.049620 0.829680 -0.513276
O35   O     O_R   0.045960 0.549620 0.170320 -0.494396
O36   O     O_R   0.954040 0.549620 0.829680 -0.516467
O37   O     O_R   0.681390 0.958010 0.176690 -0.488257
O38   O     O_R   0.318610 0.958010 0.823310 -0.498336
O39   O     O_R   0.181390 0.458010 0.176690 -0.492849
O40   O     O_R   0.818610 0.458010 0.823310 -0.493965
O41   O     O_R   0.787510 0.044390 0.330970 -0.526400
O42   O     O_R   0.212490 0.044390 0.669030 -0.539231
O43   O     O_R   0.287510 0.544390 0.330970 -0.526457
O44   O     O_R   0.712490 0.544390 0.669030 -0.529172
O45   O     O_R   0.765630 0.293570 0.323840 -0.493324
O46   O     O_R   0.234370 0.293570 0.676160 -0.485177
O47   O     O_R   0.265630 0.793570 0.323840 -0.481431
O48   O     O_R   0.734370 0.793570 0.676160 -0.460663
O49   O     O_R   0.670190 0.410420 0.329080 -0.476180
O50   O     O_R   0.329810 0.410420 0.670920 -0.496194
O51   O     O_R   0.170190 0.910420 0.329080 -0.473133
O52   O     O_R   0.829810 0.910420 0.670920 -0.507931
C125  C     C_1   0.566852 0.876231 0.599922 0.219236
N1    N     N_1   0.599008 0.821500 0.641035 -0.257145
C126  C     C_1   0.494175 0.883080 0.424350 0.231448
N2    N     N_1   0.453707 0.840034 0.385688 -0.287020
C127  C     C_1   0.129397 0.531316 0.577926 0.188354
N3    N     N_1   0.179174 0.578866 0.599628 -0.288189
C128  C     C_1   0.036246 0.338618 0.446554 0.235873
N4    N     N_1   0.012388 0.246627 0.428879 -0.309891
C129  C     C_1   0.677517 0.740362 0.399112 0.187410
N5    N     N_1   0.638848 0.693944 0.359752 -0.270892
C130  C     C_1   0.359165 0.801337 0.576851 0.195109
N6    N     N_1   0.407825 0.762826 0.606142 -0.316283
C131  C     C_1   0.181497 0.233343 0.396216 0.202971
N7    N     N_1   0.147253 0.182289 0.354636 -0.244796
C132  C     C_1   0.870590 0.336489 0.565484 0.231701
N8    N     N_1   0.925249 0.312464 0.588169 -0.306381
C133  C     C_1   0.836607 0.757251 0.120144 0.201898
N9    N     N_1   0.863751 0.706209 0.166509 -0.280357
C134  C     C_1   0.144499 0.074827 0.945055 0.234247
N10   N     N_1   0.115020 0.163904 0.931844 -0.328448
C135  C     C_1   0.313267 0.228841 0.117711 0.196587
N11   N     N_1   0.331975 0.164076 0.162373 -0.253285
C136  C     C_1   0.628550 0.541243 0.933312 0.238841
N12   N     N_1   0.589967 0.614527 0.912877 -0.312473
C137  C     C_1   0.717364 0.090635 0.880041 0.229756
N13   N     N_1   0.749584 0.150891 0.841963 -0.278270
C138  C     C_1   0.379162 0.812459 0.084672 0.219342
N14   N     N_1   0.408025 0.863804 0.130137 -0.251980
C139  C     C_1   0.169395 0.601094 0.881888 0.227548
N15   N     N_1   0.168448 0.682462 0.843088 -0.282256
C140  C     C_1   0.892865 0.298104 0.089240 0.218283
N16   N     N_1   0.928164 0.334970 0.134819 -0.272358

loop_
_geom_bond_atom_site_label_1
_geom_bond_atom_site_label_2
_ccdc_geom_bond_type
Cr12  O20   S    
Cr4   O44   S    
Cr11  O19   S    
C55   C56   A    
C88   C96   S    
C67   C83   A    
C133  N9    T    
C98   C110  S    
C116  C123  A    
C7    H35   S    
C9    H37   S    
Cr9   O17   S    
C5    C117  A    
C14   C18   A    
C37   H53   S    
C140  N16   T    
Cr8   O20   S    
C73   C93   S    
C80   C84   A    
C76   C96   S    
C94   H30   S    
C96   H28   S    
C57   C58   A    
C68   C84   A    
C75   C95   S    
C134  N10   T    
C74   C98   A    
C22   C42   A    
C53   C54   A    
C105  O9    A    
Cr3   O47   S    
Cr2   O2    S    
Cr12  O40   S    
C26   C42   A    
C127  N3    T    
C50   C54   A    
C28   C136  S    
C17   C33   S    
C4    O24   A    
C78   C130  S    
Cr10  O34   S    
C13   C29   A    
C86   H18   S    
C114  C118  A    
Cr9   O33   S    
C5    C11   A    
C95   H27   S    
C6    C12   A    
C129  N5    T    
C48   O36   A    
C23   C39   S    
Cr10  O14   S    
C66   C82   A    
C92   O40   A    
C61   C125  S    
Cr10  O18   S    
C22   C38   S    
C123  H3    S    
Cr7   O7    S    
Cr8   O8    S    
C25   C133  S    
C5    H33   S    
C25   C29   A    
Cr7   O27   S    
C131  N7    T    
Cr7   O19   S    
C121  H1    S    
C4    C13   S    
Cr6   O26   S    
C58   H6    S    
C16   C32   A    
C64   H10   S    
Cr5   O25   S    
Cr2   O22   S    
C15   C19   A    
C114  C121  A    
C53   C61   S    
C45   C114  S    
Cr8   O52   S    
C37   H49   S    
C113  C122  A    
C20   C24   A    
C52   C107  S    
C51   C108  S    
C38   H54   S    
C55   C63   S    
C78   C98   A    
C50   C105  S    
Cr1   O21   S    
C96   H32   S    
C34   H48   S    
C102  O50   A    
C77   C81   A    
C101  O49   A    
C135  N11   T    
C94   H26   S    
C36   C140  S    
C51   C55   A    
Cr11  O39   S    
C44   C92   S    
C3    O27   A    
C68   C72   A    
C33   H47   S    
C106  O6    A    
C39   H51   S    
C105  O5    A    
Cr12  O36   S    
C59   H7    S    
C59   C60   A    
C29   H41   S    
C137  N13   T    
C80   C100  A    
Cr9   O9    S    
C107  O11   A    
C85   H21   S    
C14   C30   A    
C28   C32   A    
C75   C99   A    
C72   C88   S    
Cr10  O10   S    
C3    O23   A    
C83   H15   S    
C81   H13   S    
C86   C94   S    
C47   C116  S    
C71   C75   A    
C100  C112  S    
C102  O46   A    
C39   H55   S    
C27   C31   A    
C79   C131  S    
C109  O13   A    
C7    C119  A    
C76   C100  A    
C123  C124  A    
Cr6   O30   S    
Cr1   O1    S    
C68   C101  S    
C112  O16   A    
Cr5   O29   S    
Cr2   O18   S    
C107  O7    A    
C25   C41   A    
C57   H5    S    
Cr12  O16   S    
Cr1   O17   S    
C19   C23   A    
Cr11  O11   S    
C26   C134  S    
C48   O32   A    
C4    O28   A    
C38   H50   S    
C101  O45   A    
C15   C31   A    
C28   C44   A    
C43   C91   S    
C49   C58   A    
C116  C120  A    
C91   O39   A    
C74   C94   S    
C42   C90   S    
C34   C38   S    
C108  O8    A    
C35   C39   S    
Cr2   O46   S    
C70   C74   A    
C52   C59   A    
Cr3   O3    S    
C130  N6    T    
C106  O10   A    
C64   C128  S    
C97   C109  S    
C78   C82   A    
C103  O51   A    
C85   C93   S    
C40   H56   S    
C36   C40   S    
C16   C20   A    
C99   C111  S    
C56   C64   S    
C139  N15   T    
C30   H42   S    
C77   C129  S    
C72   C76   A    
C110  O14   A    
C1    C16   S    
C85   H17   S    
C47   O35   A    
C119  C120  A    
C69   C73   A    
C2    C15   S    
C62   H12   S    
C122  H2    S    
C121  C122  A    
C82   H14   S    
C3    C14   S    
Cr11  O35   S    
Cr4   O24   S    
C48   C115  S    
C71   C87   S    
C89   O1    A    
C84   H16   S    
Cr3   O19   S    
C109  O41   A    
C63   C127  S    
C93   H25   S    
C73   C97   A    
C115  C119  A    
C111  O43   A    
C1    O21   A    
C24   C44   A    
C21   C41   A    
C34   C138  S    
Cr6   O18   S    
C36   H46   S    
Cr5   O17   S    
C132  N8    T    
C70   C86   S    
C104  O52   A    
C111  O15   A    
Cr12  O12   S    
C69   C85   S    
C8    C120  A    
Cr11  O15   S    
C6    H34   S    
C113  C117  A    
C79   C99   A    
C90   O2    A    
C7    C9    A    
C27   C43   A    
C47   O31   A    
C87   C95   S    
Cr7   O51   S    
C115  C124  A    
Cr8   O28   S    
C46   C113  S    
C33   C137  S    
C41   C89   S    
Cr8   O32   S    
C50   C57   A    
Cr3   O43   S    
C66   C103  S    
C124  H4    S    
C8    C10   A    
C32   H44   S    
Cr4   O4    S    
Cr10  O38   S    
C125  N1    T    
C92   O4    A    
Cr9   O37   S    
C95   H31   S    
C1    O25   A    
C126  N2    T    
C86   H22   S    
C2    O22   A    
C49   C106  S    
C40   H52   S    
C87   H19   S    
C13   C17   A    
C128  N4    T    
C35   H45   S    
C54   C62   S    
C91   O3    A    
C11   H39   S    
C46   O30   A    
C12   H40   S    
C136  N12   T    
C45   O29   A    
C46   O34   A    
C51   C60   A    
C18   C22   A    
C45   O33   A    
C108  O12   A    
Cr4   O48   S    
C112  O44   A    
C117  C118  A    
C60   H8    S    
C79   C83   A    
Cr6   O50   S    
Cr3   O23   S    
C62   C126  S    
C66   C70   A    
Cr5   O49   S    
Cr1   O45   S    
C18   C34   S    
C65   C69   A    
C52   C56   A    
Cr6   O6    S    
C19   C35   S    
C24   C40   S    
C87   H23   S    
C9    C10   A    
C67   C71   A    
C88   H24   S    
C61   H11   S    
C61   C62   S    
Cr2   O42   S    
C33   C37   S    
Cr4   O20   S    
C49   C53   A    
Cr1   O41   S    
C110  O42   A    
C93   H29   S    
C63   C64   S    
C20   C36   S    
C8    H36   S    
C21   C37   S    
C67   C102  S    
C80   C132  S    
C103  O47   A    
C35   C139  S    
C31   H43   S    
C10   H38   S    
C2    O26   A    
C104  O48   A    
C65   C81   A    
C90   O38   A    
Cr7   O31   S    
C77   C97   A    
C88   H20   S    
C65   C104  S    
C89   O37   A    
C23   C43   A    
Cr9   O13   S    
C63   H9    S    
Cr5   O5    S    
C138  N14   T    
C11   C12   A    
C6    C118  A    
C27   C135  S    
C26   C30   A    
C17   C21   A    
