data_mof_unit_12988.cif
_audit_creation_date              2012-12-10T17:19:54-0500
_audit_creation_method            fapswitch 2.2
_symmetry_space_group_name_H-M    P1
_symmetry_Int_Tables_number       1
_space_group_crystal_system       triclinic
_cell_length_a                    9.613583
_cell_length_b                    10.775022
_cell_length_c                    15.475467
_cell_angle_alpha                 87.454595
_cell_angle_beta                  74.265601
_cell_angle_gamma                 89.993531
_cell_volume                      1541.34174574

loop_
_atom_site_label
_atom_site_type_symbol
_atom_type_description
_atom_site_fract_x
_atom_site_fract_y
_atom_site_fract_z
_atom_type_partial_charge
C1    C     C_R   0.998710 0.262630 0.503014 0.789722
C2    C     C_R   0.669995 0.467032 0.906144 0.088725
C3    C     C_R   0.765907 0.420293 0.954538 0.171331
C4    C     C_R   0.520235 0.477516 0.950419 0.065944
C5    C     C_R   0.471525 0.456484 0.045410 0.078070
C6    C     C_R   0.570893 0.410230 0.091380 -0.223041
C7    C     C_R   0.714513 0.390189 0.046118 -0.249480
C8    C     C_R   0.417055 0.504163 0.902346 -0.225037
C9    C     C_R   0.272185 0.517162 0.946299 -0.232415
C10   C     C_R   0.224970 0.507031 0.039615 0.140760
C11   C     C_R   0.324002 0.479029 0.090584 0.090360
C12   C     C_R   0.918234 0.497030 0.672040 0.773927
C13   C     C_R   0.079038 0.525761 0.082266 -0.268068
C14   C     C_R   0.028795 0.521510 0.175855 0.145762
C15   C     C_R   0.272648 0.478590 0.184911 -0.310787
C16   C     C_R   0.080303 0.120260 0.646799 -0.184468
C17   C     C_R   0.121659 0.051092 0.713791 -0.137304
C18   C     C_R   0.122374 0.922029 0.713557 -0.132790
C19   C     C_R   0.081543 0.861304 0.646402 -0.173765
C20   C     C_R   0.041228 0.929510 0.576926 0.099403
C21   C     C_R   0.040855 0.060794 0.577072 0.097616
C22   C     C_R   0.995883 0.128443 0.509114 -0.099908
C23   C     C_R   0.998818 0.737060 0.502759 0.766958
C24   C     C_R   0.945881 0.067577 0.445433 -0.193958
C25   C     C_R   0.945966 0.939554 0.445362 -0.207438
C26   C     C_R   0.996135 0.870497 0.508949 -0.088310
C27   C     C_R   0.695144 0.668478 0.383495 -0.111213
C28   C     C_R   0.647805 0.753415 0.327952 -0.220429
C29   C     C_R   0.504718 0.753534 0.327490 -0.201581
C30   C     C_R   0.407855 0.669397 0.383086 -0.138721
C31   C     C_R   0.450443 0.583204 0.442684 0.206191
C32   C     C_R   0.599846 0.582961 0.442748 0.207766
C33   C     C_R   0.549912 0.421222 0.554795 -0.060277
C34   C     C_R   0.081760 0.500329 0.327576 0.797261
C35   C     C_R   0.402112 0.421291 0.554807 -0.065197
C36   C     C_R   0.872109 0.480694 0.770346 -0.045453
C37   C     C_R   0.126701 0.499868 0.228178 -0.052368
C38   C     C_R   0.912330 0.402826 0.910429 -0.218580
C39   C     C_R   0.965022 0.432048 0.818650 -0.212766
C40   C     C_R   0.727504 0.501779 0.814796 -0.246169
Cu1   Cu    Cu3+1 0.140660 0.499990 0.500010 0.922303
Cu2   Cu    Cu3+1 0.859340 0.500010 0.499990 0.940952
H1    H     H_    0.786254 0.351181 0.083141 0.141492
H2    H     H_    0.003554 0.546403 0.042894 0.146746
H3    H     H_    0.909638 0.119710 0.394198 0.151610
H4    H     H_    0.076882 0.220053 0.651547 0.136292
H5    H     H_    0.151423 0.097840 0.766775 0.132744
H6    H     H_    0.152803 0.868605 0.766348 0.135890
H7    H     H_    0.079306 0.760943 0.650822 0.153475
H8    H     H_    0.909831 0.894097 0.394045 0.136406
H9    H     H_    0.585257 0.356593 0.599786 0.140679
H10   H     H_    0.808142 0.672161 0.375746 0.201448
H11   H     H_    0.723606 0.818094 0.283687 0.143390
H12   H     H_    0.345763 0.465696 0.226258 0.168731
H13   H     H_    0.468446 0.818602 0.283063 0.152623
H14   H     H_    0.301476 0.676289 0.375891 0.197750
H15   H     H_    0.327352 0.356782 0.599818 0.130578
H16   H     H_    0.196819 0.537381 0.906765 0.148224
H17   H     H_    0.985514 0.364403 0.946664 0.140090
H18   H     H_    0.077043 0.413713 0.785209 0.145333
H19   H     H_    0.661986 0.546305 0.776312 0.150836
H20   H     H_    0.539601 0.383403 0.161975 0.147043
H21   H     H_    0.443732 0.511166 0.830035 0.142174
N1    N     N_R   0.648320 0.501210 0.499140 -0.199639
N2    N     N_R   0.352470 0.501290 0.499110 -0.197097
O1    O     O_R   0.118810 0.319640 0.500010 -0.577207
O2    O     O_R   0.881240 0.319660 0.500000 -0.573757
O3    O     O_R   0.055570 0.499980 0.629840 -0.594320
O4    O     O_R   0.818000 0.500010 0.629830 -0.578678
O5    O     O_R   0.118760 0.680340 0.500000 -0.600531
O6    O     O_R   0.881190 0.680360 0.499990 -0.592638
O7    O     O_R   0.182000 0.499990 0.370170 -0.606217
O8    O     O_R   0.944430 0.500020 0.370160 -0.562418
N3    N     N_3   0.879077 0.543122 0.216783 -0.581432
H22   H     H_    0.818688 0.472465 0.199570 0.220983
H23   H     H_    0.851473 0.627170 0.189676 0.215871

loop_
_geom_bond_atom_site_label_1
_geom_bond_atom_site_label_2
_ccdc_geom_bond_type
C8    C9    A    
C12   O4    A    
C16   C21   A    
Cu2   N1    S    
C34   C37   S    
Cu1   Cu2   S    
C19   C20   A    
C4    C8    A    
C12   O3    A    
N3    H23   S    
C24   H3    S    
C14   N3    S    
C28   C29   A    
C5    C11   A    
C3    C7    A    
C5    C6    A    
C35   N2    A    
C9    H16   S    
C23   C26   S    
C25   H8    S    
C15   C37   A    
C1    O2    A    
C11   C15   A    
C3    C38   A    
C16   C17   A    
C7    H1    S    
C12   C36   S    
C9    C10   A    
C1    C22   S    
C21   C22   A    
C23   O5    A    
C17   C18   A    
Cu1   O3    S    
C38   C39   A    
N3    H22   S    
C15   H12   S    
C23   O6    A    
C36   C40   A    
C24   C25   A    
C32   N1    A    
C16   H4    S    
C18   C19   A    
Cu1   N2    S    
C34   O8    A    
C25   C26   A    
C30   H14   S    
Cu2   O4    S    
C40   H19   S    
C2    C4    A    
C29   C30   A    
C19   H7    S    
C31   C32   A    
C1    O1    A    
Cu1   O1    S    
Cu1   O7    S    
Cu2   O2    S    
C22   C24   A    
C34   O7    A    
C27   H10   S    
C31   N2    A    
Cu2   O8    S    
C27   C32   A    
C36   C39   A    
C17   H5    S    
C4    C5    A    
C10   C13   A    
C18   H6    S    
C28   H11   S    
C6    C7    A    
C33   H9    S    
C29   H13   S    
C35   H15   S    
C6    H20   S    
C2    C3    A    
C14   C37   A    
C30   C31   A    
C20   C26   A    
C33   N1    A    
C39   H18   S    
Cu2   O6    S    
C33   C35   A    
C10   C11   A    
C8    H21   S    
C38   H17   S    
C2    C40   A    
C20   C21   A    
C27   C28   A    
C13   C14   A    
C13   H2    S    
Cu1   O5    S    
