data_mof_unit_43147.cif
_audit_creation_date              2012-12-11T14:29:58-0500
_audit_creation_method            fapswitch 2.2
_symmetry_space_group_name_H-M    P1
_symmetry_Int_Tables_number       1
_space_group_crystal_system       triclinic
_cell_length_a                    12.626301
_cell_length_b                    12.62629
_cell_length_c                    26.906855
_cell_angle_alpha                 89.999584
_cell_angle_beta                  90.000646
_cell_angle_gamma                 120.001018
_cell_volume                      3714.84769807

loop_
_atom_site_label
_atom_site_type_symbol
_atom_type_description
_atom_site_fract_x
_atom_site_fract_y
_atom_site_fract_z
_atom_type_partial_charge
C1    C     C_R   0.556776 0.457661 0.821771 0.557242
C2    C     C_R   0.457661 0.556771 0.178231 0.557264
C3    C     C_R   0.997155 0.308672 0.474292 -0.062003
C4    C     C_R   0.311672 0.003126 0.025742 -0.062003
C5    C     C_R   0.691340 0.688468 0.474281 -0.061990
C6    C     C_R   0.308613 0.997011 0.525725 -0.062001
C7    C     C_R   0.002801 0.311498 0.974284 -0.062011
C8    C     C_R   0.688381 0.691411 0.525733 -0.061990
C9    C     C_R   0.308713 0.997228 0.974290 -0.062010
C10   C     C_R   0.003054 0.311637 0.525744 -0.062012
C11   C     C_R   0.688511 0.691307 0.974288 -0.061997
C12   C     C_R   0.443229 0.900888 0.321770 0.557249
C13   C     C_R   0.099108 0.542337 0.178231 0.557249
C14   C     C_R   0.996597 0.500917 0.973871 -0.050299
C15   C     C_R   0.504297 0.003341 0.526134 -0.050294
C16   C     C_R   0.499082 0.495686 0.973871 -0.050298
C17   C     C_R   0.996672 0.500963 0.526140 -0.050297
C18   C     C_R   0.504325 0.003405 0.973873 -0.050295
C19   C     C_R   0.499041 0.495710 0.526137 -0.050297
C20   C     C_R   0.500947 0.996641 0.473865 -0.050296
C21   C     C_R   0.900891 0.443232 0.678231 0.557263
C22   C     C_R   0.003294 0.504267 0.026141 -0.050294
C23   C     C_R   0.495696 0.499062 0.473867 -0.050301
C24   C     C_R   0.500982 0.996704 0.026142 -0.050292
C25   C     C_R   0.003370 0.504302 0.473871 -0.050298
C26   C     C_R   0.495727 0.499029 0.026141 -0.050296
C27   C     C_R   0.991841 0.691253 0.974174 0.405502
C28   C     C_R   0.699458 0.008238 0.525824 0.405487
C29   C     C_R   0.308735 0.300597 0.974173 0.405488
C30   C     C_R   0.991730 0.691203 0.525819 0.405500
C31   C     C_R   0.699407 0.008137 0.974174 0.405487
C32   C     C_R   0.542339 0.099113 0.821771 0.557236
C33   C     C_R   0.308787 0.300537 0.525821 0.405473
C34   C     C_R   0.691249 0.991818 0.474176 0.405500
C35   C     C_R   0.008254 0.699460 0.025823 0.405483
C36   C     C_R   0.300582 0.308742 0.474172 0.405488
C37   C     C_R   0.691201 0.991719 0.025822 0.405481
C38   C     C_R   0.008147 0.699405 0.474171 0.405505
C39   C     C_R   0.300525 0.308798 0.025821 0.405478
C40   C     C_R   0.963915 0.578917 0.896479 -0.110789
C41   C     C_R   0.615016 0.036106 0.603522 -0.110796
C42   C     C_R   0.421081 0.385012 0.896478 -0.110798
C43   C     C_R   0.556772 0.457660 0.678230 0.557263
C44   C     C_R   0.963877 0.578911 0.603522 -0.110785
C45   C     C_R   0.614997 0.036076 0.896479 -0.110805
C46   C     C_R   0.421089 0.384985 0.603522 -0.110778
C47   C     C_R   0.578920 0.963905 0.396478 -0.110806
C48   C     C_R   0.036102 0.615010 0.103524 -0.110792
C49   C     C_R   0.385003 0.421077 0.396477 -0.110778
C50   C     C_R   0.578911 0.963879 0.103524 -0.110787
C51   C     C_R   0.036073 0.614987 0.396478 -0.110804
C52   C     C_R   0.384980 0.421089 0.103523 -0.110773
C53   C     C_R   0.037251 0.518721 0.129411 -0.008549
C54   C     C_R   0.900887 0.443226 0.821770 0.557243
C55   C     C_R   0.481464 0.962728 0.370593 -0.008557
C56   C     C_R   0.481271 0.518530 0.129411 -0.008542
C57   C     C_R   0.037286 0.518722 0.370598 -0.008576
C58   C     C_R   0.481482 0.962747 0.129412 -0.008536
C59   C     C_R   0.481273 0.518550 0.370595 -0.008565
C60   C     C_R   0.518732 0.037273 0.629406 -0.008548
C61   C     C_R   0.962716 0.481447 0.870597 -0.008560
C62   C     C_R   0.518536 0.481268 0.629408 -0.008545
C63   C     C_R   0.518732 0.037288 0.870599 -0.008569
C64   C     C_R   0.962742 0.481480 0.629411 -0.008531
C65   C     C_R   0.542339 0.099112 0.678230 0.557253
C66   C     C_R   0.518562 0.481273 0.870598 -0.008573
C67   C     C_R   0.986238 0.592326 0.947847 -0.041377
C68   C     C_R   0.606099 0.013771 0.552155 -0.041378
C69   C     C_R   0.407670 0.393922 0.947846 -0.041371
C70   C     C_R   0.986216 0.592325 0.552155 -0.041376
C71   C     C_R   0.606085 0.013752 0.947848 -0.041379
C72   C     C_R   0.407673 0.393901 0.552154 -0.041366
C73   C     C_R   0.592337 0.986242 0.447845 -0.041378
C74   C     C_R   0.013757 0.606087 0.052157 -0.041380
C75   C     C_R   0.393917 0.407662 0.447844 -0.041370
C76   C     C_R   0.457661 0.556774 0.321770 0.557248
C77   C     C_R   0.592333 0.986225 0.052157 -0.041378
C78   C     C_R   0.013741 0.606073 0.447845 -0.041379
C79   C     C_R   0.393902 0.407671 0.052156 -0.041374
C80   C     C_R   0.997957 0.405277 0.895703 0.226800
C81   C     C_R   0.407303 0.001980 0.604305 0.226808
C82   C     C_R   0.594742 0.592681 0.895704 0.226793
C83   C     C_R   0.998073 0.405369 0.604318 0.226827
C84   C     C_R   0.407326 0.002063 0.895706 0.226789
C85   C     C_R   0.594664 0.592703 0.604311 0.226813
C86   C     C_R   0.405319 0.998007 0.395693 0.226806
C87   C     C_R   0.443231 0.900891 0.178231 0.557265
C88   C     C_R   0.001928 0.407275 0.104315 0.226819
C89   C     C_R   0.592692 0.594716 0.395699 0.226793
C90   C     C_R   0.405377 0.998091 0.104319 0.226826
C91   C     C_R   0.002051 0.407309 0.395705 0.226792
C92   C     C_R   0.592718 0.594652 0.104316 0.226817
C93   C     C_R   0.000871 0.406179 0.947734 0.017260
C94   C     C_R   0.405266 0.999021 0.552274 0.017285
C95   C     C_R   0.593829 0.594695 0.947736 0.017261
C96   C     C_R   0.001024 0.406276 0.552286 0.017283
C97   C     C_R   0.405318 0.999148 0.947737 0.017263
C98   C     C_R   0.099115 0.542338 0.321771 0.557233
C99   C     C_R   0.593742 0.594747 0.552280 0.017279
C100  C     C_R   0.406226 0.000942 0.447724 0.017269
C101  C     C_R   0.998948 0.405224 0.052283 0.017292
C102  C     C_R   0.594714 0.593798 0.447730 0.017263
C103  C     C_R   0.406297 0.001066 0.052287 0.017293
C104  C     C_R   0.999103 0.405289 0.447737 0.017274
C105  C     C_R   0.594771 0.593724 0.052285 0.017288
C106  C     C_R   0.996902 0.308551 0.025736 -0.061994
C107  C     C_R   0.311563 0.002912 0.474272 -0.062013
C108  C     C_R   0.691452 0.688352 0.025740 -0.061982
Cl1   Cl    Cl    0.959022 0.269479 0.137249 -0.459232
Cl2   Cl    Cl    0.269498 0.959105 0.862786 -0.459099
Cl3   Cl    Cl    0.041085 0.310575 0.637257 -0.459260
Cl4   Cl    Cl    0.689653 0.730493 0.862785 -0.459091
Cl5   Cl    Cl    0.310489 0.040991 0.362762 -0.459154
Cl6   Cl    Cl    0.730516 0.689525 0.137252 -0.459230
Cl7   Cl    Cl    0.959190 0.269505 0.362787 -0.459099
Cl8   Cl    Cl    0.310568 0.041083 0.137258 -0.459266
Cl9   Cl    Cl    0.730503 0.689615 0.362775 -0.459114
Cl10  Cl    Cl    0.269497 0.959040 0.637235 -0.459207
Cl11  Cl    Cl    0.040915 0.310419 0.862781 -0.459114
Cl12  Cl    Cl    0.689535 0.730500 0.637244 -0.459224
Cr1   Cr    Cr6+3 0.487630 0.241180 0.750000 1.153472
Cr2   Cr    Cr6+3 0.753550 0.512370 0.750000 1.153471
Cr3   Cr    Cr6+3 0.758820 0.246450 0.750000 1.153455
Cr4   Cr    Cr6+3 0.241180 0.487630 0.250000 1.153490
Cr5   Cr    Cr6+3 0.512370 0.753550 0.250000 1.153471
Cr6   Cr    Cr6+3 0.246450 0.758820 0.250000 1.153467
F1    F     F_    0.016171 0.797380 0.050163 -0.562581
F2    F     F_    0.797266 0.015937 0.949827 -0.562526
F3    F     F_    0.983825 0.781212 0.550157 -0.562570
F4    F     F_    0.218674 0.202739 0.949825 -0.562529
F5    F     F_    0.781287 0.983976 0.449833 -0.562535
F6    F     F_    0.202597 0.218797 0.050159 -0.562591
F7    F     F_    0.015971 0.797273 0.449823 -0.562524
F8    F     F_    0.781197 0.983785 0.050160 -0.562590
F9    F     F_    0.202708 0.218697 0.449827 -0.562539
F10   F     F_    0.797365 0.016135 0.550166 -0.562582
F11   F     F_    0.984036 0.781311 0.949828 -0.562516
F12   F     F_    0.218776 0.202627 0.550161 -0.562595
H1    H     H_    0.058034 0.698774 0.122916 0.226084
H2    H     H_    0.698727 0.057917 0.877077 0.226096
H3    H     H_    0.941950 0.640748 0.622914 0.226096
H4    H     H_    0.359190 0.301287 0.877076 0.226102
H5    H     H_    0.995931 0.232164 0.044335 0.271744
H6    H     H_    0.236125 0.003833 0.455672 0.271730
H7    H     H_    0.767840 0.763765 0.044340 0.271758
H8    H     H_    0.996249 0.232313 0.455699 0.271759
H9    H     H_    0.236266 0.004109 0.044343 0.271718
H10   H     H_    0.767699 0.763916 0.455685 0.271773
H11   H     H_    0.232238 0.996061 0.544322 0.271739
H12   H     H_    0.640782 0.942021 0.377081 0.226098
H13   H     H_    0.003696 0.236047 0.955687 0.271751
H14   H     H_    0.763799 0.767791 0.544332 0.271755
H15   H     H_    0.232368 0.996342 0.955693 0.271748
H16   H     H_    0.004017 0.236226 0.544347 0.271720
H17   H     H_    0.763967 0.767657 0.955693 0.271771
H18   H     H_    0.301217 0.359245 0.122916 0.226107
H19   H     H_    0.057932 0.698722 0.377077 0.226091
H20   H     H_    0.640739 0.941940 0.122916 0.226097
H21   H     H_    0.301266 0.359199 0.377076 0.226122
H22   H     H_    0.698768 0.058005 0.622919 0.226085
H23   H     H_    0.942061 0.640799 0.877078 0.226108
H24   H     H_    0.359237 0.301234 0.622917 0.226105
O1    O     O_R   0.460870 0.120930 0.805240 -0.433317
O2    O     O_R   0.120930 0.460870 0.194760 -0.433307
O3    O     O_R   0.539130 0.660060 0.305240 -0.433314
O4    O     O_R   0.339940 0.879070 0.194760 -0.433307
O5    O     O_R   0.498910 0.350470 0.801870 -0.503284
O6    O     O_R   0.851560 0.501090 0.698130 -0.503304
O7    O     O_R   0.649530 0.148440 0.801870 -0.503290
O8    O     O_R   0.498910 0.350470 0.698130 -0.503294
O9    O     O_R   0.851560 0.501090 0.801870 -0.503288
O10   O     O_R   0.649530 0.148440 0.698130 -0.503306
O11   O     O_R   0.350470 0.498910 0.301870 -0.503280
O12   O     O_R   0.660060 0.539130 0.694760 -0.433310
O13   O     O_R   0.501090 0.851560 0.198130 -0.503306
O14   O     O_R   0.148440 0.649530 0.301870 -0.503292
O15   O     O_R   0.350470 0.498910 0.198130 -0.503293
O16   O     O_R   0.501090 0.851560 0.301870 -0.503296
O17   O     O_R   0.148440 0.649530 0.198130 -0.503304
O18   O     O_3   0.666667 0.333333 0.750000 -0.300304
O19   O     O_3   0.333333 0.666667 0.250000 -0.300306
O20   O     O_R   0.879070 0.339940 0.805240 -0.433314
O21   O     O_R   0.460870 0.120930 0.694760 -0.433308
O22   O     O_R   0.660060 0.539130 0.805240 -0.433311
O23   O     O_R   0.879070 0.339940 0.694760 -0.433316
O24   O     O_R   0.120930 0.460870 0.305240 -0.433301
O25   O     O_R   0.539130 0.660060 0.194760 -0.433312
O26   O     O_R   0.339940 0.879070 0.305240 -0.433309

loop_
_geom_bond_atom_site_label_1
_geom_bond_atom_site_label_2
_ccdc_geom_bond_type
C3    C104  A    
C12   O16   A    
C32   O7    A    
C4    C103  A    
C35   C74   A    
C89   C102  A    
C45   C71   A    
Cr5   O3    S    
C91   C104  A    
C58   C87   S    
C10   H16   S    
C15   C94   A    
C88   C101  A    
C106  H5    S    
C44   C64   A    
Cr2   O18   S    
C27   F11   S    
C22   C101  A    
C46   C62   A    
C86   Cl5   S    
C18   C24   A    
C84   C97   A    
C76   O11   A    
C28   C68   A    
C8    C99   A    
Cr3   O20   S    
C43   O12   A    
C87   O4    A    
C39   F6    S    
C15   C68   A    
C61   C80   A    
Cr1   O1    S    
C32   O1    A    
C101  C106  A    
C33   C36   A    
C30   C38   A    
C59   C89   A    
C38   F7    S    
C2    O25   A    
C21   C64   S    
C33   C72   A    
C30   C70   A    
C6    H11   S    
C1    O22   A    
C44   H3    S    
C6    C94   A    
C40   C67   A    
C42   H4    S    
C6    C107  A    
C54   O20   A    
C44   C70   A    
C51   C57   A    
C18   C97   A    
C90   Cl8   S    
C41   C68   A    
C52   C79   A    
C86   C100  A    
C14   C93   A    
C13   C53   S    
Cr3   O10   S    
C11   H17   S    
Cr1   O21   S    
C21   O6    A    
C31   C71   A    
Cr1   O8    S    
C80   Cl11  S    
C9    H15   S    
C17   C70   A    
C5    H10   S    
C19   C72   A    
C15   C20   A    
C31   F2    S    
Cr1   O5    S    
C26   C105  A    
C62   C85   A    
C43   O8    A    
Cr1   O18   S    
C29   C69   A    
C16   C26   A    
C48   C53   A    
C7    C93   A    
C105  C108  A    
Cr2   O6    S    
C65   O10   A    
Cr5   O19   S    
C25   C78   A    
C50   C58   A    
C48   C74   A    
C76   O3    A    
C47   C73   A    
C19   C99   A    
Cr4   O11   S    
C38   C78   A    
C27   C35   A    
Cr2   O12   S    
C4    H9    S    
C37   C77   A    
C81   Cl10  S    
C45   C63   A    
C45   H2    S    
C50   H20   S    
C40   C61   A    
C31   C37   A    
C82   Cl4   S    
Cr3   O23   S    
C85   Cl12  S    
C19   C23   A    
C64   C83   A    
C85   C99   A    
C36   C75   A    
C66   C82   A    
C41   H22   S    
C98   O14   A    
C60   C81   A    
C24   C77   A    
C29   F4    S    
C20   C100  A    
C47   H12   S    
C10   C96   A    
C33   F12   S    
C14   C67   A    
C107  H6    S    
C29   C39   A    
C49   C75   A    
C1    C66   S    
C7    C106  A    
Cr6   O17   S    
C17   C96   A    
C35   F1    S    
C58   C90   A    
Cr4   O15   S    
Cr3   O7    S    
C7    H13   S    
C88   Cl1   S    
C2    O15   A    
C89   Cl9   S    
C34   F5    S    
C83   Cl3   S    
C52   H18   S    
C22   C74   A    
Cr5   O13   S    
C50   C77   A    
Cr5   O16   S    
Cr6   O14   S    
C13   O2    A    
C47   C55   A    
C108  H7    S    
C65   O21   A    
C11   C95   A    
C18   C71   A    
C36   F9    S    
C5    C102  A    
C100  C107  A    
C9    C97   A    
C82   C95   A    
C57   C91   A    
C48   H1    S    
C8    H14   S    
C28   F10   S    
C46   C72   A    
C54   O9    A    
C16   C69   A    
C41   C60   A    
C23   C75   A    
Cr3   O18   S    
Cr6   O4    S    
C60   C65   S    
C5    C8    A    
C25   C104  A    
C21   O23   A    
C54   C61   S    
C32   C63   S    
C30   F3    S    
C87   O13   A    
C26   C79   A    
C49   C59   A    
C63   C84   A    
Cr5   O25   S    
C24   C103  A    
C17   C25   A    
C14   C22   A    
C55   C86   A    
Cr6   O26   S    
C80   C93   A    
C51   C78   A    
C40   H23   S    
C98   O24   A    
C3    C10   A    
C13   O17   A    
Cr4   O24   S    
C81   C94   A    
C16   C95   A    
C83   C96   A    
C57   C98   S    
Cr2   O22   S    
C91   Cl7   S    
C20   C73   A    
C53   C88   A    
C51   H19   S    
C42   C69   A    
C84   Cl2   S    
C90   C103  A    
C12   C55   S    
C27   C67   A    
C34   C73   A    
C28   C34   A    
C23   C102  A    
C92   C105  A    
Cr4   O19   S    
C3    H8    S    
Cr2   O9    S    
C46   H24   S    
C11   C108  A    
C42   C66   A    
C1    O5    A    
C37   F8    S    
C49   H21   S    
Cr6   O19   S    
C2    C56   S    
C4    C9    A    
C56   C92   A    
C92   Cl6   S    
C59   C76   S    
C52   C56   A    
C43   C62   S    
C39   C79   A    
Cr4   O2    S    
C12   O26   A    
