data_mof_unit_66269.cif
_audit_creation_date              2013-03-05T16:02:28-0500
_audit_creation_method            fapswitch 2.2
_symmetry_space_group_name_H-M    P1
_symmetry_Int_Tables_number       1
_space_group_crystal_system       triclinic
_cell_length_a                    10.466887
_cell_length_b                    11.730081
_cell_length_c                    17.353474
_cell_angle_alpha                 90.003195
_cell_angle_beta                  84.961522
_cell_angle_gamma                 90.007548
_cell_volume                      2122.38214031

loop_
_atom_site_label
_atom_site_type_symbol
_atom_site_description
_atom_site_fract_x
_atom_site_fract_y
_atom_site_fract_z
_atom_type_partial_charge
O1    O     O_R   0.394190 0.662800 0.500010 -0.568788
O2    O     O_R   0.605810 0.337200 0.499990 -0.568061
O3    O     O_R   0.605810 0.662800 0.499990 -0.568673
O4    O     O_R   0.394190 0.337200 0.500010 -0.568131
C1    C     C_R   0.500007 0.716680 0.499998 0.829238
C2    C     C_R   0.499994 0.283322 0.499995 0.824538
O5    O     O_R   0.381920 0.500000 0.613600 -0.574907
O6    O     O_R   0.618080 0.500000 0.386400 -0.574817
O7    O     O_R   0.593540 0.500000 0.613600 -0.579458
O8    O     O_R   0.406460 0.500000 0.386400 -0.579191
C3    C     C_R   0.482110 0.499230 0.650507 0.799655
C4    C     C_R   0.517881 0.499063 0.349527 0.799737
Cu1   Cu    Cu3+1 0.374700 0.500000 0.500000 0.979277
Cu2   Cu    Cu3+1 0.625300 0.500000 0.500000 0.979364
C5    C     C_R   0.469586 0.506091 0.735082 -0.040674
C6    C     C_R   0.530513 0.505574 0.265000 -0.039496
C7    C     C_R   0.565933 0.563727 0.770730 -0.243644
C8    C     C_R   0.436240 0.565762 0.229276 -0.243856
C9    C     C_R   0.558422 0.575230 0.850449 -0.152064
C10   C     C_R   0.444201 0.577014 0.149527 -0.151720
C11   C     C_R   0.455117 0.527562 0.896217 0.141028
C12   C     C_R   0.545809 0.526506 0.103863 0.140760
C13   C     C_R   0.357376 0.471483 0.861317 -0.156613
C14   C     C_R   0.641505 0.467798 0.138888 -0.156394
C15   C     C_R   0.363356 0.459316 0.780849 0.159668
C16   C     C_R   0.635037 0.455888 0.219378 0.159489
C17   C     C_2   0.447765 0.533417 0.980852 -0.214823
C18   C     C_2   0.553371 0.532036 0.019216 -0.214913
H1    H     H_    0.646659 0.601751 0.736664 0.162436
H2    H     H_    0.356914 0.605948 0.263319 0.161612
H3    H     H_    0.647456 0.524067 0.987883 0.145957
H4    H     H_    0.353450 0.528041 0.012205 0.146009
H5    H     H_    0.277605 0.435137 0.897237 0.125913
H6    H     H_    0.719940 0.429207 0.103061 0.125979
H7    H     H_    0.371290 0.626092 0.123888 0.137109
H8    H     H_    0.633047 0.622313 0.875978 0.136994
C19   C     C_1   0.500017 0.838057 0.499994 -0.180966
C20   C     C_1   0.499986 0.161951 0.499990 -0.182622
C21   C     C_1   0.500010 0.940274 0.499991 0.004405
C22   C     C_1   0.499995 0.059737 0.499989 0.004409
N1    N     N_1   0.813590 0.500000 0.499990 -0.144264
N2    N     N_1   0.186410 0.500000 0.500010 -0.144233
C23   C     C_1   0.927942 0.499991 0.499994 0.080541
C24   C     C_1   0.072058 0.499991 0.500008 0.080597
C25   C     C_3   0.737346 0.387250 0.254275 -0.839074
H9    H     H_    0.692368 0.319763 0.292510 0.230561
H10   H     H_    0.802598 0.344774 0.209144 0.218455
H11   H     H_    0.796759 0.443836 0.287906 0.251260
C26   C     C_3   0.258418 0.393623 0.746200 -0.837962
H12   H     H_    0.300750 0.324812 0.708078 0.231542
H13   H     H_    0.191740 0.353066 0.791467 0.217888
H14   H     H_    0.200968 0.451927 0.712544 0.250920

loop_
_geom_bond_atom_site_label_1
_geom_bond_atom_site_label_2
_geom_bond_distance
_ccdc_geom_bond_type
O5    C3    1.275927 A    
C23   C24   1.508465 S    
C2    C20   1.423687 S    
C8    H2    1.083749 S    
C1    C19   1.423762 S    
N1    C23   1.196915 T    
O6    C4    1.275677 A    
O7    Cu2   1.970186 S    
C26   H14   1.110077 S    
C15   C26   1.509137 S    
C26   H13   1.110919 S    
C13   C15   1.399590 A    
C11   C17   1.465566 S    
C19   C21   1.199005 T    
C12   C18   1.465535 S    
Cu1   Cu2   2.623002 S    
C20   C22   1.198984 T    
O7    C3    1.280379 A    
O2    C2    1.275110 A    
O3    Cu2   1.920551 S    
N2    C24   1.196915 T    
Cu2   N1    1.970796 S    
O1    C1    1.275126 A    
O8    C4    1.280074 A    
O4    C2    1.275140 A    
Cu1   N2    1.970794 S    
C9    C11   1.400592 A    
C10   C12   1.400751 A    
C8    C10   1.385416 A    
C9    H8    1.082609 S    
C11   C13   1.398112 A    
C6    C16   1.418220 A    
O2    Cu2   1.920497 S    
C12   C14   1.397891 A    
C5    C15   1.418780 A    
O1    Cu1   1.920497 S    
C21   C22   1.401311 S    
O3    C1    1.275150 A    
O5    Cu1   1.979422 S    
C7    H1    1.083768 S    
C6    C8    1.401472 A    
C26   H12   1.110864 S    
C25   H10   1.110940 S    
C17   C18   1.339625 D    
C5    C7    1.402176 A    
O6    Cu2   1.979424 S    
C25   H11   1.109734 S    
C16   C25   1.508606 S    
C7    C9    1.385297 A    
C17   H4    1.086357 S    
C25   H9    1.110694 S    
C10   H7    1.082379 S    
C3    C5    1.464205 S    
C18   H3    1.086348 S    
C14   H6    1.084368 S    
C4    C6    1.463168 S    
O4    Cu1   1.920551 S    
C14   C16   1.399475 A    
C13   H5    1.084432 S    
O8    Cu1   1.970188 S    
