data_mof_unit_67359.cif
_audit_creation_date              2012-12-11T19:24:48-0500
_audit_creation_method            fapswitch 2.2
_symmetry_space_group_name_H-M    P1
_symmetry_Int_Tables_number       1
_space_group_crystal_system       triclinic
_cell_length_a                    19.544436
_cell_length_b                    22.566309
_cell_length_c                    8.353919
_cell_angle_alpha                 89.999819
_cell_angle_beta                  103.252591
_cell_angle_gamma                 90.075885
_cell_volume                      3586.33615251

loop_
_atom_site_label
_atom_site_type_symbol
_atom_type_description
_atom_site_fract_x
_atom_site_fract_y
_atom_site_fract_z
_atom_type_partial_charge
Ba1   Ba    Ba6+2 0.999900 0.457470 0.844900 1.641549
Ba2   Ba    Ba6+2 0.999900 0.542530 0.344900 1.639357
Ba3   Ba    Ba6+2 0.499900 0.957470 0.844900 1.641617
Ba4   Ba    Ba6+2 0.499900 0.042530 0.344900 1.640854
C1    C     C_3   0.058497 0.181368 0.670228 0.307895
C2    C     C_R   0.779200 0.673846 0.542710 -0.030905
C3    C     C_3   0.785194 0.130925 0.800363 -0.474386
C4    C     C_3   0.328502 0.454163 0.156222 -0.365962
C5    C     C_3   0.328083 0.545732 0.652359 -0.366595
C6    C     C_3   0.831521 0.956479 0.167946 -0.366098
C7    C     C_3   0.827040 0.046685 0.652605 -0.369460
C8    C     C_3   0.715233 0.554505 0.037656 -0.297462
C9    C     C_3   0.730145 0.429063 0.496415 -0.324355
C10   C     C_3   0.215999 0.054286 0.042618 -0.296702
C11   C     C_3   0.224776 0.932104 0.497798 -0.329087
C12   C     C_3   0.910598 0.152804 0.201471 -0.458939
C13   C     C_R   0.283879 0.823418 0.039020 -0.040849
C14   C     C_3   0.904397 0.846042 0.671783 -0.498516
C15   C     C_3   0.411429 0.651594 0.201015 -0.458231
C16   C     C_3   0.410071 0.347515 0.692378 -0.465506
C17   C     C_3   0.023731 0.083214 0.666402 0.162638
C18   C     C_3   0.007862 0.896905 0.054981 0.138018
C19   C     C_3   0.526446 0.581456 0.664479 0.158383
C20   C     C_3   0.530004 0.419609 0.161157 0.155629
C21   C     C_R   0.280822 0.174859 0.541321 -0.032319
C22   C     C_R   0.744252 0.328200 0.876874 -0.064805
C23   C     C_R   0.738043 0.667791 0.382667 -0.062936
C24   C     C_R   0.245064 0.827748 0.876123 -0.059767
C25   C     C_R   0.239347 0.168634 0.381700 -0.061277
C26   C     C_R   0.195217 0.785567 0.807762 -0.072220
C27   C     C_R   0.189650 0.210912 0.312714 -0.095185
C28   C     C_R   0.694085 0.286225 0.808685 -0.095307
C29   C     C_3   0.066829 0.812828 0.172656 0.285623
C30   C     C_R   0.688594 0.710247 0.313456 -0.094173
C31   C     C_R   0.834196 0.367071 0.109651 -0.012014
C32   C     C_R   0.832164 0.631950 0.610505 -0.014572
C33   C     C_R   0.335101 0.866571 0.108829 -0.010350
C34   C     C_R   0.333868 0.132977 0.608990 -0.008386
C35   C     C_R   0.871733 0.359795 0.272944 -0.262619
C36   C     C_R   0.870126 0.639526 0.773422 -0.264483
C37   C     C_R   0.372582 0.859330 0.272155 -0.264212
C38   C     C_R   0.372355 0.140931 0.771266 -0.262194
C39   C     C_R   0.157704 0.637114 0.087628 0.052409
C40   C     C_3   0.557389 0.680474 0.670806 0.309240
C41   C     C_R   0.156779 0.362357 0.587802 0.054504
C42   C     C_R   0.657038 0.137480 0.088069 0.054524
C43   C     C_R   0.656755 0.862314 0.587632 0.053687
C44   C     C_R   0.208329 0.680724 0.158718 -0.054024
C45   C     C_R   0.207170 0.318647 0.658941 -0.049515
C46   C     C_R   0.707359 0.181279 0.159465 -0.050082
C47   C     C_R   0.706897 0.818450 0.658934 -0.045884
C48   C     C_R   0.219184 0.731187 0.065406 -0.001796
C49   C     C_R   0.216905 0.267529 0.566808 -0.004608
C50   C     C_R   0.717800 0.231977 0.066564 -0.003508
C51   C     C_3   0.557512 0.319923 0.172919 0.312196
C52   C     C_R   0.715963 0.766952 0.567492 -0.005485
C53   C     C_R   0.249914 0.674842 0.318786 -0.040381
C54   C     C_R   0.249585 0.325052 0.818049 -0.038860
C55   C     C_R   0.749178 0.175288 0.319314 -0.039451
C56   C     C_R   0.749711 0.825081 0.817538 -0.042244
C57   C     C_3   0.982348 0.231802 0.101763 0.338583
C58   C     C_3   0.987717 0.768657 0.612765 0.330214
C59   C     C_3   0.482304 0.731293 0.101311 0.339412
C60   C     C_3   0.484058 0.268273 0.601901 0.339471
C61   C     C_R   0.796126 0.219179 0.390832 -0.112217
C62   C     C_R   0.181302 0.736902 0.899914 -0.017014
C63   C     C_R   0.796464 0.781145 0.889484 -0.112547
C64   C     C_R   0.297025 0.718658 0.390064 -0.112823
C65   C     C_R   0.296944 0.281466 0.889239 -0.111456
C66   C     C_R   0.807984 0.269130 0.301005 -0.041789
C67   C     C_R   0.806845 0.730310 0.801350 -0.038768
C68   C     C_R   0.309113 0.768473 0.299947 -0.042168
C69   C     C_R   0.308309 0.231234 0.799984 -0.042356
C70   C     C_R   0.769274 0.275335 0.136294 0.021780
C71   C     C_R   0.767056 0.723415 0.637654 0.019441
C72   C     C_R   0.270654 0.774532 0.135043 0.022487
C73   C     C_R   0.177921 0.261031 0.402286 -0.031431
C74   C     C_R   0.268572 0.224358 0.636324 0.020250
C75   C     C_R   0.859306 0.311776 0.369284 -0.013120
C76   C     C_R   0.857819 0.687453 0.870028 -0.000510
C77   C     C_R   0.360178 0.811277 0.368400 -0.011893
C78   C     C_R   0.359822 0.188758 0.867991 -0.007504
C79   C     C_R   0.119766 0.644652 0.925185 -0.293040
C80   C     C_R   0.118209 0.354302 0.425825 -0.289486
C81   C     C_R   0.618591 0.145340 0.926007 -0.290552
C82   C     C_R   0.618000 0.854151 0.425817 -0.288875
C83   C     C_3   0.972382 0.165381 0.124017 -0.223891
C84   C     C_R   0.679918 0.237702 0.900962 -0.030821
C85   C     C_3   0.967723 0.834128 0.599310 -0.196777
C86   C     C_3   0.473117 0.664768 0.123723 -0.225964
C87   C     C_3   0.472061 0.334800 0.615804 -0.222976
C88   C     C_3   0.215845 0.465360 0.259469 0.327360
C89   C     C_3   0.216831 0.534216 0.760580 0.326388
C90   C     C_3   0.715328 0.965462 0.257294 0.327692
C91   C     C_3   0.716351 0.034304 0.762087 0.329723
C92   C     C_3   0.289154 0.435944 0.287801 -0.067952
C93   C     C_3   0.290322 0.563319 0.787202 -0.065606
C94   C     C_3   0.788637 0.936109 0.290535 -0.059872
C95   C     C_R   0.677050 0.760486 0.402857 -0.032036
C96   C     C_3   0.789606 0.063770 0.788436 -0.066672
C97   C     C_3   0.738310 0.490077 0.030722 0.331800
C98   C     C_3   0.751514 0.493668 0.536229 0.312872
C99   C     C_3   0.239803 0.989963 0.038771 0.318125
C100  C     C_3   0.251817 0.995037 0.542928 0.309863
C101  C     C_3   0.674063 0.451980 0.952879 -0.422222
C102  C     C_3   0.685686 0.531756 0.522269 -0.385701
C103  C     C_3   0.175237 0.950708 0.973669 -0.403806
C104  C     C_3   0.189646 0.036115 0.543893 -0.375108
C105  C     C_3   0.023328 0.241133 0.622886 0.418800
C106  C     C_R   0.782681 0.324111 0.040118 -0.039156
C107  C     C_3   0.027958 0.753867 0.136200 0.366068
C108  C     C_3   0.522805 0.740439 0.623102 0.421800
C109  C     C_3   0.522942 0.259787 0.125357 0.419728
C110  C     C_R   0.132234 0.692802 0.829723 -0.012586
C111  C     C_R   0.129718 0.305580 0.330868 -0.015168
C112  C     C_R   0.630853 0.193616 0.830514 -0.014318
C113  C     C_R   0.629218 0.805252 0.331059 -0.016129
C114  C     C_3   0.284403 0.368672 0.295671 -0.473902
C115  C     C_3   0.286346 0.630515 0.798315 -0.476324
C116  C     C_3   0.783397 0.868751 0.289636 -0.475180
H1    H     H_    0.053501 0.275107 0.706667 0.025507
H2    H     H_    0.784492 0.496017 0.661217 0.103316
H3    H     H_    0.376342 0.572571 0.660814 0.122072
H4    H     H_    0.344084 0.498521 0.666889 0.118611
H5    H     H_    0.293330 0.552213 0.529164 0.144644
H6    H     H_    0.883682 0.934699 0.196399 0.087185
H7    H     H_    0.803829 0.945713 0.040063 0.133977
H8    H     H_    0.841226 0.004923 0.178539 0.129464
H9    H     H_    0.874072 0.074739 0.657850 0.119743
H10   H     H_    0.844814 0.999941 0.668724 0.113681
H11   H     H_    0.791400 0.051894 0.530003 0.147071
H12   H     H_    0.687694 0.569929 0.913497 0.077294
H13   H     H_    0.264902 0.975500 0.164234 0.073408
H14   H     H_    0.679487 0.559252 0.122624 0.051521
H15   H     H_    0.761781 0.583405 0.078219 0.134964
H16   H     H_    0.703866 0.424305 0.364366 0.084480
H17   H     H_    0.777479 0.400439 0.521633 0.118803
H18   H     H_    0.693301 0.413176 0.569971 0.050935
H19   H     H_    0.185464 0.068040 0.919432 0.077454
H20   H     H_    0.182655 0.059708 0.132763 0.056869
H21   H     H_    0.262296 0.083950 0.074828 0.135878
H22   H     H_    0.192838 0.930767 0.369271 0.097224
H23   H     H_    0.269763 0.901258 0.507851 0.110472
H24   H     H_    0.287849 0.994082 0.664320 0.111288
H25   H     H_    0.191303 0.916543 0.579994 0.057707
H26   H     H_    0.861817 0.171693 0.124393 0.122839
H27   H     H_    0.903762 0.104247 0.212090 0.140449
H28   H     H_    0.920200 0.172685 0.325980 0.189759
H29   H     H_    0.858526 0.820582 0.603352 0.138880
H30   H     H_    0.915778 0.832474 0.802721 0.164895
H31   H     H_    0.891493 0.893966 0.663152 0.129273
H32   H     H_    0.362436 0.670021 0.123691 0.122686
H33   H     H_    0.405226 0.602969 0.211966 0.141058
H34   H     H_    0.420667 0.671592 0.325320 0.190023
H35   H     H_    0.669853 0.445864 0.819497 0.115517
H36   H     H_    0.361841 0.326593 0.618342 0.125249
H37   H     H_    0.420546 0.329816 0.819481 0.189779
H38   H     H_    0.401629 0.396060 0.696557 0.139705
H39   H     H_    0.995570 0.087407 0.767232 0.028234
H40   H     H_    0.079257 0.071116 0.719001 0.013412
H41   H     H_    0.998937 0.046801 0.583898 0.057795
H42   H     H_    0.034274 0.925750 0.159025 0.018623
H43   H     H_    0.957140 0.879899 0.075079 0.066532
H44   H     H_    0.996264 0.924515 0.942124 0.056101
H45   H     H_    0.500720 0.582992 0.770073 0.028352
H46   H     H_    0.658114 0.537755 0.391480 0.114243
H47   H     H_    0.582984 0.570967 0.709662 0.016232
H48   H     H_    0.501848 0.545198 0.581193 0.058295
H49   H     H_    0.587072 0.429783 0.197499 0.015426
H50   H     H_    0.507326 0.419894 0.271572 0.028116
H51   H     H_    0.504061 0.455250 0.077508 0.057540
H52   H     H_    0.163518 0.947426 0.837685 0.116033
H53   H     H_    0.160102 0.045850 0.416471 0.117377
H54   H     H_    0.624295 0.472496 0.968036 0.094717
H55   H     H_    0.648859 0.510274 0.587338 0.080752
H56   H     H_    0.128022 0.968509 0.010083 0.099460
H57   H     H_    0.050435 0.723219 0.238424 0.065378
H58   H     H_    0.153366 0.014934 0.610858 0.084291
H59   H     H_    0.677615 0.408198 0.014114 0.087094
H60   H     H_    0.699759 0.575635 0.579697 0.077764
H61   H     H_    0.183784 0.905998 0.028539 0.110800
H62   H     H_    0.207945 0.078095 0.607990 0.072653
H63   H     H_    0.025402 0.251503 0.494540 -0.103163
H64   H     H_    0.037227 0.735569 0.019876 -0.055409
H65   H     H_    0.524323 0.750284 0.494123 -0.105385
H66   H     H_    0.525237 0.249559 0.997075 -0.104101
H67   H     H_    0.112018 0.182062 0.645612 -0.032317
H68   H     H_    0.553673 0.774456 0.705454 0.023348
H69   H     H_    0.124163 0.803697 0.202555 0.001332
H70   H     H_    0.610784 0.680623 0.645402 -0.036485
H71   H     H_    0.611142 0.319630 0.148654 -0.042348
H72   H     H_    0.064233 0.175263 0.805094 0.039335
H73   H     H_    0.055340 0.833075 0.285634 0.032726
H74   H     H_    0.563115 0.674509 0.805644 0.041652
H75   H     H_    0.562629 0.326261 0.307415 0.043082
H76   H     H_    0.751493 0.364426 0.799521 0.097978
H77   H     H_    0.743393 0.630012 0.308821 0.086015
H78   H     H_    0.251620 0.864380 0.799351 0.097617
H79   H     H_    0.553399 0.225966 0.208946 0.024663
H80   H     H_    0.244836 0.130992 0.307711 0.090198
H81   H     H_    0.168226 0.791937 0.681037 0.100519
H82   H     H_    0.160996 0.203536 0.187673 0.098552
H83   H     H_    0.667166 0.292530 0.681851 0.101468
H84   H     H_    0.660026 0.702953 0.188315 0.097710
H85   H     H_    0.824687 0.211972 0.516025 0.116062
H86   H     H_    0.826034 0.788937 0.013564 0.109842
H87   H     H_    0.325377 0.711570 0.515462 0.116630
H88   H     H_    0.326164 0.289100 0.013675 0.117064
H89   H     H_    0.247086 0.636459 0.392640 0.112491
H90   H     H_    0.321165 0.451151 0.408215 0.106506
H91   H     H_    0.247334 0.363779 0.891032 0.110099
H92   H     H_    0.746734 0.136739 0.392839 0.111566
H93   H     H_    0.748304 0.864350 0.889229 0.106605
H94   H     H_    0.910876 0.392442 0.326724 0.082716
H95   H     H_    0.909953 0.607395 0.826374 0.081326
H96   H     H_    0.411434 0.892159 0.326245 0.082084
H97   H     H_    0.412075 0.108736 0.824356 0.079538
H98   H     H_    0.082536 0.610892 0.869254 0.074717
H99   H     H_    0.081482 0.388265 0.369509 0.074007
H100  H     H_    0.581491 0.111507 0.869976 0.074176
H101  H     H_    0.323031 0.547381 0.906049 0.106624
H102  H     H_    0.581411 0.888190 0.369384 0.074460
H103  H     H_    0.935660 0.249949 0.013526 0.073473
H104  H     H_    0.942685 0.741448 0.545593 0.056496
H105  H     H_    0.435302 0.749120 0.013442 0.072774
H106  H     H_    0.437972 0.248049 0.516056 0.070813
H107  H     H_    0.986676 0.254147 0.222119 -0.049582
H108  H     H_    0.000215 0.756382 0.745117 -0.015509
H109  H     H_    0.486596 0.753621 0.221668 -0.050485
H110  H     H_    0.489292 0.247912 0.725048 -0.048148
H111  H     H_    0.963269 0.143019 0.002433 0.110386
H112  H     H_    0.818229 0.949705 0.414819 0.104672
H113  H     H_    0.955465 0.847814 0.468043 0.110979
H114  H     H_    0.464350 0.642373 0.002201 0.112259
H115  H     H_    0.462133 0.355165 0.491474 0.114836
H116  H     H_    0.020918 0.146715 0.204373 0.136029
H117  H     H_    0.012922 0.861082 0.666492 0.137791
H118  H     H_    0.521848 0.646497 0.204256 0.133472
H119  H     H_    0.520065 0.355456 0.693327 0.133878
H120  H     H_    0.193644 0.458106 0.368865 -0.035669
H121  H     H_    0.195472 0.541201 0.871303 -0.034066
H122  H     H_    0.691212 0.957515 0.363455 -0.038793
H123  H     H_    0.822612 0.047742 0.906900 0.104204
H124  H     H_    0.695072 0.041004 0.873041 -0.035813
H125  H     H_    0.180113 0.446116 0.149507 0.067617
H126  H     H_    0.180711 0.553860 0.651832 0.065900
H127  H     H_    0.681096 0.946827 0.144520 0.070374
H128  H     H_    0.680006 0.053957 0.653633 0.064174
H129  H     H_    0.264242 0.356673 0.403932 0.107502
H130  H     H_    0.249380 0.350768 0.183059 0.152474
H131  H     H_    0.337092 0.348145 0.310387 0.152984
H132  H     H_    0.266899 0.641769 0.908014 0.106494
H133  H     H_    0.339202 0.650854 0.812870 0.152657
H134  H     H_    0.760320 0.474114 0.156741 0.066279
H135  H     H_    0.251022 0.649153 0.687200 0.151013
H136  H     H_    0.762485 0.854789 0.395226 0.109289
H137  H     H_    0.748722 0.852682 0.174361 0.152437
H138  H     H_    0.835869 0.848120 0.302382 0.149377
H139  H     H_    0.765615 0.141890 0.910086 0.106818
H140  H     H_    0.837933 0.151514 0.815285 0.151594
H141  H     H_    0.749850 0.149586 0.689315 0.151560
H142  H     H_    0.377697 0.428281 0.169044 0.122617
H143  H     H_    0.295303 0.446929 0.031519 0.142650
H144  H     H_    0.343317 0.501681 0.170573 0.120204
O1    O     O_2   0.860260 0.414960 0.826400 -0.459857
O2    O     O_3   0.045410 0.760575 0.541448 -0.625715
O3    O     O_3   0.541628 0.739560 0.035328 -0.619494
O4    O     O_3   0.544043 0.260490 0.538336 -0.621752
O5    O     O_3   0.081330 0.529680 0.090830 -0.490023
O6    O     O_3   0.081330 0.470320 0.590830 -0.489760
O7    O     O_3   0.581330 0.029680 0.090830 -0.490656
O8    O     O_3   0.581330 0.970320 0.590830 -0.489915
O9    O     O_3   0.918600 0.470180 0.098890 -0.454697
O10   O     O_3   0.918600 0.529820 0.598890 -0.466438
O11   O     O_3   0.418600 0.970180 0.098890 -0.457396
O12   O     O_2   0.860260 0.585040 0.326400 -0.440610
O13   O     O_3   0.418600 0.029820 0.598890 -0.469088
O14   O     O_3   0.975750 0.362410 0.628650 -0.480283
O15   O     O_3   0.975750 0.637590 0.128650 -0.484138
O16   O     O_3   0.475750 0.862410 0.628650 -0.479774
O17   O     O_3   0.475750 0.137590 0.128650 -0.480175
O18   O     O_2   0.864784 0.313895 0.706992 -0.483228
O19   O     O_2   0.867230 0.689062 0.212001 -0.479582
O20   O     O_2   0.364045 0.814412 0.704722 -0.482857
O21   O     O_2   0.363701 0.185429 0.204142 -0.481292
O22   O     O_3   0.788724 0.489322 0.934964 -0.632943
O23   O     O_2   0.360260 0.914960 0.826400 -0.459207
O24   O     O_3   0.788952 0.511859 0.421330 -0.630160
O25   O     O_3   0.287148 0.988066 0.935318 -0.636521
O26   O     O_3   0.287317 0.012987 0.424102 -0.635709
O27   O     O_3   0.953325 0.238435 0.638917 -0.602815
O28   O     O_3   0.955654 0.761921 0.125040 -0.632940
O29   O     O_3   0.453098 0.738500 0.641359 -0.601803
O30   O     O_3   0.452896 0.261650 0.141348 -0.603812
O31   O     O_2   0.139400 0.414340 0.863230 -0.473776
O32   O     O_2   0.139400 0.585660 0.363230 -0.472658
O33   O     O_2   0.639400 0.914340 0.863230 -0.473630
O34   O     O_2   0.360260 0.085040 0.326400 -0.439570
O35   O     O_2   0.639400 0.085660 0.363230 -0.471011
O36   O     O_3   0.023740 0.362300 0.060930 -0.469462
O37   O     O_3   0.023740 0.637700 0.560930 -0.473416
O38   O     O_3   0.523740 0.862300 0.060930 -0.468904
O39   O     O_3   0.523740 0.137700 0.560930 -0.470814
O40   O     O_2   0.137750 0.314239 0.000270 -0.499077
O41   O     O_2   0.138756 0.684746 0.499689 -0.505962
O42   O     O_2   0.637667 0.814153 0.000607 -0.497928
O43   O     O_2   0.638294 0.185037 0.500265 -0.498974
O44   O     O_3   0.018515 0.136130 0.574846 -0.637529
O45   O     O_3   0.225589 0.473669 0.737461 -0.663505
O46   O     O_3   0.051790 0.849722 0.031934 -0.649530
O47   O     O_3   0.516604 0.635370 0.576907 -0.637807
O48   O     O_3   0.517054 0.364927 0.078167 -0.636559
O49   O     O_3   0.225222 0.525963 0.238116 -0.663454
O50   O     O_3   0.725477 0.973834 0.738358 -0.662865
O51   O     O_3   0.725115 0.026134 0.239180 -0.665771
O52   O     O_3   0.041976 0.239566 0.036596 -0.620097
P1    P     P_3+3 0.853370 0.434890 0.996520 0.996255
P2    P     P_3+3 0.086203 0.693472 0.609979 0.921048
P3    P     P_3+3 0.584462 0.805418 0.109462 0.935008
P4    P     P_3+3 0.585460 0.193902 0.609799 0.931751
P5    P     P_3+3 0.912680 0.693284 0.083168 0.945372
P6    P     P_3+3 0.912393 0.306960 0.584017 0.948982
P7    P     P_3+3 0.412346 0.193040 0.083537 0.952829
P8    P     P_3+3 0.412455 0.806934 0.583790 0.950903
P9    P     P_3+3 0.853370 0.565110 0.496520 0.996469
P10   P     P_3+3 0.353370 0.934890 0.996520 0.991772
P11   P     P_3+3 0.353370 0.065110 0.496520 0.993043
P12   P     P_3+3 0.146350 0.434230 0.693140 0.966037
P13   P     P_3+3 0.146350 0.565770 0.193140 0.964814
P14   P     P_3+3 0.646350 0.934230 0.693140 0.966491
P15   P     P_3+3 0.646350 0.065770 0.193140 0.965132
P16   P     P_3+3 0.084701 0.305592 0.109550 0.934065

loop_
_geom_bond_atom_site_label_1
_geom_bond_atom_site_label_2
_ccdc_geom_bond_type
Ba4   O8    S    
C3    H139  S    
C22   H76   S    
C2    C71   A    
C57   H107  S    
C103  H61   S    
C108  O29   S    
C102  H46   S    
C90   O51   S    
C29   H69   S    
C20   H51   S    
O14   P6    S    
C40   H70   S    
C50   C70   A    
C65   H88   S    
C8    H15   S    
Ba1   P1    S    
C66   C70   A    
C13   C72   A    
C102  H55   S    
C29   C107  S    
C3    H140  S    
C4    H144  S    
C90   H127  S    
C111  P16   S    
C16   H38   S    
C97   C101  S    
C17   H39   S    
C79   C110  A    
O2    P2    S    
Ba4   O34   S    
C7    H9    S    
C27   C73   A    
C21   C25   A    
C53   H89   S    
C86   H118  S    
C43   C82   A    
C114  H130  S    
C79   H98   S    
O28   P5    S    
C113  P3    S    
Ba4   O39   S    
C51   H71   S    
C51   O48   S    
O19   P5    D    
C11   H22   S    
C64   C68   A    
C104  H53   S    
C64   H87   S    
C30   C95   A    
C109  H79   S    
O25   P10   S    
C19   H47   S    
C40   C108  S    
C15   H33   S    
O12   P9    D    
C46   C55   A    
C108  H65   S    
Ba2   O5    S    
Ba4   P15   S    
C8    H12   S    
C66   C75   A    
C14   C85   S    
C81   C112  A    
C70   C106  A    
C94   C116  S    
O24   P9    S    
C28   H83   S    
C49   C74   A    
C33   P10   S    
C41   P12   S    
C50   C84   A    
C105  H1    S    
O4    P4    S    
O34   P11   D    
C5    H3    S    
C82   C113  A    
Ba3   O8    S    
C44   C48   A    
C107  H57   S    
C99   C103  S    
C60   C87   S    
C14   H30   S    
O45   P12   S    
O7    P15   S    
C22   C28   A    
C39   C79   A    
Ba1   O36   S    
C57   H103  S    
C44   C53   A    
C59   H105  S    
C54   H91   S    
C45   C49   A    
Ba3   O13   S    
Ba1   O5    S    
C103  H56   S    
C61   C66   A    
C28   C84   A    
O29   P8    S    
C87   H115  S    
C88   C92   S    
Ba3   O7    S    
C32   P9    S    
C59   C86   S    
C98   O24   S    
Ba3   O33   S    
C57   C83   S    
O33   P14   D    
C19   H45   S    
O23   P10   D    
C56   C63   A    
C30   H84   S    
C12   C83   S    
C58   H104  S    
C20   H50   S    
C23   H77   S    
C52   C71   A    
C8    H14   S    
C76   P5    S    
C101  H59   S    
C6    H8    S    
C102  H60   S    
C15   H32   S    
C92   H90   S    
C21   C74   A    
O39   P4    S    
O16   P8    S    
C5    H5    S    
C93   C115  S    
C21   C34   A    
C95   C113  A    
C18   H44   S    
O31   P12   D    
Ba1   O10   S    
C11   H23   S    
C101  H35   S    
O5    P13   S    
C53   C64   A    
Ba3   Ba4   S    
C89   C93   S    
Ba3   P14   S    
C88   O49   S    
C88   H120  S    
O41   P2    D    
Ba4   O11   S    
C47   C52   A    
C91   O50   S    
C10   H20   S    
C48   C72   A    
C1    O44   S    
C9    H18   S    
C8    C97   S    
C15   C86   S    
C89   H121  S    
C58   O2    S    
C60   H110  S    
C10   C99   S    
C58   H108  S    
C2    C32   A    
C3    H141  S    
C33   C37   A    
O30   P7    S    
O22   P1    S    
O11   P10   S    
C47   C56   A    
C52   C95   A    
C9    C98   S    
C6    H6    S    
O26   P11   S    
O51   P15   S    
O40   P16   D    
O17   P7    S    
C112  P4    S    
Ba3   O23   S    
C46   C50   A    
C12   H27   S    
C81   H100  S    
C114  H131  S    
C18   H42   S    
C90   C94   S    
C73   C111  A    
C116  H137  S    
C58   C85   S    
O49   P13   S    
C34   P11   S    
C27   H82   S    
O9    P1    S    
C4    C92   S    
C65   C69   A    
C20   O48   S    
Ba3   O38   S    
C68   C77   A    
C91   H124  S    
C59   H109  S    
C42   C81   A    
C105  H63   S    
Ba4   O7    S    
C29   H73   S    
C40   O47   S    
C78   P7    S    
C103  H52   S    
O35   P15   D    
Ba2   O6    S    
C16   C87   S    
C3    C96   S    
Ba1   O31   S    
Ba2   O32   S    
C60   O4    S    
C91   C96   S    
C43   C47   A    
O27   P6    S    
C89   O45   S    
O52   P16   S    
C17   O44   S    
C24   H78   S    
C107  O28   S    
C35   C75   A    
C39   P13   S    
C31   C35   A    
C85   H117  S    
C41   C45   A    
C25   H80   S    
C37   C77   A    
C104  H58   S    
C4    H143  S    
C31   C106  A    
C16   H37   S    
C17   H40   S    
O1    P1    D    
C1    H67   S    
C14   H31   S    
C7    H10   S    
C69   C78   A    
C100  C104  S    
C48   C62   A    
C105  O27   S    
C26   H81   S    
C5    C93   S    
C62   C110  A    
O6    P12   S    
O43   P4    D    
C114  H129  S    
C115  H135  S    
C88   H125  S    
C54   C65   A    
Ba2   P9    S    
O36   P16   S    
O38   P3    S    
O15   P5    S    
C97   H134  S    
Ba1   O14   S    
Ba2   O9    S    
Ba3   O16   S    
C1    C105  S    
C97   O22   S    
C63   C67   A    
Ba2   O37   S    
C99   H13   S    
Ba1   P12   S    
C99   O25   S    
C89   H126  S    
C83   H116  S    
C19   H48   S    
Ba3   P10   S    
C61   H85   S    
C15   H34   S    
C98   H2    S    
C55   C61   A    
C51   H75   S    
C49   C73   A    
C38   C78   A    
C68   C72   A    
C38   H97   S    
C60   H106  S    
C31   P1    S    
C77   P8    S    
Ba2   P13   S    
O13   P11   S    
O8    P14   S    
C92   C114  S    
O20   P8    D    
C34   C38   A    
O3    P3    S    
C116  H138  S    
C85   H113  S    
O37   P2    S    
C5    H4    S    
O32   P13   D    
C86   H114  S    
C12   H26   S    
Ba1   Ba2   S    
C29   O46   S    
C6    C94   S    
C42   P15   S    
O21   P7    D    
C43   P14   S    
C69   C74   A    
C100  H24   S    
C19   O47   S    
C110  P2    S    
Ba4   O35   S    
C11   C100  S    
C14   H29   S    
C39   C44   A    
C22   C106  A    
O10   P9    S    
C10   H21   S    
O42   P3    D    
C75   P6    S    
C115  H133  S    
C67   C76   A    
C57   O52   S    
C23   C30   A    
C100  O26   S    
C17   H41   S    
O18   P6    D    
C32   C36   A    
Ba2   O15   S    
C11   H25   S    
C37   H96   S    
Ba1   O6    S    
C51   C109  S    
Ba4   P11   S    
C45   C54   A    
C7    C96   S    
C9    H17   S    
C84   C112  A    
C56   H93   S    
C116  H136  S    
C80   H99   S    
C91   H128  S    
C2    C23   A    
C36   C76   A    
Ba4   O17   S    
C18   O46   S    
C13   C33   A    
C20   H49   S    
C63   H86   S    
C26   C62   A    
C96   H123  S    
C80   C111  A    
C101  H54   S    
C9    H16   S    
C94   H112  S    
C41   C80   A    
C4    H142  S    
C6    H7    S    
C55   H92   S    
O50   P14   S    
C109  O30   S    
C16   H36   S    
C35   H94   S    
C13   C24   A    
C1    H72   S    
C7    H11   S    
C108  H68   S    
C42   C46   A    
C40   H74   S    
C104  H62   S    
C12   H28   S    
C24   C26   A    
C90   H122  S    
C25   C27   A    
C115  H132  S    
C67   C71   A    
C18   H43   S    
C83   H111  S    
C109  H66   S    
C36   H95   S    
C107  H64   S    
C93   H101  S    
C98   C102  S    
Ba2   O12   S    
Ba1   O1    S    
C10   H19   S    
C87   H119  S    
C82   H102  S    
C59   O3    S    
