data_mof_unit_56718.cif
_audit_creation_date              2013-03-05T15:39:48-0500
_audit_creation_method            fapswitch 2.2
_symmetry_space_group_name_H-M    P1
_symmetry_Int_Tables_number       1
_space_group_crystal_system       triclinic
_cell_length_a                    12.183895
_cell_length_b                    12.616033
_cell_length_c                    7.459101
_cell_angle_alpha                 89.996796
_cell_angle_beta                  108.443986
_cell_angle_gamma                 90.005727
_cell_volume                      1087.66177173

loop_
_atom_site_label
_atom_site_type_symbol
_atom_site_description
_atom_site_fract_x
_atom_site_fract_y
_atom_site_fract_z
_atom_type_partial_charge
O1    O     O_R   0.398880 0.887420 0.621600 -0.577562
O2    O     O_R   0.601120 0.112580 0.378400 -0.577680
O3    O     O_R   0.601120 0.887420 0.378400 -0.577755
O4    O     O_R   0.398880 0.112580 0.621600 -0.577636
O5    O     O_R   0.898880 0.387420 0.621600 -0.577680
O6    O     O_R   0.101120 0.612580 0.378400 -0.577562
O7    O     O_R   0.101120 0.387420 0.378400 -0.577636
O8    O     O_R   0.898880 0.612580 0.621600 -0.577755
O9    O     O_R   0.369080 0.887420 0.305440 -0.525339
O10   O     O_R   0.630920 0.112580 0.694560 -0.525450
O11   O     O_R   0.630920 0.887420 0.694560 -0.525226
O12   O     O_R   0.369080 0.112580 0.305440 -0.525432
O13   O     O_R   0.869080 0.387420 0.305440 -0.525451
O14   O     O_R   0.130920 0.612580 0.694560 -0.525338
O15   O     O_R   0.130920 0.387420 0.694560 -0.525432
O16   O     O_R   0.869080 0.612580 0.305440 -0.525226
C1    C     C_R   0.348208 0.852262 0.453376 0.808175
C2    C     C_R   0.651792 0.147741 0.546624 0.808029
C3    C     C_R   0.651759 0.852240 0.546611 0.808167
C4    C     C_R   0.348204 0.147736 0.453373 0.808157
C5    C     C_R   0.848208 0.352259 0.453376 0.808029
C6    C     C_R   0.151792 0.647738 0.546624 0.808174
C7    C     C_R   0.151796 0.352264 0.546627 0.808157
C8    C     C_R   0.848241 0.647759 0.453389 0.808167
Cu1   Cu    Cu3+1 0.517640 0.000000 0.687200 1.154748
Cu2   Cu    Cu3+1 0.482360 0.000000 0.312800 1.154658
Cu3   Cu    Cu3+1 0.017640 0.500000 0.687200 1.154658
Cu4   Cu    Cu3+1 0.982360 0.500000 0.312800 1.154748
C9    C     C_2   0.270118 0.235129 0.429262 0.050850
C10   C     C_2   0.730009 0.764980 0.570834 0.050200
C11   C     C_2   0.729775 0.235216 0.570658 0.051108
C12   C     C_2   0.270135 0.764858 0.429274 0.050763
C13   C     C_2   0.769991 0.735020 0.429166 0.050200
C14   C     C_2   0.229882 0.264870 0.570738 0.050850
C15   C     C_2   0.229865 0.735142 0.570725 0.050763
C16   C     C_2   0.770225 0.264784 0.429342 0.051108
N1    N     N_2   0.455760 0.000000 0.031460 -0.157150
N2    N     N_2   0.544240 1.000000 0.968540 -0.157177
N3    N     N_2   0.955760 0.500000 0.031460 -0.157177
N4    N     N_2   0.044240 0.500000 0.968540 -0.157150
H1    H     H_    0.376406 0.000004 0.928191 0.287880
H2    H     H_    0.623596 0.999983 0.071810 0.287653
H3    H     H_    0.876404 0.500016 0.928190 0.287653
H4    H     H_    0.123594 0.499996 0.071808 0.287880
N5    N     N_R   0.742421 0.791414 0.253124 0.137704
O17   O     O_R   0.660681 0.756553 0.106401 -0.243607
O18   O     O_R   0.809687 0.867549 0.233237 -0.291060
N6    N     N_R   0.256589 0.207831 0.745975 0.137589
O19   O     O_R   0.337376 0.242462 0.894087 -0.243775
O20   O     O_R   0.189833 0.130686 0.763265 -0.292595
N7    N     N_R   0.256513 0.792222 0.745910 0.137570
O21   O     O_R   0.337310 0.757662 0.894069 -0.243276
O22   O     O_R   0.189696 0.869321 0.763112 -0.292554
N8    N     N_R   0.743999 0.207389 0.254556 0.137414
O23   O     O_R   0.663429 0.241676 0.105875 -0.243755
O24   O     O_R   0.810818 0.130062 0.238380 -0.293635
N9    N     N_R   0.243411 0.292169 0.254024 0.137589
O25   O     O_R   0.162624 0.257537 0.105913 -0.243775
O26   O     O_R   0.310167 0.369314 0.236735 -0.292596
N10   N     N_R   0.757579 0.708586 0.746876 0.137704
O27   O     O_R   0.839319 0.743447 0.893599 -0.243607
O28   O     O_R   0.690313 0.632451 0.766763 -0.291060
N11   N     N_R   0.756000 0.292611 0.745444 0.137414
O29   O     O_R   0.836571 0.258324 0.894125 -0.243755
O30   O     O_R   0.689182 0.369938 0.761619 -0.293635
N12   N     N_R   0.243486 0.707778 0.254090 0.137570
O31   O     O_R   0.162690 0.742338 0.105930 -0.243275
O32   O     O_R   0.310304 0.630679 0.236888 -0.292554

loop_
_geom_bond_atom_site_label_1
_geom_bond_atom_site_label_2
_geom_bond_distance
_ccdc_geom_bond_type
O16   Cu4   1.969181 S    
N12   O32   1.300617 A    
N11   O30   1.300528 A    
Cu2   N1    2.019547 S    
O3    C3    1.289219 A    
N1    N2    1.304820 D    
O14   Cu3   1.968985 S    
O2    C2    1.289292 A    
C13   N5    1.436711 S    
C12   C15   1.349815 D    
O16   C8    1.287116 A    
O15   Cu3   1.969181 S    
C8    C13   1.429937 S    
Cu4   N3    2.019547 S    
Cu3   N4    2.019548 S    
C7    C14   1.430055 S    
O12   C4    1.287119 A    
O13   Cu4   1.968987 S    
O15   C7    1.287120 A    
N12   O31   1.300826 A    
O13   C5    1.287084 A    
O2    Cu2   1.975366 S    
C5    C16   1.429973 S    
O5    Cu3   1.975368 S    
N5    O17   1.301280 A    
N10   O28   1.301176 A    
O1    Cu1   1.975368 S    
C6    C15   1.429927 S    
O11   C3    1.287118 A    
N9    O25   1.300834 A    
C10   N10   1.436711 S    
O10   C2    1.287085 A    
N1    H1    1.028048 S    
O7    C7    1.289292 A    
O10   Cu1   1.968985 S    
N6    O20   1.300621 A    
N6    O19   1.300834 A    
O8    C8    1.289219 A    
C9    N9    1.436344 S    
O9    Cu2   1.968987 S    
O4    Cu1   1.975535 S    
C4    C9    1.430055 S    
N5    O18   1.301176 A    
C15   N7    1.436354 S    
O14   C6    1.287070 A    
Cu1   N2    2.019548 S    
N8    O24   1.300528 A    
N9    O26   1.300620 A    
C14   N6    1.436344 S    
O11   Cu1   1.969181 S    
N3    N4    1.304820 D    
N11   O29   1.300726 A    
O4    C4    1.289292 A    
N2    H2    1.028069 S    
C11   N11   1.436191 S    
N4    H4    1.028048 S    
C16   N8    1.436191 S    
C12   N12   1.436354 S    
O9    C1    1.287068 A    
Cu3   Cu4   2.687805 S    
C1    C12   1.429927 S    
O8    Cu3   1.975535 S    
C11   C16   1.349727 D    
N3    H3    1.028069 S    
C2    C11   1.429973 S    
C10   C13   1.350053 D    
Cu1   Cu2   2.687805 S    
N8    O23   1.300726 A    
C3    C10   1.429936 S    
O1    C1    1.289280 A    
C9    C14   1.349868 D    
O3    Cu2   1.975536 S    
O6    Cu4   1.975366 S    
O7    Cu4   1.975536 S    
N7    O21   1.300826 A    
O12   Cu2   1.969181 S    
N10   O27   1.301280 A    
N7    O22   1.300618 A    
O5    C5    1.289292 A    
O6    C6    1.289280 A    
