data_mof_unit_61908.cif
_audit_creation_date              2012-12-10T17:20:29-0500
_audit_creation_method            fapswitch 2.2
_symmetry_space_group_name_H-M    P1
_symmetry_Int_Tables_number       1
_space_group_crystal_system       triclinic
_cell_length_a                    18.744189
_cell_length_b                    18.652171
_cell_length_c                    18.77717
_cell_angle_alpha                 109.107752
_cell_angle_beta                  109.902664
_cell_angle_gamma                 108.989039
_cell_volume                      5079.02166444

loop_
_atom_site_label
_atom_site_type_symbol
_atom_type_description
_atom_site_fract_x
_atom_site_fract_y
_atom_site_fract_z
_atom_type_partial_charge
C1    C     C_R   0.618836 0.618959 0.499904 0.800274
C2    C     C_3   0.176950 0.469327 0.255064 -0.214403
C3    C     C_3   0.264829 0.551229 0.330816 -0.251273
C4    C     C_3   0.311996 0.499289 0.312973 -0.067744
C5    C     C_R   0.752191 0.761679 0.577487 -0.178500
C6    C     C_R   0.817175 0.824278 0.577146 -0.238078
C7    C     C_R   0.814617 0.812402 0.498566 -0.038264
C8    C     C_R   0.747255 0.736328 0.419581 0.262137
C9    C     C_R   0.683140 0.673100 0.420818 -0.249546
C10   C     C_R   0.685491 0.685739 0.499456 -0.048799
C11   C     C_R   0.681128 0.501847 0.759882 -0.176817
C12   C     C_R   0.380162 0.499597 0.380652 0.784815
C13   C     C_R   0.745077 0.500560 0.823777 -0.177377
C14   C     C_R   0.817090 0.500611 0.816694 -0.007988
C15   C     C_R   0.824295 0.500511 0.744843 -0.178609
C16   C     C_R   0.758810 0.498756 0.679438 -0.178065
C17   C     C_R   0.687496 0.500138 0.687233 -0.011275
C18   C     C_R   0.238697 0.325699 0.496929 0.217938
C19   C     C_R   0.174721 0.263412 0.500631 0.135356
C20   C     C_R   0.184009 0.191289 0.503187 -0.082953
C21   C     C_R   0.255465 0.183064 0.502997 -0.223265
C22   C     C_R   0.317519 0.244156 0.498947 -0.226703
C23   C     C_R   0.379696 0.381306 0.498574 0.799928
C24   C     C_R   0.309971 0.315360 0.496497 -0.104863
C25   C     C_R   0.003633 0.618862 0.122415 0.805039
C26   C     C_R   0.123161 0.499861 0.123265 0.787720
C27   C     C_R   0.004422 0.380986 0.885470 0.792142
C28   C     C_R   0.884236 0.500163 0.883956 0.773401
C29   C     C_R   0.001340 0.881453 0.381980 0.799869
C30   C     C_R   0.881283 0.880705 0.499709 0.822510
C31   C     C_R   0.998218 0.117971 0.617905 0.808267
C32   C     C_R   0.118441 0.121323 0.501960 0.804164
C33   C     C_R   0.002550 0.756955 0.181083 -0.238879
C34   C     C_R   0.619911 0.500025 0.619818 0.783591
C35   C     C_R   0.999879 0.820321 0.243055 -0.178392
C36   C     C_R   0.001882 0.814401 0.315951 -0.044312
C37   C     C_R   0.004936 0.744338 0.326130 -0.258401
C38   C     C_R   0.004814 0.678879 0.262948 0.267764
C39   C     C_R   0.004235 0.685792 0.190137 -0.043637
C40   C     C_R   0.080108 0.322063 0.819230 -0.178842
C41   C     C_R   0.077983 0.256974 0.754301 -0.242111
C42   C     C_R   0.998018 0.185048 0.684693 -0.044912
C43   C     C_R   0.919438 0.177242 0.681215 0.249081
C44   C     C_R   0.922456 0.241022 0.748899 -0.239241
C45   C     C_3   0.325825 0.529109 0.249011 -0.184196
C46   C     C_R   0.002445 0.313790 0.817003 -0.047073
C47   C     C_3   0.277107 0.579103 0.265601 0.321190
C48   C     C_3   0.190542 0.499339 0.191070 -0.064249
C49   C     C_3   0.237667 0.447423 0.173428 -0.196707
C50   C     C_3   0.225331 0.418369 0.238560 0.214129
Cu1   Cu    Cu3+1 0.500500 0.438200 0.438680 0.934587
Cu2   Cu    Cu3+1 0.499500 0.561800 0.561320 0.927830
Cu3   Cu    Cu3+1 0.942090 0.438180 0.003770 0.954580
Cu4   Cu    Cu3+1 0.065710 0.561750 0.003750 0.951489
Cu5   Cu    Cu3+1 0.062280 0.999890 0.562170 0.941949
Cu6   Cu    Cu3+1 0.937720 0.999930 0.437650 0.955184
H1    H     H_    0.631409 0.614234 0.360421 0.140655
H2    H     H_    0.626031 0.502617 0.766263 0.139679
H3    H     H_    0.739178 0.500923 0.879309 0.138717
H4    H     H_    0.879615 0.500147 0.738710 0.138402
H5    H     H_    0.764410 0.497816 0.623621 0.139431
H6    H     H_    0.262451 0.128024 0.504425 0.160529
H7    H     H_    0.372603 0.236696 0.499324 0.161020
H8    H     H_    0.001516 0.762458 0.125094 0.154531
H9    H     H_    0.387809 0.554359 0.248209 0.131491
H10   H     H_    0.997804 0.874662 0.234991 0.147395
H11   H     H_    0.006689 0.740113 0.382865 0.139164
H12   H     H_    0.142307 0.377871 0.872094 0.146753
H13   H     H_    0.138760 0.263271 0.757717 0.152408
H14   H     H_    0.862266 0.234729 0.747246 0.146019
H15   H     H_    0.224868 0.404553 0.108155 0.132685
H16   H     H_    0.114997 0.443146 0.255680 0.153151
H17   H     H_    0.277162 0.594560 0.395682 0.156356
H18   H     H_    0.754690 0.771812 0.638684 0.151127
H19   H     H_    0.868627 0.882790 0.637953 0.151013
O1    O     O_R   0.590610 0.537990 0.448230 -0.587176
O2    O     O_R   0.055400 0.642330 0.093210 -0.594751
O3    O     O_R   0.042570 0.447790 0.094640 -0.579232
O4    O     O_R   0.146970 0.552140 0.094620 -0.577350
O5    O     O_R   0.952400 0.357600 0.914310 -0.588160
O6    O     O_R   0.056800 0.461950 0.914290 -0.587893
O7    O     O_R   0.860830 0.447790 0.912900 -0.589270
O8    O     O_R   0.965230 0.552140 0.912880 -0.586268
O9    O     O_R   0.053290 0.909730 0.462990 -0.588990
O10   O     O_R   0.948100 0.909770 0.357840 -0.578655
O11   O     O_R   0.962410 0.909720 0.552480 -0.598309
O12   O     O_R   0.589770 0.642360 0.551790 -0.586667
O13   O     O_R   0.857220 0.909750 0.447330 -0.552155
O14   O     O_R   0.051900 0.090060 0.641980 -0.595882
O15   O     O_R   0.946710 0.090090 0.536830 -0.568292
O16   O     O_R   0.142780 0.090070 0.552500 -0.587627
O17   O     O_R   0.037590 0.090110 0.447350 -0.598706
O18   O     O_R   0.409550 0.447810 0.357350 -0.594817
O19   O     O_R   0.408710 0.552190 0.460910 -0.592421
O20   O     O_R   0.410230 0.357640 0.448210 -0.589876
O21   O     O_R   0.409390 0.462010 0.551770 -0.577336
O22   O     O_R   0.591290 0.447810 0.539090 -0.584982
O23   O     O_R   0.590450 0.552190 0.642650 -0.586285
O24   O     O_R   0.951000 0.537980 0.093230 -0.559142
N1    N     N_2   0.303800 0.666487 0.278460 -0.414263
H20   H     H_    0.257387 0.684934 0.277051 0.244080
C51   C     C_3   0.389919 0.731891 0.351362 -0.684086
H21   H     H_    0.406169 0.795443 0.353060 0.228346
H22   H     H_    0.439283 0.714057 0.344760 0.231641
H23   H     H_    0.392358 0.738994 0.413386 0.219413
N2    N     N_2   0.229115 0.396293 0.489579 -0.448896
H24   H     H_    0.244938 0.411612 0.447014 0.239508
C52   C     C_3   0.257416 0.471258 0.569933 -0.635687
H25   H     H_    0.311271 0.529956 0.581870 0.230347
H26   H     H_    0.280721 0.461247 0.626927 0.226238
H27   H     H_    0.202280 0.483683 0.564344 0.214571
C53   C     C_3   0.098901 0.275677 0.503541 -0.384543
C54   C     C_3   0.108487 0.302495 0.593713 -0.821469
H28   H     H_    0.115949 0.255171 0.614693 0.234170
H29   H     H_    0.166496 0.367748 0.642074 0.246337
H30   H     H_    0.049790 0.305298 0.592361 0.243419
H31   H     H_    0.093475 0.326067 0.486773 0.226050
H32   H     H_    0.035566 0.216280 0.453517 0.215464
N3    N     N_2   0.006132 0.607158 0.273637 -0.417824
H33   H     H_    0.973106 0.589669 0.304585 0.245539
C55   C     C_3   0.092123 0.616669 0.311986 -0.690786
H34   H     H_    0.135338 0.675490 0.377636 0.219432
H35   H     H_    0.120739 0.621902 0.269860 0.214991
H36   H     H_    0.087572 0.558717 0.318769 0.221876
N4    N     N_2   0.837922 0.103548 0.612272 -0.432615
H37   H     H_    0.799291 0.075346 0.634099 0.244638
C56   C     C_3   0.790862 0.119575 0.545778 -0.655759
H38   H     H_    0.770705 0.166975 0.572782 0.208297
H39   H     H_    0.731660 0.057560 0.491326 0.224783
H40   H     H_    0.831904 0.145509 0.519720 0.244889
C57   C     C_3   0.197561 0.326263 0.225264 -0.403206
C58   C     C_3   0.106788 0.261097 0.146423 -0.821747
H41   H     H_    0.058011 0.278501 0.155504 0.252579
H42   H     H_    0.105474 0.260057 0.086495 0.250296
H43   H     H_    0.088837 0.194905 0.138329 0.241643
H44   H     H_    0.245018 0.306722 0.215694 0.215218
H45   H     H_    0.197839 0.325787 0.284352 0.187475
N5    N     N_2   0.744381 0.722648 0.339259 -0.422343
H46   H     H_    0.682074 0.686758 0.286372 0.246817
C59   C     C_3   0.800893 0.690207 0.323360 -0.683698
H47   H     H_    0.778066 0.623421 0.314764 0.218075
H48   H     H_    0.868891 0.733577 0.378356 0.216301
H49   H     H_    0.800186 0.688012 0.263300 0.234742

loop_
_geom_bond_atom_site_label_1
_geom_bond_atom_site_label_2
_ccdc_geom_bond_type
C1    O12   A    
C53   H32   S    
Cu5   Cu6   S    
Cu1   O22   S    
C31   C42   S    
C41   C42   A    
C35   C36   A    
C59   H49   S    
C43   N4    S    
C18   N2    S    
Cu2   O21   S    
C6    H19   S    
C19   C53   S    
C52   H25   S    
C40   C46   A    
C29   C36   S    
C26   O3    A    
C25   O2    A    
C5    C6    A    
C36   C37   A    
C59   H48   S    
C54   H28   S    
C33   H8    S    
C53   H31   S    
Cu6   O13   S    
C32   O16   A    
N2    H24   S    
C15   C16   A    
C34   O22   A    
C23   O21   A    
C3    C4    S    
C51   H23   S    
C8    N5    S    
C18   C19   A    
C15   H4    S    
Cu2   O23   S    
C5    H18   S    
C9    H1    S    
Cu4   O8    S    
C55   H36   S    
Cu5   O16   S    
C2    C50   S    
C33   C35   A    
C22   H7    S    
C25   O24   A    
C19   C20   A    
C42   C43   A    
C52   H26   S    
C58   H41   S    
C31   O14   A    
C16   H5    S    
C23   C24   S    
C44   H14   S    
C4    C12   S    
C11   H2    S    
C9    C10   A    
C29   O10   A    
C26   C48   S    
C54   H30   S    
Cu6   O15   S    
C7    C30   S    
C21   C22   A    
C28   O8    A    
C12   O19   A    
C2    H16   S    
C53   C54   S    
C44   C46   A    
C4    C45   S    
C45   C47   S    
C38   C39   A    
C55   H34   S    
C28   O7    A    
Cu1   Cu2   S    
C27   O6    A    
Cu3   O5    S    
Cu1   O1    S    
C29   O9    A    
C57   H44   S    
C50   C57   S    
C16   C17   A    
C35   H10   S    
C2    C48   S    
Cu3   Cu4   S    
Cu3   O24   S    
C47   N1    S    
C4    C50   S    
Cu3   O7    S    
C51   H22   S    
C43   C44   A    
C56   H39   S    
C37   C38   A    
C57   H45   S    
C47   C48   S    
C45   C49   S    
C31   O15   A    
N1    C51   S    
C8    C9    A    
C33   C39   A    
C59   H47   S    
Cu2   O19   S    
C21   H6    S    
N3    C55   S    
N5    C59   S    
Cu1   O18   S    
C38   N3    S    
C27   C46   S    
C48   C49   S    
C27   O5    A    
C49   H15   S    
N4    H37   S    
C18   C24   A    
C12   O18   A    
C30   O11   A    
C17   C34   S    
C30   O13   A    
C56   H38   S    
C41   H13   S    
Cu4   O4    S    
C20   C32   S    
C11   C17   A    
C1    O1    A    
Cu2   O12   S    
C1    C10   S    
N3    H33   S    
C6    C7    A    
C13   H3    S    
C26   O4    A    
C52   H27   S    
Cu4   O2    S    
Cu5   O11   S    
C2    C3    S    
C56   H40   S    
C5    C10   A    
Cu5   O14   S    
C25   C39   S    
C45   H9    S    
C11   C13   A    
Cu6   O10   S    
C32   O17   A    
N2    C52   S    
C58   H43   S    
C37   H11   S    
C3    C47   S    
N1    H20   S    
C34   O23   A    
C23   O20   A    
Cu3   O3    S    
C22   C24   A    
C51   H21   S    
C3    H17   S    
C55   H35   S    
C7    C8    A    
N5    H46   S    
Cu6   O17   S    
C20   C21   A    
C58   H42   S    
C49   C50   S    
C40   H12   S    
N4    C56   S    
C14   C15   A    
C40   C41   A    
C14   C28   S    
Cu5   O9    S    
C13   C14   A    
Cu4   O6    S    
C57   C58   S    
Cu1   O20   S    
C54   H29   S    
