data_mof_unit_6230.cif
_audit_creation_date              2012-12-11T15:48:47-0500
_audit_creation_method            fapswitch 2.2
_symmetry_space_group_name_H-M    P1
_symmetry_Int_Tables_number       1
_space_group_crystal_system       triclinic
_cell_length_a                    11.028348
_cell_length_b                    10.941758
_cell_length_c                    18.743647
_cell_angle_alpha                 90.6527
_cell_angle_beta                  89.885392
_cell_angle_gamma                 60.306295
_cell_volume                      1964.57885118

loop_
_atom_site_label
_atom_site_type_symbol
_atom_type_description
_atom_site_fract_x
_atom_site_fract_y
_atom_site_fract_z
_atom_type_partial_charge
C1    C     C_R   0.241721 0.645750 0.611206 0.544200
C2    C     C_R   0.571143 0.143171 0.708722 -0.186677
C3    C     C_R   0.574899 0.150193 0.782280 -0.182280
C4    C     C_R   0.655144 0.623725 0.600065 0.539199
C5    C     C_3   0.919413 0.140869 0.775565 -0.294326
C6    C     C_3   0.904380 0.159440 0.695301 -0.276074
C7    C     C_R   0.673912 0.149486 0.667816 0.014138
C8    C     C_R   0.187670 0.668860 0.836985 0.016579
C9    C     C_R   0.162339 0.577730 0.795827 -0.001062
C10   C     C_R   0.168527 0.576557 0.722063 -0.014973
C11   C     C_R   0.221233 0.765473 0.727747 -0.153452
C12   C     C_3   0.667553 0.586363 0.802041 -0.222714
C13   C     C_R   0.223565 0.761764 0.802821 -0.018681
C14   C     C_3   0.240011 0.421990 0.798938 -0.287581
C15   C     C_3   0.244884 0.420554 0.718317 -0.268064
C16   C     C_R   0.629666 0.224036 0.600811 0.541402
C17   C     C_R   0.198245 0.669135 0.686394 -0.001109
C18   C     C_R   0.652066 0.657655 0.164956 0.015858
C19   C     C_R   0.747545 0.535887 0.201293 0.030493
C20   C     C_R   0.743287 0.530036 0.274110 0.038243
C21   C     C_R   0.531831 0.752877 0.278218 -0.161926
C22   C     C_R   0.535225 0.759712 0.203272 -0.172510
C23   C     C_3   0.727463 0.687503 0.807364 0.047287
C24   C     C_3   0.904710 0.455072 0.201699 -0.266107
C25   C     C_3   0.897767 0.451452 0.281954 -0.280353
C26   C     C_R   0.643653 0.642112 0.314522 0.019639
C27   C     C_R   0.633921 0.191774 0.168218 0.018875
C28   C     C_R   0.220418 0.649144 0.402240 0.556888
C29   C     C_R   0.516744 0.210016 0.206417 0.019782
C30   C     C_R   0.514047 0.220547 0.279392 0.035279
C31   C     C_R   0.729867 0.224703 0.277567 -0.153719
C32   C     C_R   0.731249 0.217719 0.203206 -0.155009
C33   C     C_3   0.447212 0.122088 0.208477 -0.270647
C34   C     C_3   0.679755 0.653278 0.674038 0.059315
C35   C     C_3   0.444064 0.135116 0.288827 -0.279318
C36   C     C_R   0.626820 0.213313 0.316356 0.021889
C37   C     C_R   0.116920 0.690921 0.188835 0.025391
C38   C     C_R   0.070061 0.811202 0.232037 0.047374
C39   C     C_R   0.083218 0.802643 0.304545 0.014926
C40   C     C_R   0.639396 0.619824 0.390662 0.545736
C41   C     C_R   0.171405 0.551956 0.294819 -0.164698
C42   C     C_R   0.158479 0.561603 0.220873 -0.179622
C43   C     C_3   0.102224 0.928393 0.227873 -0.264665
C44   C     C_3   0.113095 0.922373 0.308150 -0.273699
C45   C     C_3   0.838677 0.595521 0.686532 -0.229679
C46   C     C_R   0.146972 0.670921 0.336194 0.017577
C47   C     C_R   0.704766 0.095869 0.894063 0.534776
C48   C     C_R   0.753884 0.708541 0.882886 0.551582
C49   C     C_R   0.121419 0.705061 0.907020 0.540329
C50   C     C_R   0.672565 0.111870 0.102160 0.550570
C51   C     C_R   0.695175 0.688237 0.096725 0.550154
C52   C     C_R   0.612152 0.237826 0.392408 0.546486
C53   C     C_R   0.088939 0.712132 0.113892 0.547731
C54   C     C_3   0.630659 0.830581 0.771652 -0.240128
C55   C     C_3   0.600566 0.811283 0.693302 -0.248313
C56   C     C_3   0.626667 0.577750 0.724687 -0.227826
C57   C     C_3   0.864712 0.621134 0.764366 -0.242573
C58   C     C_3   0.306573 0.818256 0.843109 -0.230352
C59   C     C_3   0.229980 0.971441 0.871858 -0.269020
C60   C     C_3   0.232644 0.077039 0.819829 -0.471373
C61   C     C_R   0.694815 0.132745 0.818156 0.008810
C62   C     C_R   0.812001 0.096890 0.774911 0.017819
C63   C     C_R   0.799498 0.112983 0.701490 0.016847
Cr1   Cr    Cr6+3 0.392960 0.397920 0.502240 1.002477
Cr2   Cr    Cr6+3 0.398340 0.708480 0.501250 1.000136
Cr3   Cr    Cr6+3 0.708670 0.393570 0.496460 1.000740
Cr4   Cr    Cr6+3 0.937650 0.938540 0.007610 0.992253
Cr5   Cr    Cr6+3 0.625330 0.937370 0.994520 0.990658
Cr6   Cr    Cr6+3 0.937940 0.625230 0.001190 0.997815
H1    H     H_    0.686876 0.890391 0.772683 0.135384
H2    H     H_    0.255115 0.831717 0.702033 0.131250
H3    H     H_    0.532315 0.892497 0.801658 0.140883
H4    H     H_    0.175729 0.379382 0.821383 0.133657
H5    H     H_    0.342159 0.385232 0.825032 0.140449
H6    H     H_    0.350369 0.382588 0.696076 0.179203
H7    H     H_    0.182563 0.377609 0.692950 0.128604
H8    H     H_    0.445794 0.836399 0.307600 0.121047
H9    H     H_    0.453271 0.849462 0.176374 0.114376
H10   H     H_    0.952059 0.517978 0.183640 0.178382
H11   H     H_    0.948154 0.349454 0.175970 0.121610
H12   H     H_    0.669261 0.465908 0.708957 0.125677
H13   H     H_    0.938770 0.343763 0.302848 0.130482
H14   H     H_    0.486157 0.856053 0.686381 0.123563
H15   H     H_    0.937119 0.515232 0.309489 0.145217
H16   H     H_    0.811456 0.233600 0.304559 0.129160
H17   H     H_    0.816047 0.217272 0.173941 0.119572
H18   H     H_    0.517817 0.013122 0.189553 0.170222
H19   H     H_    0.341779 0.175611 0.184169 0.127161
H20   H     H_    0.336780 0.197448 0.311225 0.132622
H21   H     H_    0.511683 0.033771 0.315815 0.139111
H22   H     H_    0.215228 0.448892 0.318170 0.141405
H23   H     H_    0.942522 0.519909 0.788134 0.137225
H24   H     H_    0.186974 0.467926 0.188961 0.121354
H25   H     H_    0.013453 0.027001 0.208537 0.140956
H26   H     H_    0.634814 0.868989 0.657463 0.122509
H27   H     H_    0.203417 0.896220 0.200512 0.136695
H28   H     H_    0.219437 0.893476 0.325977 0.161823
H29   H     H_    0.027937 0.016575 0.335497 0.128429
H30   H     H_    0.905440 0.695609 0.765447 0.123860
H31   H     H_    0.878498 0.647431 0.649995 0.121649
H32   H     H_    0.748158 0.479639 0.818784 0.129868
H33   H     H_    0.579235 0.616767 0.839249 0.115033
H34   H     H_    0.899357 0.480379 0.675238 0.133968
H35   H     H_    0.511567 0.626636 0.720960 0.121021
H36   H     H_    0.019289 0.048590 0.788157 0.171234
H37   H     H_    0.328769 0.083260 0.827011 0.142475
H38   H     H_    0.226901 0.048274 0.763446 0.146484
H39   H     H_    0.142911 0.183197 0.831424 0.132986
H40   H     H_    0.121578 0.006605 0.888670 0.196957
H41   H     H_    0.283388 0.976116 0.921249 0.149474
H42   H     H_    0.358210 0.748501 0.889116 0.133484
H43   H     H_    0.391200 0.806635 0.807606 0.134921
H44   H     H_    0.479181 0.148956 0.684781 0.137043
H45   H     H_    0.486715 0.156694 0.810553 0.140078
H46   H     H_    0.888698 0.238575 0.806951 0.125533
H47   H     H_    0.860950 0.269786 0.678507 0.154747
H48   H     H_    0.998897 0.081917 0.665147 0.137666
O1    O     O_R   0.507380 0.255700 0.581440 -0.537969
O2    O     O_R   0.837170 0.593410 0.915250 -0.526851
O3    O     O_R   0.065200 0.635530 0.931570 -0.510389
O4    O     O_R   0.280320 0.527350 0.578930 -0.502970
O5    O     O_R   0.068260 0.828890 0.091840 -0.522454
O6    O     O_R   0.798870 0.057410 0.079340 -0.505851
O7    O     O_R   0.584930 0.080350 0.076780 -0.522405
O8    O     O_R   0.626960 0.809650 0.067060 -0.504144
O9    O     O_R   0.816040 0.596610 0.076510 -0.523057
O10   O     O_R   0.045610 0.638500 0.081060 -0.513702
O11   O     O_3   0.833640 0.833710 0.001100 -0.259567
O12   O     O_R   0.524480 0.695810 0.424040 -0.509693
O13   O     O_R   0.260510 0.739590 0.584590 -0.532580
O14   O     O_R   0.532300 0.695080 0.573820 -0.508934
O15   O     O_R   0.744840 0.503500 0.576370 -0.533354
O16   O     O_R   0.699120 0.276560 0.571960 -0.503135
O17   O     O_R   0.498940 0.256500 0.419860 -0.520183
O18   O     O_R   0.272500 0.528080 0.429150 -0.510012
O19   O     O_R   0.252060 0.740380 0.423010 -0.525451
O20   O     O_R   0.736390 0.504290 0.414790 -0.519591
O21   O     O_R   0.691300 0.277290 0.422170 -0.510930
O22   O     O_3   0.499990 0.499990 0.499980 -0.249198
O23   O     O_R   0.089400 0.825690 0.930570 -0.531592
O24   O     O_R   0.818460 0.054440 0.929850 -0.502715
O25   O     O_R   0.606060 0.077150 0.915510 -0.539672
O26   O     O_R   0.646550 0.806680 0.917570 -0.510834

loop_
_geom_bond_atom_site_label_1
_geom_bond_atom_site_label_2
_ccdc_geom_bond_type
C15   H6    S    
C40   O12   A    
C34   C56   S    
C8    C13   A    
C31   H16   S    
C57   H23   S    
C27   C29   A    
C28   O18   A    
C52   O17   A    
C41   C42   A    
C2    C7    A    
C21   C26   A    
Cr5   O7    S    
Cr2   O13   S    
C56   H12   S    
C4    O15   A    
C5    H36   S    
Cr3   O20   S    
C47   O25   A    
C45   C57   S    
C37   C38   A    
C30   C35   S    
C58   H43   S    
C14   H5    S    
C33   H19   S    
C53   O5    A    
C31   C36   A    
C38   C39   A    
C2    H44   S    
C11   H2    S    
C49   O3    A    
C20   C25   S    
C10   C17   A    
Cr1   O4    S    
C42   H24   S    
C29   C33   S    
C59   H41   S    
Cr1   O1    S    
Cr5   O26   S    
C18   C19   A    
C37   C42   A    
C53   O10   A    
C59   H40   S    
C44   H29   S    
C24   H11   S    
Cr3   O22   S    
C19   C20   A    
Cr6   O11   S    
C8    C9    A    
C54   H1    S    
C25   H15   S    
C52   O21   A    
C41   C46   A    
Cr5   O25   S    
C48   O2    A    
C45   H34   S    
C9    C10   A    
Cr5   O11   S    
C6    H48   S    
C36   C52   S    
C27   C50   S    
C37   C53   S    
C15   H7    S    
Cr1   O18   S    
C59   C60   S    
C18   C22   A    
C21   C22   A    
C5    H46   S    
C16   O16   A    
Cr2   O14   S    
C18   C51   S    
C4    O14   A    
Cr3   O15   S    
C3    C61   A    
Cr1   O17   S    
C58   H42   S    
C51   O8    A    
C14   H4    S    
C50   O7    A    
C24   C25   S    
C56   H35   S    
C55   H26   S    
C1    O13   A    
C12   C23   S    
C13   C58   S    
C58   C59   S    
C3    H45   S    
C48   O26   A    
C10   C15   S    
C6    C63   S    
C9    C14   S    
C12   H33   S    
C29   C30   A    
C16   O1    A    
Cr3   O16   S    
C44   H28   S    
C6    H47   S    
C24   H10   S    
C31   C32   A    
Cr3   O21   S    
C32   H17   S    
C40   O20   A    
C62   C63   A    
C43   H27   S    
C34   C55   S    
C34   C45   S    
Cr4   O23   S    
C7    C63   A    
C12   C56   S    
C60   H38   S    
C39   C46   A    
C35   H20   S    
C7    C16   S    
C41   H22   S    
Cr6   O9    S    
C43   C44   S    
C25   H13   S    
C55   H14   S    
Cr4   O24   S    
Cr4   O5    S    
C60   H37   S    
C23   C54   S    
C23   C57   S    
C54   C55   S    
C11   C17   A    
C23   C48   S    
C27   C32   A    
C28   O19   A    
C51   O9    A    
C50   O6    A    
C45   H31   S    
Cr4   O6    S    
C47   C61   S    
Cr2   O12   S    
C39   C44   S    
C47   O24   A    
Cr6   O3    S    
C1    C17   S    
C30   C36   A    
C28   C46   S    
C2    C3    A    
C33   H18   S    
C12   H32   S    
Cr4   O11   S    
C11   C13   A    
C26   C40   S    
C5    C6    S    
C22   H9    S    
C20   C26   A    
C8    C49   S    
C33   C35   S    
Cr6   O2    S    
C5    C62   S    
C19   C24   S    
C4    C34   S    
C61   C62   A    
C1    O4    A    
Cr2   O19   S    
Cr2   O22   S    
C35   H21   S    
C38   C43   S    
C54   H3    S    
C43   H25   S    
Cr6   O10   S    
C60   H39   S    
C49   O23   A    
C21   H8    S    
C14   C15   S    
Cr5   O8    S    
Cr1   O22   S    
C57   H30   S    
