data_mof_unit_13868.cif
_audit_creation_date              2012-12-11T15:29:52-0500
_audit_creation_method            fapswitch 2.2
_symmetry_space_group_name_H-M    P1
_symmetry_Int_Tables_number       1
_space_group_crystal_system       triclinic
_cell_length_a                    8.354283
_cell_length_b                    15.351931
_cell_length_c                    19.121463
_cell_angle_alpha                 98.087249
_cell_angle_beta                  95.463312
_cell_angle_gamma                 97.941011
_cell_volume                      2388.24699213

loop_
_atom_site_label
_atom_site_type_symbol
_atom_type_description
_atom_site_fract_x
_atom_site_fract_y
_atom_site_fract_z
_atom_type_partial_charge
Ba1   Ba    Ba6+2 0.161760 0.544680 0.467770 1.752537
Ba2   Ba    Ba6+2 0.648420 0.455310 0.532170 1.794689
C1    C     C_3   0.283896 0.802859 0.212316 0.380546
C2    C     C_R   0.103251 0.081412 0.537818 -0.052725
C3    C     C_R   0.963566 0.897251 0.531754 -0.008459
C4    C     C_3   0.962385 0.789069 0.333215 0.342599
C5    C     C_R   0.113732 0.937423 0.574684 0.077692
C6    C     C_R   0.189551 0.021735 0.566400 -0.002483
C7    C     C_R   0.893875 0.803080 0.524607 -0.037991
C8    C     C_R   0.738181 0.777164 0.486537 -0.263605
C9    C     C_R   0.923080 0.204894 0.480780 0.106932
C10   C     C_R   0.867710 0.110670 0.466703 -0.077459
C11   C     C_R   0.948073 0.049663 0.500751 0.036358
C12   C     C_3   0.374763 0.765083 0.273963 0.290091
C13   C     C_R   0.732032 0.076201 0.420279 -0.071525
C14   C     C_R   0.640978 0.993884 0.424247 0.360428
C15   C     C_R   0.714855 0.927847 0.458399 -0.138225
C16   C     C_3   0.965250 0.883080 0.315074 -0.352150
C17   C     C_R   0.876881 0.956899 0.495209 -0.023115
C18   C     C_R   0.645932 0.835574 0.455410 0.016344
C19   C     C_R   0.064634 0.234030 0.528360 -0.131548
C20   C     C_R   0.609373 0.545421 0.305767 -0.290150
C21   C     C_R   0.451779 0.500762 0.281808 0.065358
C22   C     C_R   0.397051 0.489049 0.208224 -0.049458
C23   C     C_3   0.468446 0.729332 0.642706 0.253296
C24   C     C_R   0.500689 0.518114 0.158832 -0.007555
C25   C     C_R   0.661162 0.557309 0.184450 -0.175838
C26   C     C_R   0.714560 0.571746 0.256910 0.005281
C27   C     C_R   0.506772 0.571404 0.039860 -0.019821
C28   C     C_3   0.772308 0.355398 0.319358 0.380292
C29   C     C_R   0.456834 0.562986 0.967163 -0.055048
C30   C     C_R   0.347981 0.488564 0.931646 0.047296
C31   C     C_R   0.288908 0.423206 0.971913 -0.075466
C32   C     C_R   0.335984 0.432837 0.045429 -0.052321
C33   C     C_R   0.445971 0.507218 0.080622 0.096617
C34   C     C_3   0.557973 0.823712 0.649581 -0.444495
C35   C     C_R   0.139292 0.435483 0.824421 -0.071495
C36   C     C_R   0.091027 0.423748 0.751221 0.072110
C37   C     C_R   0.349947 0.508312 0.734034 0.002647
C38   C     C_R   0.400311 0.516968 0.807164 -0.101270
C39   C     C_R   0.296282 0.479489 0.853346 0.018618
C40   C     C_3   0.721505 0.341314 0.238584 -0.244769
C41   C     C_R   0.200198 0.456561 0.706121 -0.160639
C42   C     C_3   0.917511 0.715965 0.696462 0.696449
C43   C     C_3   0.900103 0.798182 0.751341 -0.205027
C44   C     C_3   0.351721 0.254183 0.311384 0.731077
C45   C     C_3   0.945815 0.218354 0.731363 0.352844
C46   C     C_3   0.353626 0.176857 0.251681 -0.322787
C47   C     C_3   0.794675 0.267441 0.195096 -0.170875
C48   C     C_3   0.957847 0.303010 0.171977 -0.374043
C49   C     C_3   0.052252 0.838940 0.804151 -0.198791
C50   C     C_3   0.035410 0.820166 0.879794 -0.314328
C51   C     C_3   0.560041 0.778353 0.269851 -0.288430
C52   C     C_3   0.609730 0.763115 0.194674 -0.418475
C53   C     C_3   0.732662 0.076620 0.720208 -0.172583
C54   C     C_3   0.728091 0.051340 0.639914 -0.378791
C55   C     C_3   0.924065 0.130016 0.836076 -0.222439
C56   C     C_3   0.901504 0.126130 0.754324 0.010354
C57   C     C_3   0.807755 0.181975 0.875487 -0.385707
C58   C     C_3   0.173055 0.904750 0.641732 -0.222957
C59   C     C_3   0.283063 0.971602 0.700194 -0.482055
C60   C     C_3   0.384857 0.271635 0.721767 0.425797
C61   C     C_3   0.395169 0.248842 0.796654 -0.380215
C62   C     C_R   0.165718 0.173513 0.549100 -0.001476
H1    H     H_    0.328625 0.693057 0.270707 0.098629
H2    H     H_    0.442716 0.194632 0.214882 0.044139
H3    H     H_    0.361543 0.859379 0.196067 0.045073
H4    H     H_    0.490387 0.695505 0.589919 0.061606
H5    H     H_    0.338794 0.731038 0.645505 0.095165
H6    H     H_    0.562391 0.859492 0.704517 0.133144
H7    H     H_    0.681419 0.822078 0.633945 0.058876
H8    H     H_    0.497843 0.860096 0.611223 0.109111
H9    H     H_    0.180857 0.832997 0.230726 0.089502
H10   H     H_    0.901630 0.881648 0.261247 0.116982
H11   H     H_    0.988492 0.208697 0.677874 -0.068258
H12   H     H_    0.587588 0.327182 0.228380 0.065706
H13   H     H_    0.047273 0.255984 0.770187 -0.063051
H14   H     H_    0.992399 0.085165 0.734700 0.030437
H15   H     H_    0.259141 0.282215 0.705753 -0.174549
H16   H     H_    0.469539 0.334084 0.721992 0.073402
H17   H     H_    0.348495 0.299814 0.832852 0.062563
H18   H     H_    0.523645 0.247500 0.816242 0.123964
H19   H     H_    0.061244 0.789973 0.376364 0.130147
H20   H     H_    0.321809 0.182886 0.797077 0.098853
H21   H     H_    0.311952 0.044813 0.591048 0.090522
H22   H     H_    0.685861 0.119117 0.385631 0.147291
H23   H     H_    0.755970 0.404597 0.218550 0.065591
H24   H     H_    0.684435 0.708054 0.482332 0.040242
H25   H     H_    0.107797 0.304803 0.541496 0.055139
H26   H     H_    0.519392 0.553675 0.827469 0.107439
H27   H     H_    0.502676 0.616067 0.939283 0.087840
H28   H     H_    0.592530 0.629526 0.063773 0.091130
H29   H     H_    0.846964 0.769809 0.354614 -0.070583
H30   H     H_    0.275595 0.454343 0.189430 0.096385
H31   H     H_    0.207915 0.363604 0.946616 0.052847
H32   H     H_    0.289304 0.380790 0.074206 0.049728
H33   H     H_    0.052703 0.411341 0.858564 0.050410
H34   H     H_    0.799999 0.694199 0.662533 -0.026036
H35   H     H_    0.746872 0.575950 0.148095 0.116509
H36   H     H_    0.162657 0.448068 0.649512 0.059277
H37   H     H_    0.654488 0.553372 0.361596 0.063216
H38   H     H_    0.905133 0.923775 0.353695 0.082184
H39   H     H_    0.091482 0.917163 0.317383 0.217383
H40   H     H_    0.688434 0.395103 0.346315 -0.103734
H41   H     H_    0.895344 0.394531 0.330158 0.104263
H42   H     H_    0.940295 0.348910 0.132831 0.121096
H43   H     H_    0.040711 0.339723 0.218383 0.199656
H44   H     H_    0.014358 0.246932 0.146936 0.114315
H45   H     H_    0.795319 0.779742 0.780895 0.136839
H46   H     H_    0.808824 0.211314 0.224809 0.168094
H47   H     H_    0.709648 0.239795 0.146254 0.098875
H48   H     H_    0.221906 0.669059 0.753548 0.310989
H49   H     H_    0.148916 0.849964 0.914969 0.128738
H50   H     H_    0.932625 0.850355 0.900631 0.115271
H51   H     H_    0.013814 0.747700 0.881499 0.219706
H52   H     H_    0.163530 0.816032 0.785911 0.153982
H53   H     H_    0.069574 0.912511 0.806844 0.096044
H54   H     H_    0.039116 0.105152 0.311696 0.326753
H55   H     H_    0.249405 0.705463 0.024335 0.366626
H56   H     H_    0.864017 0.851797 0.723456 0.014518
H57   H     H_    0.531067 0.704610 0.163279 0.189523
H58   H     H_    0.601142 0.822188 0.167955 0.162121
H59   H     H_    0.736904 0.750570 0.196014 0.178960
H60   H     H_    0.615719 0.846416 0.295917 0.133980
H61   H     H_    0.608622 0.729311 0.299590 0.052498
H62   H     H_    0.759251 0.111080 0.614492 0.158599
H63   H     H_    0.815717 0.004640 0.629212 0.105232
H64   H     H_    0.605548 0.017960 0.615616 0.130057
H65   H     H_    0.704307 0.014342 0.743018 0.083133
H66   H     H_    0.636580 0.117663 0.732076 0.184236
H67   H     H_    0.470806 0.270430 0.344021 0.016398
H68   H     H_    0.838496 0.185034 0.933656 0.116506
H69   H     H_    0.818893 0.251195 0.863828 0.147708
H70   H     H_    0.680621 0.147757 0.860921 0.123099
H71   H     H_    0.907712 0.061027 0.848718 0.108883
H72   H     H_    0.051091 0.160463 0.857260 0.092764
H73   H     H_    0.404473 0.989755 0.683704 0.139845
H74   H     H_    0.228046 0.032477 0.713919 0.140810
H75   H     H_    0.303673 0.941072 0.748705 0.125735
H76   H     H_    0.063790 0.884701 0.665932 0.114973
H77   H     H_    0.238793 0.849860 0.627849 0.164973
H78   H     H_    0.231914 0.157694 0.220113 0.108023
H79   H     H_    0.338944 0.108789 0.444916 0.401640
H80   H     H_    0.388261 0.118616 0.273957 0.193780
O1    O     O_2   0.165020 0.721890 0.541560 -0.468776
O2    O     O_2   0.756248 0.427987 0.748072 -0.418166
O3    O     O_3   0.811946 0.264745 0.728662 -0.610513
O4    O     O_3   0.893030 0.608480 0.539180 -0.461488
O5    O     O_3   0.426670 0.454500 0.415370 -0.472068
O6    O     O_2   0.638230 0.542350 0.670940 -0.370999
O7    O     O_3   0.521275 0.687698 0.699486 -0.654509
O8    O     O_2   0.511198 0.178594 0.547893 -0.458346
O9    O     O_3   0.428470 0.201848 0.675592 -0.615446
O10   O     O_3   0.389120 0.667500 0.413900 -0.501259
O11   O     O_2   0.328044 0.813980 0.474343 -0.424162
O12   O     O_3   0.312177 0.326691 0.281332 -0.689490
O13   O     O_3   0.046734 0.730352 0.655285 -0.692704
O14   O     O_3   0.337635 0.810627 0.338937 -0.550094
O15   O     O_2   0.172060 0.457600 0.329040 -0.455806
O16   O     O_3   0.964390 0.622060 0.377370 -0.508397
O17   O     O_2   0.048529 0.565018 0.252529 -0.443669
O18   O     O_2   0.836640 0.608333 0.791265 -0.307316
O19   O     O_2   0.954347 0.552993 0.682957 -0.317492
O20   O     O_3   0.147567 0.650590 0.787860 -0.562924
O21   O     O_2   0.271071 0.263797 0.436873 -0.358626
O22   O     O_2   0.063139 0.273850 0.341460 -0.376484
O23   O     O_3   0.981099 0.729340 0.272281 -0.581712
O24   O     O_3   0.124687 0.116373 0.352861 -0.531687
O25   O     O_2   0.213293 0.629941 0.146118 -0.318406
O26   O     O_2   0.027510 0.732193 0.115305 -0.293249
O27   O     O_3   0.307562 0.746508 0.066514 -0.548952
O28   O     O_2   0.407250 0.970944 0.314134 -0.346417
O29   O     O_2   0.307517 0.951726 0.429164 -0.302355
O30   O     O_3   0.415832 0.106293 0.408982 -0.486908
O31   O     O_2   0.645270 0.278050 0.458420 -0.435088
O32   O     O_3   0.917270 0.391510 0.460760 -0.488866
O33   O     O_3   0.421180 0.332490 0.586040 -0.458721
O34   O     O_3   0.768614 0.273562 0.345008 -0.615745
O35   O     O_3   0.383630 0.545490 0.584580 -0.491649
O36   O     O_3   0.845910 0.377930 0.622570 -0.453608
P1    P     P_3+3 0.990700 0.707490 0.561920 0.966294
P2    P     P_3+3 0.340130 0.430100 0.338870 1.063058
P3    P     P_3+3 0.926861 0.619861 0.287378 0.992394
P4    P     P_3+3 0.819590 0.292500 0.438020 1.087714
P5    P     P_3+3 0.879031 0.373332 0.713841 1.049028
P6    P     P_3+3 0.433565 0.781953 0.417156 1.009577
P7    P     P_3+3 0.466580 0.572287 0.674608 0.984641
P8    P     P_3+3 0.380372 0.219305 0.588229 1.010870
S1    S     S_3+6 0.961197 0.628798 0.741782 -0.082898
S2    S     S_3+6 0.197778 0.225877 0.362771 -0.121530
S3    S     S_3+6 0.202840 0.723638 0.134299 -0.106045
S4    S     S_3+6 0.436398 0.999069 0.393142 -0.104143

loop_
_geom_bond_atom_site_label_1
_geom_bond_atom_site_label_2
_ccdc_geom_bond_type
Ba2   O6    S    
C53   C54   S    
Ba1   O32   S    
O1    P1    D    
O2    P5    D    
Ba1   O1    S    
O8    P8    D    
C35   H33   S    
C5    C6    A    
C19   H25   S    
C50   H49   S    
O3    P5    S    
O7    P7    S    
O10   P6    S    
C25   H35   S    
C24   C25   A    
C60   C61   S    
C20   H37   S    
O13   P1    S    
C61   H17   S    
C6    H21   S    
C60   H16   S    
C26   P3    S    
C32   H32   S    
C32   C33   A    
C22   H30   S    
Ba2   O31   S    
C43   H45   S    
C59   H74   S    
C55   C57   S    
O35   P7    S    
C43   C49   S    
Ba2   O4    S    
C13   C14   A    
O14   P6    S    
C15   C18   A    
O24   S2    S    
C46   H80   S    
Ba1   Ba2   S    
C16   H38   S    
C54   H63   S    
C2    C11   A    
C19   C62   A    
C14   S4    S    
Ba2   O32   S    
C42   H34   S    
O23   P3    S    
C8    C18   A    
O4    P1    S    
C53   H65   S    
C30   C39   S    
O11   P6    D    
C55   H72   S    
Ba1   O5    S    
Ba2   O33   S    
C54   H62   S    
C7    C8    A    
O16   P3    S    
C34   H7    S    
C2    C6    A    
C47   H47   S    
C37   P7    S    
C53   H66   S    
Ba2   O5    S    
C52   H58   S    
C16   H10   S    
C20   C26   A    
C48   H44   S    
C42   O13   S    
C23   H4    S    
Ba2   O36   S    
C44   S2    S    
C4    C16   S    
C31   H31   S    
C34   H6    S    
O21   S2    D    
C44   C46   S    
H48   O20   S    
C45   O3    S    
C57   H68   S    
C11   C17   A    
C61   H18   S    
O27   S3    S    
C49   C50   S    
C60   H15   S    
Ba1   O15   S    
C41   H36   S    
C21   P2    S    
C37   C38   A    
C3    C5    A    
Ba1   P1    S    
C14   C15   A    
C37   C41   A    
C23   C34   S    
C51   C52   S    
O26   S3    D    
C57   H69   S    
O28   S4    D    
C58   C59   S    
O22   S2    D    
O17   P3    D    
C3    C7    A    
C35   C36   A    
C1    S3    S    
C58   H77   S    
O30   S4    S    
C29   C30   A    
C10   C13   A    
C21   C22   A    
C4    H29   S    
C8    H24   S    
C31   C32   A    
C28   O34   S    
C46   H78   S    
O19   S1    D    
Ba2   P4    S    
O33   P8    S    
C62   P8    S    
C1    C12   S    
C51   H61   S    
C58   H76   S    
C13   H22   S    
C43   H56   S    
C38   C39   A    
C52   H57   S    
C12   O14   S    
C29   H27   S    
C28   H41   S    
O5    P2    S    
C49   H53   S    
C52   H59   S    
C23   H5    S    
Ba2   O35   S    
O25   S3    D    
O20   S1    S    
O18   S1    D    
C42   S1    S    
C5    C58   S    
O6    P7    D    
C42   C43   S    
C50   H51   S    
O32   P4    S    
C27   C33   A    
C4    O23   S    
O12   P2    S    
C4    H19   S    
O29   S4    D    
Ba1   O16   S    
C1    H3    S    
C9    P4    S    
C22   C24   A    
C51   H60   S    
Ba1   P2    S    
C3    C17   A    
O9    P8    S    
C50   H50   S    
C36   P5    S    
C44   O12   S    
C2    C62   A    
C57   H70   S    
C40   H12   S    
C49   H52   S    
C60   O9    S    
C61   H20   S    
C23   O7    S    
C46   H2    S    
C30   C31   A    
C45   H11   S    
C36   C41   A    
C27   C29   A    
C45   C56   S    
Ba1   O35   S    
C59   H73   S    
C55   C56   S    
C48   H43   S    
C44   H67   S    
H54   O24   S    
C15   C17   A    
C12   H1    S    
C9    C19   A    
C28   C40   S    
C16   H39   S    
C54   H64   S    
O15   P2    D    
C35   C39   A    
Ba1   O10   S    
C1    H9    S    
C59   H75   S    
C7    P1    S    
O36   P5    S    
C56   H14   S    
C40   C47   S    
C18   P6    S    
C24   C33   S    
C12   C51   S    
C10   C11   A    
C47   C48   S    
C53   C56   S    
C28   H40   S    
C25   C26   A    
C48   H42   S    
C45   H13   S    
C20   C21   A    
C55   H71   S    
Ba1   O4    S    
C40   H23   S    
H79   O30   S    
C38   H26   S    
C27   H28   S    
O34   P4    S    
C34   H8    S    
C9    C10   A    
H55   O27   S    
C47   H46   S    
O31   P4    D    
