data_mof_unit_60585.cif
_audit_creation_date              2012-10-26T18:37:13-0400
_audit_creation_method            fapswitch 2.2
_symmetry_space_group_name_H-M    P1
_symmetry_Int_Tables_number       1
_space_group_crystal_system       triclinic
_cell_length_a                    12.743282
_cell_length_b                    13.903687
_cell_length_c                    19.336898
_cell_angle_alpha                 90.18049
_cell_angle_beta                  93.487348
_cell_angle_gamma                 97.94222
_cell_volume                      3386.70654616

loop_
_atom_site_label
_atom_site_type_symbol
_atom_type_description
_atom_site_fract_x
_atom_site_fract_y
_atom_site_fract_z
_atom_type_partial_charge
C1    C     C_R   0.483566 0.315793 0.499278 0.551076
C2    C     C_2   0.971979 0.526573 0.519660 -0.154711
C3    C     C_1   0.854707 0.519181 0.514072 0.153523
C4    C     C_1   0.145292 0.480818 0.485928 0.153523
C5    C     C_R   0.499949 0.500669 0.367054 0.546478
C6    C     C_R   0.500051 0.499331 0.632946 0.546479
C7    C     C_R   0.402510 0.505295 0.251832 -0.122333
C8    C     C_R   0.597491 0.494712 0.748168 -0.122332
C9    C     C_R   0.399279 0.510670 0.179424 0.051088
C10   C     C_R   0.600723 0.489336 0.820575 0.051088
C11   C     C_R   0.494897 0.511257 0.145486 0.012023
C12   C     C_R   0.516434 0.684207 0.500722 0.551075
C13   C     C_R   0.505103 0.488740 0.854514 0.012023
C14   C     C_R   0.591130 0.511270 0.184915 -0.129555
C15   C     C_R   0.408869 0.488721 0.815085 -0.129553
C16   C     C_R   0.593194 0.507709 0.256924 -0.130445
C17   C     C_R   0.406805 0.492282 0.743076 -0.130445
C18   C     C_R   0.498827 0.503821 0.290924 -0.014792
C19   C     C_R   0.501173 0.496179 0.709076 -0.014791
C20   C     C_R   0.503357 0.493618 0.930348 0.368028
C21   C     C_R   0.496643 0.506379 0.069652 0.368029
C22   C     C_2   0.295887 0.520333 0.142048 0.592953
C23   C     C_1   0.525839 0.787538 0.501112 -0.000986
C24   C     C_2   0.704117 0.479680 0.857952 0.592953
C25   C     C_1   0.474161 0.212462 0.498888 -0.000986
C26   C     C_2   0.543581 0.978399 0.501843 -0.110836
C27   C     C_2   0.456419 0.021601 0.498157 -0.110836
C28   C     C_1   0.465598 0.125411 0.498534 -0.034590
C29   C     C_1   0.534402 0.874589 0.501465 -0.034590
C30   C     C_2   0.028021 0.473427 0.480340 -0.154711
Cu1   Cu    Cu3+1 0.395330 0.493960 0.495610 1.008824
Cu2   Cu    Cu3+1 0.604670 0.506040 0.504390 1.008824
H1    H     H_    0.329633 0.504934 0.277993 0.175305
H2    H     H_    0.985350 0.422346 0.442439 0.135831
H3    H     H_    0.136128 0.490777 0.139905 0.354270
H4    H     H_    0.863876 0.509253 0.860097 0.354269
H5    H     H_    0.670370 0.495079 0.722007 0.175302
H6    H     H_    0.664887 0.511724 0.159757 0.152569
H7    H     H_    0.335111 0.488260 0.840242 0.152570
H8    H     H_    0.668563 0.507119 0.285886 0.146336
H9    H     H_    0.331435 0.492867 0.714114 0.146336
H10   H     H_    0.377866 0.979319 0.494841 0.144017
H11   H     H_    0.622134 0.020681 0.505159 0.144017
H12   H     H_    0.014650 0.577654 0.557561 0.135831
N1    N     N_R   0.574625 0.560732 0.036623 -0.200823
N2    N     N_R   0.425375 0.439265 0.963377 -0.200825
N3    N     N_R   0.577495 0.554922 0.968112 -0.170060
N4    N     N_R   0.422506 0.445074 0.031888 -0.170060
N5    N     N_1   0.238030 0.484880 0.489000 -0.182987
N6    N     N_1   0.761970 0.515120 0.511000 -0.182987
O1    O     O_R   0.399110 0.356330 0.495750 -0.486114
O2    O     O_R   0.201349 0.478349 0.169374 -0.692996
O3    O     O_2   0.707310 0.432512 0.911129 -0.477570
O4    O     O_R   0.798652 0.521679 0.830629 -0.692992
O5    O     O_R   0.600890 0.643670 0.504250 -0.486114
O6    O     O_R   0.575900 0.366540 0.503170 -0.489661
O7    O     O_R   0.424100 0.633460 0.496830 -0.489661
O8    O     O_R   0.411580 0.494880 0.396430 -0.497119
O9    O     O_R   0.588420 0.505120 0.603570 -0.497119
O10   O     O_R   0.588360 0.505090 0.403850 -0.496746
O11   O     O_R   0.411640 0.494910 0.596150 -0.496745
O12   O     O_2   0.292698 0.567494 0.088868 -0.477569

loop_
_geom_bond_atom_site_label_1
_geom_bond_atom_site_label_2
_ccdc_geom_bond_type
C21   N4    A    
C17   H9    S    
C10   C13   A    
C27   H10   S    
C22   O12   D    
C7    H1    S    
C11   C21   S    
Cu1   O11   S    
Cu2   O5    S    
Cu1   Cu2   S    
Cu2   O9    S    
C4    N5    T    
C2    C30   D    
C7    C18   A    
Cu2   N6    S    
Cu1   O7    S    
N1    N3    A    
C2    C3    S    
C13   C20   S    
C25   C28   T    
C1    C25   S    
C6    C19   S    
C9    C11   A    
C12   C23   S    
C15   H7    S    
C26   C27   D    
C5    O8    A    
C16   H8    S    
C12   O7    A    
C23   C29   T    
Cu1   O8    S    
C22   O2    S    
C17   C19   A    
C1    O6    A    
Cu1   N5    S    
C26   H11   S    
C21   N1    A    
C13   C15   A    
C11   C14   A    
C14   C16   A    
C9    C22   S    
C12   O5    A    
C14   H6    S    
C8    H5    S    
Cu2   O10   S    
C24   O4    S    
C3    N6    T    
C8    C19   A    
N2    N4    A    
C7    C9    A    
C27   C28   S    
H4    O4    S    
C6    O11   A    
C26   C29   S    
C16   C18   A    
C1    O1    A    
Cu1   O1    S    
H3    O2    S    
C15   C17   A    
C30   H2    S    
C5    C18   S    
C5    O10   A    
C10   C24   S    
C24   O3    D    
C6    O9    A    
Cu2   O6    S    
C8    C10   A    
C4    C30   S    
C20   N3    A    
C2    H12   S    
C20   N2    A    
