data_mof_unit_40824.cif
_audit_creation_date              2012-12-11T15:07:34-0500
_audit_creation_method            fapswitch 2.2
_symmetry_space_group_name_H-M    P1
_symmetry_Int_Tables_number       1
_space_group_crystal_system       triclinic
_cell_length_a                    21.742533
_cell_length_b                    7.183527
_cell_length_c                    18.722008
_cell_angle_alpha                 89.999898
_cell_angle_beta                  95.403849
_cell_angle_gamma                 89.999858
_cell_volume                      2911.15835593

loop_
_atom_site_label
_atom_site_type_symbol
_atom_type_description
_atom_site_fract_x
_atom_site_fract_y
_atom_site_fract_z
_atom_type_partial_charge
O1    O     O_R   0.449650 0.506500 0.414480 -0.522261
O2    O     O_R   0.550350 0.006500 0.585520 -0.522261
O3    O     O_R   0.432010 0.173150 0.560250 -0.506894
O4    O     O_R   0.567990 0.673150 0.439750 -0.506893
C1    C     C_R   0.416037 0.344116 0.581103 0.774828
C2    C     C_R   0.583963 0.844116 0.418897 0.774822
O5    O     O_R   0.442320 0.176650 0.413480 -0.543922
O6    O     O_R   0.557680 0.676650 0.586520 -0.543923
O7    O     O_R   0.560730 0.008380 0.437700 -0.525115
O8    O     O_R   0.439270 0.508380 0.562300 -0.525115
C3    C     C_R   0.425599 0.346195 0.390180 0.752866
C4    C     C_R   0.574401 0.846194 0.609819 0.752868
O9    O     O_3   0.538840 0.339860 0.508120 -0.354461
O10   O     O_3   0.461160 0.839860 0.491880 -0.354462
V1    V     V_3+5 0.492800 0.064220 0.498490 1.678557
V2    V     V_3+5 0.507200 0.564220 0.501510 1.678559
C5    C     C_R   0.871839 0.077374 0.698146 -0.082012
C6    C     C_R   0.128158 0.577343 0.301857 -0.082048
H1    H     H_    0.890823 0.155311 0.655992 0.221729
H2    H     H_    0.109172 0.655268 0.344013 0.221743
C7    C     C_R   0.889217 0.947904 0.817654 -0.210087
C8    C     C_R   0.110784 0.447899 0.182345 -0.210026
C9    C     C_R   0.594249 0.803727 0.739102 -0.151285
C10   C     C_R   0.405753 0.303748 0.260897 -0.151299
C11   C     C_R   0.630139 0.807420 0.804355 -0.074372
C12   C     C_R   0.369864 0.307453 0.195643 -0.074366
C13   C     C_R   0.692652 0.849513 0.807240 0.007022
C14   C     C_R   0.307351 0.349539 0.192758 0.007027
C15   C     C_R   0.721802 0.883760 0.744403 0.073863
C16   C     C_R   0.278200 0.383766 0.255595 0.073855
C17   C     C_R   0.683447 0.907253 0.678041 -0.074128
C18   C     C_R   0.316553 0.407251 0.321959 -0.074125
C19   C     C_R   0.787317 0.914482 0.748099 -0.065116
C20   C     C_R   0.212683 0.414477 0.251900 -0.065158
C21   C     C_R   0.810971 0.010297 0.690450 -0.127142
C22   C     C_R   0.189028 0.510274 0.309552 -0.127147
C23   C     C_R   0.773646 0.040788 0.626122 0.411001
C24   C     C_R   0.226351 0.540759 0.373881 0.411006
C25   C     C_R   0.711304 0.986753 0.619232 0.299653
C26   C     C_R   0.288695 0.486737 0.380769 0.299651
C27   C     C_R   0.830564 0.858010 0.807296 0.286862
C28   C     C_R   0.169439 0.358012 0.192701 0.286938
C29   C     C_R   0.909034 0.056132 0.761729 0.321163
C30   C     C_R   0.090965 0.556111 0.238272 0.321075
C31   C     C_R   0.618849 0.855309 0.675508 -0.059691
C32   C     C_R   0.381151 0.355314 0.324491 -0.059690
H3    H     H_    0.545943 0.765698 0.738504 0.164866
H4    H     H_    0.454060 0.265726 0.261495 0.164870
H5    H     H_    0.717921 0.857722 0.859652 0.169091
H6    H     H_    0.282081 0.357758 0.140346 0.169091
H7    H     H_    0.609335 0.776402 0.853302 0.164899
H8    H     H_    0.390669 0.276450 0.146695 0.164900
C33   C     C_R   0.632864 0.002560 0.320184 -0.144267
C34   C     C_R   0.367136 0.502559 0.679816 -0.144279
C35   C     C_R   0.634220 0.855336 0.369886 -0.131551
C36   C     C_R   0.365780 0.355336 0.630114 -0.131557
C37   C     C_R   0.683355 0.725447 0.372457 0.430113
C38   C     C_R   0.316645 0.225448 0.627542 0.430116
C39   C     C_R   0.727615 0.737051 0.321833 0.065778
C40   C     C_R   0.272384 0.237053 0.678166 0.065743
C41   C     C_R   0.726767 0.890734 0.274072 -0.046408
C42   C     C_R   0.273233 0.390734 0.725927 -0.046446
C43   C     C_R   0.679849 0.027423 0.274073 -0.041925
C44   C     C_R   0.320152 0.527422 0.725927 -0.041932
C45   C     C_R   0.772800 0.597750 0.317484 -0.060850
C46   C     C_R   0.227200 0.097753 0.682515 -0.060850
C47   C     C_R   0.816373 0.610214 0.267641 -0.171159
C48   C     C_R   0.183626 0.110217 0.732357 -0.171163
C49   C     C_R   0.817333 0.764717 0.222314 0.107808
C50   C     C_R   0.182667 0.264718 0.777685 0.107807
C51   C     C_R   0.773009 0.906739 0.225906 0.096817
C52   C     C_R   0.226991 0.406739 0.774094 0.096821
C53   C     C_R   0.774845 0.063803 0.180981 0.017460
C54   C     C_R   0.225155 0.563802 0.819019 0.017465
C55   C     C_R   0.729160 0.200590 0.182445 -0.251390
C56   C     C_R   0.270840 0.700588 0.817556 -0.251387
C57   C     C_R   0.681091 0.183278 0.227206 0.478089
C58   C     C_R   0.318910 0.683275 0.772795 0.478081
C59   C     C_R   0.862091 0.778883 0.173449 -0.124891
C60   C     C_R   0.137908 0.278884 0.826550 -0.124893
C61   C     C_R   0.865895 0.938000 0.130242 -0.067724
C62   C     C_R   0.134105 0.438000 0.869757 -0.067719
C63   C     C_R   0.822034 0.080699 0.134591 -0.166473
C64   C     C_R   0.177966 0.580698 0.865409 -0.166474
H9    H     H_    0.594188 0.097052 0.318016 0.204673
H10   H     H_    0.405812 0.597050 0.681984 0.204677
H11   H     H_    0.774303 0.475734 0.351435 0.198049
H12   H     H_    0.225696 0.975738 0.648563 0.198052
H13   H     H_    0.849927 0.499352 0.265159 0.156682
H14   H     H_    0.150071 0.999356 0.734839 0.156678
H15   H     H_    0.894641 0.666016 0.169924 0.172945
H16   H     H_    0.105358 0.166018 0.830075 0.172942
H17   H     H_    0.823729 0.202689 0.100742 0.143370
H18   H     H_    0.176272 0.702686 0.899259 0.143371
H19   H     H_    0.730383 0.319825 0.147207 0.197082
H20   H     H_    0.269618 0.819822 0.852794 0.197082
O11   O     O_R   0.060820 0.290050 0.937800 -0.528493
O12   O     O_R   0.939180 0.790050 0.062200 -0.528496
O13   O     O_R   0.057690 0.616620 0.086540 -0.517630
O14   O     O_R   0.942310 0.116620 0.913460 -0.517606
C65   C     C_R   0.071627 0.448591 0.112527 0.802633
C66   C     C_R   0.928373 0.948592 0.887472 0.802620
O15   O     O_R   0.068010 0.619890 0.939770 -0.554300
O16   O     O_R   0.931990 0.119890 0.060230 -0.554296
O17   O     O_R   0.949640 0.787940 0.914460 -0.505235
O18   O     O_R   0.050360 0.287940 0.085540 -0.505208
C67   C     C_R   0.084571 0.450948 0.919306 0.731171
C68   C     C_R   0.915429 0.950948 0.080694 0.731173
O19   O     O_3   0.961210 0.453080 0.991940 -0.354557
O20   O     O_3   0.038790 0.953080 0.008060 -0.354556
V3    V     V_3+5 0.007200 0.728820 0.001500 1.670625
V4    V     V_3+5 0.992800 0.228820 0.998500 1.670676
Cl1   Cl    Cl    0.982871 0.159165 0.766758 -0.671308
Cl2   Cl    Cl    0.017126 0.659136 0.233245 -0.671291
Cl3   Cl    Cl    0.691900 0.555026 0.441347 -0.503108
Cl4   Cl    Cl    0.308100 0.055029 0.558652 -0.503112
S1    S     S_3+6 0.622881 0.357433 0.220659 -0.027518
O21   O     O_2   0.564462 0.275706 0.184340 -0.329806
O22   O     O_2   0.610826 0.424190 0.294076 -0.362874
O23   O     O_3   0.644524 0.539545 0.172308 -0.502594
H21   H     H_    0.616082 0.641833 0.182558 0.370833
S2    S     S_3+6 0.377120 0.857429 0.779343 -0.027502
O24   O     O_2   0.435540 0.775699 0.815659 -0.329774
O25   O     O_2   0.389173 0.924188 0.705924 -0.362895
O26   O     O_3   0.355478 0.039539 0.827696 -0.502591
H22   H     H_    0.383881 0.141868 0.817398 0.370826
Cl5   Cl    Cl    0.805171 0.147468 0.551755 -0.489086
Cl6   Cl    Cl    0.194824 0.647412 0.448251 -0.489089
S3    S     S_3+6 0.821129 0.643667 0.853442 0.004763
O27   O     O_2   0.813180 0.683036 0.930874 -0.336585
O28   O     O_2   0.766759 0.533420 0.820927 -0.326687
O29   O     O_3   0.884436 0.511227 0.849096 -0.463870
H23   H     H_    0.887881 0.493574 0.797152 0.350023
S4    S     S_3+6 0.178877 0.143685 0.146546 0.004732
O30   O     O_2   0.186822 0.183076 0.069114 -0.336588
O31   O     O_2   0.233252 0.033442 0.179053 -0.326728
O32   O     O_3   0.115574 0.011232 0.150891 -0.463895
H24   H     H_    0.112176 0.993369 0.202836 0.350055
Cl7   Cl    Cl    0.669948 0.047709 0.537780 -0.548511
Cl8   Cl    Cl    0.330050 0.547703 0.462220 -0.548511

loop_
_geom_bond_atom_site_label_1
_geom_bond_atom_site_label_2
_ccdc_geom_bond_type
C46   C48   A    
C60   H16   S    
C9    C31   A    
C13   C15   A    
C1    C36   S    
O1    C3    A    
C2    C35   S    
O2    C4    A    
S4    O32   S    
C5    C29   A    
C55   H19   S    
C37   Cl3   S    
O18   V4    S    
O5    C3    A    
C8    C65   S    
C54   C56   A    
C56   C58   A    
O15   V3    S    
C21   C23   A    
C10   C12   A    
C57   S1    S    
S1    O22   D    
C46   H12   S    
C37   C39   A    
C38   C40   A    
C63   H17   S    
C15   C19   A    
C47   H13   S    
O12   C68   A    
C66   O17   A    
C40   C42   A    
C49   C51   A    
O20   V3    S    
C42   C44   A    
C5    H1    S    
C7    C29   A    
C14   H6    S    
C8    C30   A    
C36   C38   A    
O29   H23   S    
C45   C47   A    
C20   C28   A    
C48   H14   S    
C16   C18   A    
C59   H15   S    
S3    O29   S    
C41   C51   A    
O5    V1    S    
O17   V3    S    
C61   C68   S    
C30   Cl2   S    
O6    V2    S    
C24   C26   A    
C38   Cl4   S    
C33   H9    S    
C53   C55   A    
C44   C58   A    
C2    O7    A    
C12   C14   A    
C61   C63   A    
C45   H11   S    
C34   C36   A    
C33   C35   A    
C25   Cl7   S    
C39   C41   A    
C9    H3    S    
C16   C20   A    
C50   C60   A    
C10   H4    S    
C60   C62   A    
S1    O23   S    
C34   H10   S    
O11   V4    S    
S4    O31   D    
C47   C49   A    
O4    V2    S    
C11   H7    S    
C12   H8    S    
O6    C4    A    
O13   V3    S    
O14   C66   A    
C42   C52   A    
O1    V2    S    
C64   H18   S    
C62   C67   S    
O2    V1    S    
C55   C57   A    
C7    C27   A    
C7    C66   S    
C52   C54   A    
O13   C65   A    
O14   V4    S    
C62   C64   A    
C35   C37   A    
O26   H22   S    
O19   V4    S    
O4    C2    A    
S2    O25   D    
C6    C30   A    
O16   C68   A    
O3    V1    S    
O23   H21   S    
O16   V4    S    
S3    O27   D    
C43   C57   A    
C65   O18   A    
O12   V3    S    
C39   C45   A    
C18   C32   A    
C41   C43   A    
C54   C64   A    
C4    C31   S    
O3    C1    A    
C24   Cl6   S    
S4    O30   D    
C11   C13   A    
O32   H24   S    
C59   C61   A    
C28   S4    S    
O15   C67   A    
C19   C27   A    
S2    O26   S    
C22   C24   A    
O7    V1    S    
C10   C32   A    
C1    O8    A    
C15   C17   A    
O8    V2    S    
S1    O21   D    
C29   Cl1   S    
C27   S3    S    
C33   C43   A    
C8    C28   A    
C34   C44   A    
C26   Cl8   S    
C14   C16   A    
C19   C21   A    
C20   C22   A    
C17   C25   A    
C6    H2    S    
C18   C26   A    
C58   S2    S    
C49   C59   A    
C40   C46   A    
O11   C67   A    
C9    C11   A    
C23   C25   A    
C17   C31   A    
O9    V2    S    
C51   C53   A    
C48   C50   A    
O10   V1    S    
C3    C32   S    
C50   C52   A    
C5    C21   A    
C23   Cl5   S    
S2    O24   D    
C6    C22   A    
C53   C63   A    
C56   H20   S    
C13   H5    S    
S3    O28   D    
