data_mof_unit_44705.cif
_audit_creation_date              2013-03-05T15:56:47-0500
_audit_creation_method            fapswitch 2.2
_symmetry_space_group_name_H-M    P1
_symmetry_Int_Tables_number       1
_space_group_crystal_system       triclinic
_cell_length_a                    6.911041
_cell_length_b                    15.315895
_cell_length_c                    15.476325
_cell_angle_alpha                 90.110501
_cell_angle_beta                  89.656789
_cell_angle_gamma                 91.071162
_cell_volume                      1637.83173517

loop_
_atom_site_label
_atom_site_type_symbol
_atom_site_description
_atom_site_fract_x
_atom_site_fract_y
_atom_site_fract_z
_atom_type_partial_charge
O1    O     O_R   0.638180 0.333920 0.163320 -0.620255
O2    O     O_R   0.361820 0.666080 0.836680 -0.613266
O3    O     O_R   0.308470 0.344960 0.336080 -0.564950
O4    O     O_R   0.691530 0.655040 0.663920 -0.565694
O5    O     O_R   0.138140 0.166110 0.336680 -0.607227
O6    O     O_R   0.861860 0.833890 0.663320 -0.607605
C1    C     C_R   0.478887 0.369951 0.362299 1.094170
C2    C     C_R   0.521054 0.629993 0.637773 1.089160
O7    O     O_R   0.308460 0.344950 0.163930 -0.570160
O8    O     O_R   0.691540 0.655050 0.836070 -0.577119
O9    O     O_R   0.138140 0.166100 0.163310 -0.556769
O10   O     O_R   0.861860 0.833900 0.836690 -0.566894
C3    C     C_R   0.478828 0.367285 0.134986 0.967778
C4    C     C_R   0.521196 0.632855 0.865152 1.004866
O11   O     O_R   0.638180 0.333930 0.336700 -0.572898
O12   O     O_R   0.361820 0.666070 0.663300 -0.575750
O13   O     O_3   0.471670 0.191340 0.250000 -0.241674
O14   O     O_3   0.528330 0.808660 0.750000 -0.248367
V1    V     V_3+5 0.196830 0.260900 0.250000 1.330941
V2    V     V_3+5 0.803170 0.739100 0.750000 1.332453
O15   O     O_R   0.808420 0.155070 0.163920 -0.566730
O16   O     O_R   0.191580 0.844930 0.836080 -0.560836
C5    C     C_R   0.976384 0.134190 0.133598 1.114640
C6    C     C_R   0.023632 0.865814 0.866365 1.123405
O17   O     O_R   0.808420 0.155080 0.336070 -0.560767
O18   O     O_R   0.191580 0.844920 0.663930 -0.563179
C7    C     C_R   0.974974 0.141532 0.372374 1.017058
C8    C     C_R   0.025007 0.858491 0.627664 1.012426
V3    V     V_3+5 0.696830 0.239130 0.250000 1.329659
V4    V     V_3+5 0.303170 0.760870 0.750000 1.342663
O19   O     O_3   0.971850 0.308690 0.250010 -0.269118
O20   O     O_3   0.028150 0.691310 0.749990 -0.269975
H1    H     H_    0.144800 0.885648 0.220609 0.220811
H2    H     H_    0.849760 0.113711 0.779278 0.215109
C9    C     C_R   0.891142 0.166848 0.565979 0.170308
C10   C     C_R   0.104029 0.832684 0.433980 0.169265
C11   C     C_R   0.854935 0.176934 0.655506 0.469247
C12   C     C_R   0.136981 0.822209 0.344281 0.472002
C13   C     C_R   0.873853 0.106934 0.710392 -0.168491
C14   C     C_R   0.121655 0.892537 0.289540 -0.165606
C15   C     C_R   0.924837 0.027021 0.678283 -0.167327
C16   C     C_R   0.074970 0.972930 0.321860 -0.168910
C17   C     C_R   0.962379 0.013319 0.589237 0.095315
C18   C     C_R   0.037328 0.986698 0.410896 0.094796
C19   C     C_R   0.945622 0.084557 0.530392 -0.090716
C20   C     C_R   0.052877 0.915352 0.469687 -0.092927
C21   C     C_R   0.016009 0.929321 0.560383 -0.185315
C22   C     C_R   0.983912 0.070740 0.439741 -0.186126
H3    H     H_    0.936181 0.976480 0.726145 0.144196
H4    H     H_    0.065885 0.023662 0.274078 0.146176
C23   C     C_R   0.142798 0.006656 0.934708 0.205454
C24   C     C_R   0.857515 0.993089 0.065383 0.214868
C25   C     C_R   0.120972 0.075558 0.994797 0.466609
C26   C     C_R   0.879541 0.924243 0.005274 0.472398
C27   C     C_R   0.984762 0.066953 0.063521 -0.569092
C28   C     C_R   0.015358 0.932957 0.936487 -0.562233
C29   C     C_R   0.336186 0.496949 0.445888 0.418434
C30   C     C_R   0.663266 0.502597 0.554593 0.418583
C31   C     C_R   0.344757 0.552813 0.518001 -0.040182
C32   C     C_R   0.654583 0.446708 0.482493 -0.038310
H5    H     H_    0.222921 0.592986 0.531642 0.242153
H6    H     H_    0.775988 0.406284 0.469031 0.242514
C33   C     C_R   0.508884 0.559578 0.570825 -0.391861
C34   C     C_R   0.490799 0.440167 0.429467 -0.395460
C35   C     C_R   0.321769 0.476214 0.036690 -0.040204
C36   C     C_R   0.678275 0.523971 0.963504 -0.046481
H7    H     H_    0.181549 0.459021 0.063940 0.140807
H8    H     H_    0.818500 0.541174 0.936265 0.143486
C37   C     C_R   0.331282 0.539758 0.971572 -0.118152
C38   C     C_R   0.668755 0.460416 0.028612 -0.138162
H9    H     H_    0.198537 0.569616 0.950932 0.144638
H10   H     H_    0.801492 0.430549 0.049247 0.145934
C39   C     C_R   0.509664 0.564575 0.933943 -0.133998
C40   C     C_R   0.490372 0.435594 0.066231 -0.135974
N1    N     N_R   0.857723 0.239013 0.511691 0.221995
O21   O     O_R   0.000154 0.290982 0.489049 -0.396750
O22   O     O_R   0.683491 0.250899 0.483737 -0.418038
N2    N     N_R   0.137921 0.760489 0.488237 0.222648
O23   O     O_R   0.996096 0.708016 0.510496 -0.394766
O24   O     O_R   0.312863 0.747949 0.514998 -0.418629
S1    S     S_3+6 0.792926 0.277492 0.702774 0.069842
O25   O     O_2   0.972799 0.333869 0.706272 -0.183531
O26   O     O_2   0.640703 0.321076 0.650139 -0.235861
O27   O     O_3   0.708087 0.262423 0.803920 -0.493025
H11   H     H_    0.687059 0.321984 0.826789 0.383523
S2    S     S_3+6 0.190837 0.720746 0.296985 0.057188
O28   O     O_2   0.349719 0.677973 0.346258 -0.240344
O29   O     O_2   0.010207 0.664789 0.299554 -0.190238
O30   O     O_3   0.261336 0.733501 0.193442 -0.511540
H12   H     H_    0.278413 0.673413 0.171208 0.377767
N3    N     N_R   0.301483 0.010150 0.874321 0.285744
O31   O     O_R   0.270388 0.018062 0.791994 -0.390284
O32   O     O_R   0.478587 0.011897 0.902393 -0.311280
N4    N     N_R   0.699072 0.989231 0.125907 0.293030
O33   O     O_R   0.521937 0.985215 0.097973 -0.296573
O34   O     O_R   0.730593 0.983577 0.208393 -0.384111
S3    S     S_3+6 0.250057 0.176310 0.976522 0.024150
O35   O     O_2   0.295196 0.188046 0.882040 -0.204124
O36   O     O_2   0.132384 0.252541 0.005890 -0.337624
O37   O     O_3   0.458344 0.174902 0.032079 -0.484030
H13   H     H_    0.541455 0.220971 0.005412 0.355001
S4    S     S_3+6 0.753128 0.823003 0.024168 0.019216
O38   O     O_2   0.566351 0.822503 0.974914 -0.257059
O39   O     O_2   0.873520 0.747552 0.994948 -0.344416
O40   O     O_3   0.703892 0.809584 0.129955 -0.446141
H14   H     H_    0.646235 0.750050 0.134565 0.393523
N5    N     N_R   0.176694 0.503650 0.387031 0.270464
O41   O     O_R   0.009674 0.529540 0.414972 -0.340176
O42   O     O_R   0.207975 0.502665 0.303987 -0.362315
N6    N     N_R   0.822024 0.495439 0.613840 0.269406
O43   O     O_R   0.988556 0.468255 0.586525 -0.338884
O44   O     O_R   0.789780 0.497141 0.696797 -0.361316

loop_
_geom_bond_atom_site_label_1
_geom_bond_atom_site_label_2
_geom_bond_distance
_ccdc_geom_bond_type
C7    C22   1.507999 S    
C36   H8    1.082712 S    
C8    C21   1.507518 S    
O13   V3    1.707214 S    
C6    C28   1.495204 S    
O4    C2    1.298923 A    
V1    O19   1.730849 S    
S3    O37   1.681644 S    
S1    O25   1.501436 D    
C13   C15   1.371412 A    
C36   C38   1.402764 A    
C9    N1    1.412914 S    
C12   S2    1.761590 S    
C9    C11   1.415153 A    
O3    C1    1.298672 A    
S4    O39   1.503865 D    
N2    O24   1.298137 A    
C29   C31   1.405821 A    
O12   V4    2.020109 S    
S3    O35   1.503725 D    
S4    O40   1.682382 S    
C32   H6    1.071232 S    
C23   C28   1.418887 A    
C37   H9    1.082846 S    
O7    C3    1.297389 A    
N6    O43   1.299251 A    
S3    O36   1.503384 D    
O5    C7    1.302272 A    
O7    V1    1.995959 S    
O6    C8    1.302009 A    
C18   C20   1.429301 A    
C35   H7    1.082714 S    
C38   C40   1.406432 A    
N5    O41   1.298869 A    
C37   C39   1.406465 A    
O14   V4    1.707214 S    
V4    O20   2.161452 S    
O14   V2    2.195112 S    
C24   C27   1.420091 A    
C23   N3    1.436904 S    
C14   C16   1.371471 A    
C2    O12   1.299655 A    
C30   N6    1.439974 S    
C15   C17   1.416746 A    
C11   S1    1.762786 S    
N4    O33   1.301053 A    
C16   C18   1.416867 A    
C15   H3    1.076671 S    
S1    O26   1.501510 D    
C24   C26   1.414536 A    
O11   V3    2.020107 S    
C25   C27   1.420798 A    
O17   V3    2.020467 S    
C26   C28   1.419873 A    
C31   H5    1.071858 S    
H1    C14   1.083010 S    
H2    C13   1.083126 S    
C4    C39   1.494521 S    
O27   H11   0.990773 S    
O8    C4    1.297434 A    
O8    V2    1.995957 S    
N3    O31   1.299663 A    
N2    O23   1.301086 A    
C1    O11   1.299957 A    
C25   S3    1.790031 S    
C36   C39   1.410141 A    
O15   V3    2.011282 S    
C35   C40   1.410110 A    
C23   C25   1.414826 A    
N4    O34   1.299647 A    
N1    O21   1.301132 A    
N3    O32   1.301026 A    
C17   C19   1.429356 A    
O9    V1    2.012375 S    
O3    V1    1.999036 S    
O10   V2    2.012378 S    
O1    V3    2.026727 S    
C24   N4    1.437156 S    
N1    O22   1.298059 A    
C16   H4    1.076623 S    
C29   N5    1.439395 S    
O18   V4    2.020468 S    
O15   C5    1.294883 A    
O16   C6    1.294605 A    
O1    C3    1.301521 A    
C9    C19   1.430447 A    
S1    O27   1.683076 S    
C29   C34   1.411847 A    
V2    O20   1.730848 S    
C19   C22   1.442068 A    
C30   C33   1.412031 A    
C20   C21   1.441341 A    
O16   V4    2.011282 S    
S2    O28   1.501733 D    
O18   C8    1.304074 A    
C26   S4    1.789167 S    
S2    O30   1.682774 S    
C5    C27   1.495735 S    
O5    V1    2.012656 S    
O17   C7    1.304153 A    
O6    V2    2.012659 S    
O40   H14   0.990765 S    
O10   C6    1.297941 A    
C31   C33   1.404309 A    
C32   C34   1.404030 A    
O2    V4    2.026724 S    
C10   C12   1.414726 A    
C11   C13   1.377733 A    
C10   N2    1.413578 S    
C12   C14   1.377687 A    
C10   C20   1.430091 A    
N5    O42   1.302096 A    
C17   C21   1.416150 A    
C35   C37   1.402756 A    
O9    C5    1.298025 A    
O37   H13   0.990571 S    
O13   V1    2.195112 S    
S2    O29   1.501335 D    
S4    O38   1.502911 D    
O2    C4    1.301521 A    
N6    O44   1.302055 A    
C1    C34   1.495767 S    
C2    C33   1.495678 S    
O4    V2    1.999037 S    
C3    C40   1.494425 S    
V3    O19   2.161453 S    
C38   H10   1.082842 S    
O30   H12   0.990776 S    
C30   C32   1.405925 A    
C18   C22   1.416316 A    
