data_mof_unit_58075.cif
_audit_creation_date              2012-12-11T17:36:13-0500
_audit_creation_method            fapswitch 2.2
_symmetry_space_group_name_H-M    P1
_symmetry_Int_Tables_number       1
_space_group_crystal_system       triclinic
_cell_length_a                    25.833555
_cell_length_b                    6.901499
_cell_length_c                    21.680155
_cell_angle_alpha                 89.281042
_cell_angle_beta                  96.100859
_cell_angle_gamma                 89.452391
_cell_volume                      3842.93513673

loop_
_atom_site_label
_atom_site_type_symbol
_atom_type_description
_atom_site_fract_x
_atom_site_fract_y
_atom_site_fract_z
_atom_type_partial_charge
O1    O     O_R   0.208650 0.594520 0.175450 -0.537800
O2    O     O_R   0.791350 0.405480 0.824550 -0.537257
O3    O     O_R   0.291350 0.094520 0.324550 -0.531963
O4    O     O_R   0.708650 0.905480 0.675450 -0.529883
O5    O     O_R   0.192980 0.260780 0.300160 -0.548676
O6    O     O_R   0.807020 0.739220 0.699840 -0.549200
O7    O     O_R   0.307020 0.760780 0.199840 -0.528381
O8    O     O_R   0.692980 0.239220 0.800160 -0.528732
C1    C     C_R   0.178813 0.432583 0.318026 0.730769
C2    C     C_R   0.821252 0.567388 0.682039 0.726552
C3    C     C_R   0.321163 0.932692 0.181844 0.725012
C4    C     C_R   0.678880 0.067333 0.818448 0.703973
O9    O     O_R   0.202550 0.264660 0.174420 -0.527491
O10   O     O_R   0.797450 0.735340 0.825580 -0.528959
O11   O     O_R   0.297450 0.764660 0.325580 -0.534675
O12   O     O_R   0.702550 0.235340 0.674420 -0.536148
O13   O     O_R   0.300990 0.096480 0.197920 -0.533879
O14   O     O_R   0.699010 0.903520 0.802080 -0.530129
O15   O     O_R   0.199010 0.596480 0.302080 -0.518254
O16   O     O_R   0.800990 0.403520 0.697920 -0.519102
C5    C     C_R   0.191460 0.435624 0.150757 0.748553
C6    C     C_R   0.808528 0.564292 0.849237 0.754965
C7    C     C_R   0.308946 0.931739 0.349008 0.740833
C8    C     C_R   0.691038 0.068272 0.650999 0.733186
O17   O     O_3   0.282290 0.427760 0.257860 -0.365173
O18   O     O_3   0.717710 0.572240 0.742140 -0.359304
O19   O     O_3   0.217710 0.927760 0.242140 -0.363172
O20   O     O_3   0.782290 0.072240 0.757860 -0.365200
V1    V     V_3+5 0.244010 0.152080 0.248540 1.513527
V2    V     V_3+5 0.755990 0.847920 0.751460 1.524365
V3    V     V_3+5 0.255990 0.652080 0.251460 1.535230
V4    V     V_3+5 0.744010 0.347920 0.748540 1.553576
C9    C     C_R   0.657406 0.068125 0.591518 -0.048449
C10   C     C_R   0.342582 0.931937 0.408475 -0.048701
C11   C     C_R   0.841561 0.543196 0.908889 -0.039977
C12   C     C_R   0.158794 0.455391 0.090785 -0.042885
C13   C     C_R   0.644153 0.166058 0.483690 -0.090320
C14   C     C_R   0.355825 0.834106 0.516303 -0.088581
C15   C     C_R   0.850620 0.413424 0.013442 -0.115545
C16   C     C_R   0.149736 0.582580 0.985890 -0.108084
C17   C     C_R   0.676046 0.149797 0.539317 -0.103440
C18   C     C_R   0.323927 0.850434 0.460686 -0.107071
C19   C     C_R   0.819481 0.467974 0.959760 -0.116620
C20   C     C_R   0.180469 0.538935 0.040863 -0.109075
C21   C     C_R   0.605430 0.007786 0.588181 -0.164070
C22   C     C_R   0.394561 0.992223 0.411797 -0.165921
C23   C     C_R   0.895689 0.567522 0.912713 -0.215444
C24   C     C_R   0.105116 0.419270 0.085640 -0.215574
C25   C     C_R   0.570861 0.030741 0.532431 0.083786
C26   C     C_R   0.429133 0.969227 0.467537 0.082954
C27   C     C_R   0.929122 0.504166 0.966163 0.093658
C28   C     C_R   0.071956 0.469939 0.030596 0.092276
C29   C     C_R   0.591911 0.104364 0.478760 0.045019
C30   C     C_R   0.408079 0.895657 0.521215 0.043181
C31   C     C_R   0.905423 0.422281 0.016792 0.058699
C32   C     C_R   0.095673 0.548036 0.979408 0.052817
C33   C     C_R   0.516228 0.986692 0.528623 0.042880
C34   C     C_R   0.483768 0.013227 0.471336 0.045581
C35   C     C_R   0.985003 0.515890 0.970403 0.036246
C36   C     C_R   0.016191 0.451692 0.025534 0.037567
C37   C     C_R   0.507135 0.078253 0.419081 -0.201415
C38   C     C_R   0.492862 0.921643 0.580874 -0.189085
C39   C     C_R   0.990751 0.369891 0.073849 -0.195431
C40   C     C_R   0.010646 0.585846 0.920538 -0.195778
C41   C     C_R   0.560023 0.121470 0.421810 -0.036141
C42   C     C_R   0.439971 0.878502 0.578157 -0.042298
C43   C     C_R   0.936739 0.351264 0.069778 -0.036704
C44   C     C_R   0.064762 0.598200 0.923721 -0.046101
H1    H     H_    0.406693 0.051307 0.369543 0.122777
H2    H     H_    0.593296 0.948745 0.630441 0.125362
H3    H     H_    0.090525 0.361341 0.126641 0.115934
H4    H     H_    0.910128 0.629216 0.872157 0.115272
H5    H     H_    0.284372 0.797897 0.458258 0.152721
H6    H     H_    0.715584 0.202526 0.541756 0.153014
H7    H     H_    0.221412 0.574765 0.044932 0.146738
H8    H     H_    0.777809 0.447541 0.957484 0.156172
H9    H     H_    0.660639 0.234072 0.445215 0.168155
H10   H     H_    0.339330 0.766164 0.554783 0.167937
H11   H     H_    0.831005 0.361205 0.051881 0.156063
H12   H     H_    0.168710 0.652163 0.949593 0.156202
H13   H     H_    0.485331 0.092658 0.374133 0.152295
H14   H     H_    0.514669 0.907184 0.625815 0.161470
H15   H     H_    0.012168 0.310718 0.115181 0.162940
H16   H     H_    0.989546 0.627474 0.876903 0.173905
C45   C     C_R   0.449197 0.854804 0.110665 -0.142075
C46   C     C_R   0.553473 0.165880 0.893748 -0.174019
C47   C     C_R   0.108350 0.428928 0.464126 -0.123397
C48   C     C_R   0.891341 0.575166 0.535629 -0.123755
H17   H     H_    0.485838 0.776780 0.120450 0.154353
H18   H     H_    0.519408 0.259897 0.887194 0.126970
H19   H     H_    0.117633 0.406126 0.513668 0.142320
H20   H     H_    0.881993 0.600979 0.486237 0.142432
C49   C     C_R   0.410816 0.840052 0.152109 -0.008462
C50   C     C_R   0.592487 0.181473 0.853200 -0.087350
C51   C     C_R   0.147828 0.410840 0.424421 -0.123424
C52   C     C_R   0.852080 0.593053 0.575637 -0.123709
C53   C     C_R   0.362809 0.943804 0.139096 -0.188966
C54   C     C_R   0.636955 0.056145 0.861209 -0.151926
C55   C     C_R   0.136354 0.443318 0.359559 -0.190961
C56   C     C_R   0.863596 0.556690 0.640304 -0.190381
C57   C     C_R   0.355301 0.062259 0.084554 -0.101924
C58   C     C_R   0.640541 0.917318 0.910762 -0.084333
C59   C     C_R   0.084291 0.492468 0.335809 -0.016218
C60   C     C_R   0.915541 0.503869 0.663555 -0.011339
C61   C     C_R   0.395188 0.078628 0.045462 -0.117613
C62   C     C_R   0.600154 0.901889 0.949157 -0.151043
C63   C     C_R   0.045315 0.503866 0.376706 -0.134691
C64   C     C_R   0.954309 0.492643 0.622380 -0.136449
H21   H     H_    0.389392 0.170078 0.004199 0.141992
H22   H     H_    0.603060 0.795145 0.986556 0.137183
H23   H     H_    0.005630 0.541273 0.358828 0.159779
H24   H     H_    0.993895 0.452448 0.639859 0.157850
C65   C     C_R   0.441826 0.974854 0.057955 0.080738
C66   C     C_R   0.556917 0.025849 0.941219 0.113594
C67   C     C_R   0.057089 0.474049 0.440613 0.069628
C68   C     C_R   0.942471 0.526326 0.558674 0.070079
C69   C     C_1   0.482323 0.993050 0.016658 -0.016514
C70   C     C_1   0.516131 0.008645 0.982154 -0.021441
C71   C     C_1   0.016589 0.492465 0.482178 -0.014299
C72   C     C_1   0.982811 0.508100 0.516890 -0.014170
C73   C     C_2   0.580726 0.178639 0.362880 0.776155
O21   O     O_2   0.556376 0.294069 0.327324 -0.548234
O22   O     O_R   0.626761 0.094326 0.346736 -0.650443
H25   H     H_    0.636379 0.143452 0.305230 0.315099
C74   C     C_2   0.419270 0.821395 0.637096 0.788021
O23   O     O_2   0.443623 0.706002 0.672664 -0.527680
O24   O     O_R   0.373239 0.905749 0.653239 -0.651377
H26   H     H_    0.363622 0.856668 0.694751 0.315354
C75   C     C_2   0.914816 0.246974 0.121298 0.782294
O25   O     O_2   0.929592 0.286335 0.175109 -0.512989
O26   O     O_R   0.879191 0.097779 0.108397 -0.662229
H27   H     H_    0.867766 0.036198 0.147364 0.313448
C76   C     C_2   0.087526 0.660988 0.866639 0.815528
O27   O     O_2   0.067970 0.797045 0.835451 -0.528793
O28   O     O_R   0.129810 0.559459 0.847060 -0.650516
H28   H     H_    0.141263 0.614766 0.807210 0.315868
C77   C     C_2   0.423676 0.721795 0.209600 0.760346
O29   O     O_2   0.407378 0.768940 0.258238 -0.575082
O30   O     O_R   0.456264 0.559121 0.208523 -0.649822
H29   H     H_    0.462613 0.491123 0.250416 0.326287
C78   C     C_2   0.583853 0.323616 0.800946 0.846651
O31   O     O_2   0.589534 0.273214 0.748274 -0.536952
O32   O     O_R   0.568017 0.514251 0.810574 -0.625949
H30   H     H_    0.566981 0.545230 0.855987 0.269791
C79   C     C_2   0.201315 0.363512 0.452634 0.788497
O33   O     O_2   0.222551 0.469647 0.492003 -0.528482
O34   O     O_R   0.227493 0.196659 0.436483 -0.644905
H31   H     H_    0.204524 0.107901 0.408894 0.255845
C80   C     C_2   0.798724 0.644344 0.547918 0.789677
O35   O     O_2   0.776620 0.539604 0.508754 -0.528007
O36   O     O_R   0.773656 0.813346 0.564329 -0.645554
H32   H     H_    0.797247 0.899939 0.591968 0.256043
C81   C     C_2   0.305729 0.168930 0.065967 0.796689
O37   O     O_2   0.307031 0.339016 0.050113 -0.548414
O38   O     O_R   0.257473 0.077883 0.064444 -0.642442
H33   H     H_    0.260557 0.933044 0.072297 0.241266
C82   C     C_2   0.686868 0.789613 0.925626 0.784126
O39   O     O_2   0.680992 0.615796 0.932899 -0.557830
O40   O     O_R   0.737193 0.864753 0.933340 -0.645797
H34   H     H_    0.737714 0.011445 0.931206 0.247748
C83   C     C_2   0.069044 0.536570 0.268988 0.732563
O41   O     O_2   0.025370 0.496498 0.245489 -0.526498
O42   O     O_R   0.103344 0.631258 0.233398 -0.667972
H35   H     H_    0.087162 0.662511 0.189716 0.287774
C84   C     C_2   0.930957 0.456026 0.730097 0.728504
O43   O     O_2   0.975007 0.491750 0.753368 -0.543955
O44   O     O_R   0.896397 0.362548 0.765618 -0.666831
H36   H     H_    0.912751 0.327779 0.808961 0.288645

loop_
_geom_bond_atom_site_label_1
_geom_bond_atom_site_label_2
_ccdc_geom_bond_type
O17   V3    S    
C55   C59   A    
C48   C52   A    
O1    C5    A    
C84   O43   D    
C47   H19   S    
O19   V1    S    
C9    C21   A    
O12   C8    A    
O3    C7    A    
O42   H35   S    
C51   C79   S    
C56   C60   A    
O15   V3    S    
C83   O41   D    
C25   C33   A    
O28   H28   S    
C5    C12   S    
O7    C3    A    
C6    C11   S    
C77   O30   S    
C35   C40   A    
C26   C30   A    
C28   C36   A    
C62   C66   A    
C36   C39   A    
C40   C44   A    
C61   C65   A    
C44   C76   S    
C14   C18   A    
C80   O36   S    
C62   H22   S    
O4    C8    A    
C51   C55   A    
C50   C54   A    
O32   H30   S    
O1    V3    S    
O13   V1    S    
O2    V4    S    
C38   H14   S    
O3    V1    S    
C40   H16   S    
C22   H1    S    
C46   C50   A    
C83   O42   S    
C60   C84   S    
C45   C49   A    
C1    O15   A    
C82   O39   D    
C15   C31   A    
O34   H31   S    
C2    O16   A    
C16   C32   A    
C10   C18   A    
O2    C6    A    
O36   H32   S    
C16   H12   S    
C58   C62   A    
C10   C22   A    
C41   C73   S    
C81   O38   S    
C11   C19   A    
C16   C20   A    
C47   C67   A    
O22   H25   S    
C13   C29   A    
C34   C37   A    
O11   C7    A    
C17   H6    S    
C11   C23   A    
C35   C36   A    
C82   O40   S    
O17   V1    S    
C43   C75   S    
O10   V2    S    
C58   C82   S    
C79   O34   S    
C79   O33   D    
O5    V1    S    
C57   C61   A    
O30   H29   S    
C39   C43   A    
C59   C83   S    
O7    V3    S    
C38   C42   A    
O19   V3    S    
C26   C34   A    
C48   H20   S    
O20   V4    S    
C46   H18   S    
O44   H36   S    
C45   H17   S    
O18   V4    S    
C23   C27   A    
C14   H10   S    
C33   C38   A    
C32   C44   A    
C13   H9    S    
C68   C72   S    
C39   H15   S    
O8    V4    S    
C48   C68   A    
C20   H7    S    
O5    C1    A    
C37   C41   A    
C1    C55   S    
O40   H34   S    
C14   C30   A    
C57   C81   S    
O8    C4    A    
C7    C10   S    
C21   C25   A    
O9    C5    A    
C2    C56   S    
C63   C67   A    
C73   O21   D    
C66   C70   S    
C65   C69   S    
O6    V2    S    
O18   V2    S    
C67   C71   S    
C45   C65   A    
C78   O31   D    
C76   O27   D    
C12   C20   A    
C27   C35   A    
C24   H3    S    
O26   H27   S    
C49   C53   A    
C60   C64   A    
C4    C54   S    
C29   C41   A    
C76   O28   S    
C75   O25   D    
O16   V4    S    
O9    V1    S    
C19   H8    S    
C61   H21   S    
C47   C51   A    
C3    O13   A    
C18   H5    S    
C21   H2    S    
C50   C78   S    
C63   H23   S    
O6    C2    A    
C31   C43   A    
C71   C72   T    
O11   V3    S    
O24   H26   S    
C30   C42   A    
O12   V4    S    
C77   O29   D    
C22   C26   A    
C8    C9    S    
C42   C74   S    
C46   C66   A    
C3    C53   S    
C59   C63   A    
C9    C17   A    
O10   C6    A    
C78   O32   S    
C54   C58   A    
C80   O35   D    
C64   C68   A    
C33   C34   A    
C74   O23   D    
C25   C29   A    
C52   C80   S    
C52   C56   A    
O20   V2    S    
C12   C24   A    
C27   C31   A    
C13   C17   A    
C53   C57   A    
C23   H4    S    
C73   O22   S    
C49   C77   S    
O14   V2    S    
C64   H24   S    
C24   C28   A    
C15   C19   A    
C84   O44   S    
C4    O14   A    
O38   H33   S    
C74   O24   S    
C37   H13   S    
C81   O37   D    
C69   C70   T    
O4    V2    S    
C28   C32   A    
C15   H11   S    
C75   O26   S    
