data_mof_unit_64403.cif
_audit_creation_date              2012-12-10T21:04:33-0500
_audit_creation_method            fapswitch 2.2
_symmetry_space_group_name_H-M    P1
_symmetry_Int_Tables_number       1
_space_group_crystal_system       triclinic
_cell_length_a                    15.847982
_cell_length_b                    15.06236
_cell_length_c                    27.479983
_cell_angle_alpha                 90.743747
_cell_angle_beta                  89.961842
_cell_angle_gamma                 89.943331
_cell_volume                      6559.13468839

loop_
_atom_site_label
_atom_site_type_symbol
_atom_type_description
_atom_site_fract_x
_atom_site_fract_y
_atom_site_fract_z
_atom_type_partial_charge
C1    C     C_R   0.338849 0.500040 0.500019 0.904423
C2    C     C_R   0.433109 0.559291 0.875011 -0.157064
C3    C     C_R   0.487123 0.496373 0.353087 -0.221267
C4    C     C_R   0.503061 0.502039 0.647327 -0.222494
C5    C     C_R   0.409396 0.539898 0.976216 -0.046601
C6    C     C_R   0.497786 0.405816 0.026324 -0.045925
C7    C     C_R   0.516226 0.421045 0.976787 -0.039549
C8    C     C_R   0.391662 0.524784 0.025944 -0.040983
C9    C     C_R   0.467223 0.483982 0.951175 -0.005469
C10   C     C_R   0.441944 0.463264 0.051455 -0.008993
C11   C     C_R   0.380355 0.616252 0.952283 0.573080
C12   C     C_R   0.661145 0.499975 0.499983 0.923335
C13   C     C_R   0.526433 0.329895 0.050771 0.576798
C14   C     C_R   0.387884 0.624415 0.901943 0.150065
C15   C     C_R   0.523859 0.325959 0.101490 0.148963
C16   C     C_R   0.499906 0.499355 0.405602 0.948609
C17   C     C_R   0.502164 0.500636 0.594328 0.948558
C18   C     C_R   0.322724 0.564575 0.051143 0.155167
C19   C     C_R   0.586841 0.382368 0.952683 0.147156
C20   C     C_R   0.956148 0.571057 0.479484 -0.147781
C21   C     C_R   0.043805 0.429552 0.521260 -0.154069
C22   C     C_R   0.043643 0.571088 0.479461 -0.153678
C23   C     C_R   0.435688 0.458218 0.102539 -0.174770
C24   C     C_R   0.956312 0.429523 0.521285 -0.153365
C25   C     C_R   0.913126 0.500254 0.500376 0.153478
C26   C     C_R   0.086833 0.500314 0.500328 0.155017
C27   C     C_1   0.824352 0.500089 0.500259 -0.035783
C28   C     C_1   0.175616 0.500235 0.500206 -0.043319
C29   C     C_1   0.250455 0.500143 0.500105 -0.147884
C30   C     C_1   0.749521 0.499974 0.500126 -0.130372
C31   C     C_R   0.496136 0.952056 0.456127 -0.133129
C32   C     C_R   0.504206 0.047908 0.543865 -0.137174
C33   C     C_R   0.504238 0.954126 0.543865 -0.132535
C34   C     C_R   0.478853 0.493875 0.900528 -0.168919
C35   C     C_R   0.496104 0.045838 0.456128 -0.135987
C36   C     C_R   0.500176 0.905030 0.499997 0.053473
C37   C     C_R   0.500120 0.094944 0.499997 0.058515
C38   C     C_1   0.500088 0.807183 0.499999 0.100850
C39   C     C_1   0.500049 0.192807 0.499999 0.082357
C40   C     C_R   0.387050 0.521301 0.178797 0.668944
C41   C     C_R   0.542010 0.443651 0.824833 0.670985
C42   C     C_R   0.489658 0.404937 0.178927 0.656088
C43   C     C_R   0.438260 0.558741 0.823870 0.649864
C44   C     C_R   0.412594 0.428057 0.285697 0.710355
C45   C     C_R   0.381524 0.516696 0.127982 -0.191063
C46   C     C_R   0.446196 0.443743 0.721844 0.704720
C47   C     C_R   0.428154 0.434977 0.335087 -0.321201
C48   C     C_R   0.449720 0.443219 0.671503 -0.320418
C49   C     C_R   0.531172 0.552280 0.321043 0.115217
C50   C     C_R   0.555451 0.561046 0.673954 0.111738
C51   C     C_R   0.515429 0.544731 0.270706 0.124643
C52   C     C_R   0.551499 0.561466 0.725099 0.132652
C53   C     C_R   0.456141 0.482143 0.253512 0.048558
C54   C     C_R   0.496346 0.502810 0.748587 0.050589
C55   C     C_R   0.537218 0.439042 0.875589 -0.190666
C56   C     C_R   0.321810 0.565930 0.101953 0.648745
C57   C     C_R   0.592897 0.385855 0.902179 0.646704
C58   C     C_R   0.484290 0.395446 0.128089 -0.157811
F1    F     F_    0.259090 0.610602 0.125501 -0.560146
F2    F     F_    0.657995 0.343003 0.879788 -0.560359
F3    F     F_    0.393602 0.386969 0.744885 -0.618031
F4    F     F_    0.355978 0.367547 0.268827 -0.616160
F5    F     F_    0.353908 0.688181 0.978441 -0.607004
F6    F     F_    0.549623 0.256056 0.025169 -0.604136
H1    H     H_    0.492918 0.080055 0.421753 0.157163
H2    H     H_    0.077784 0.374833 0.537392 0.157455
H3    H     H_    0.507426 0.919900 0.578239 0.160360
H4    H     H_    0.507369 0.083748 0.578241 0.156640
H5    H     H_    0.492975 0.916208 0.421753 0.160263
H6    H     H_    0.409666 0.397694 0.651234 0.199274
H7    H     H_    0.393619 0.392313 0.359530 0.200019
H8    H     H_    0.077496 0.625798 0.463278 0.158890
H9    H     H_    0.922457 0.374779 0.537432 0.158317
H10   H     H_    0.922164 0.625736 0.463314 0.162066
I1    I     I_    0.625331 0.641831 0.348048 -0.227905
I2    I     I_    0.644823 0.643763 0.637623 -0.231311
I3    I     I_    0.581578 0.623889 0.219336 -0.156278
I4    I     I_    0.628078 0.648322 0.768348 -0.149775
I5    I     I_    0.337773 0.744314 0.872594 0.003926
I6    I     I_    0.573476 0.207717 0.132736 0.007294
I7    I     I_    0.204951 0.595778 0.017123 -0.021658
I8    I     I_    0.701849 0.346955 0.988762 -0.026500
N1    N     N_R   0.443679 0.469114 0.202512 -0.336448
N2    N     N_R   0.491941 0.501614 0.800422 -0.336927
N3    N     N_1   0.500000 0.270550 0.500000 -0.081533
N4    N     N_1   0.500000 0.729450 0.500000 -0.072439
O1    O     O_R   0.378020 0.573650 0.500020 -0.608732
O2    O     O_2   0.595549 0.390469 0.799706 -0.435593
O3    O     O_2   0.389256 0.612701 0.797267 -0.502132
O4    O     O_2   0.542685 0.353907 0.204750 -0.502229
O5    O     O_R   0.621980 0.426350 0.499980 -0.610828
O6    O     O_R   0.621980 0.573650 0.499980 -0.594025
O7    O     O_R   0.378020 0.426350 0.500020 -0.613051
O8    O     O_R   0.500010 0.573660 0.428760 -0.592074
O9    O     O_R   0.499990 0.426340 0.571240 -0.613251
O10   O     O_R   0.499990 0.573660 0.571240 -0.592530
O11   O     O_R   0.500010 0.426340 0.428760 -0.614510
O12   O     O_2   0.338536 0.578898 0.204387 -0.435889
Zn1   Zn    Zn3+2 0.500000 0.598370 0.500000 1.032735
Zn2   Zn    Zn3+2 0.500000 0.401630 0.500000 1.005673

loop_
_geom_bond_atom_site_label_1
_geom_bond_atom_site_label_2
_ccdc_geom_bond_type
C1    O1    A    
C23   C58   A    
C21   C26   A    
C23   C45   A    
C21   H2    S    
C12   O5    A    
C33   C36   A    
C54   N2    S    
C3    C49   A    
C19   C57   A    
C43   O3    S    
C38   N4    T    
C28   C29   T    
C35   C37   A    
C5    C11   A    
C11   F5    S    
C40   O12   S    
C11   C14   A    
C16   O11   A    
C20   C25   A    
C35   H1    S    
O10   Zn1   S    
C18   I7    S    
C41   C55   A    
C44   C53   A    
C45   C56   A    
C49   C51   A    
C50   C52   A    
C49   I1    S    
C17   O9    A    
O5    Zn2   S    
C19   I8    S    
C44   C47   A    
C18   C56   A    
C32   H4    S    
C2    C34   A    
C2    C14   A    
C34   C55   A    
C27   C30   T    
C43   N2    A    
C40   N1    A    
C42   C58   A    
C52   I4    S    
C22   H8    S    
C52   C54   A    
O1    Zn1   S    
C40   C45   A    
C46   C48   A    
C46   F3    S    
C24   C25   A    
O9    Zn2   S    
C57   F2    S    
C44   F4    S    
C14   I5    S    
C41   N2    A    
C8    C18   A    
C4    C50   A    
C42   O4    S    
C51   I3    S    
C5    C9    A    
C50   I2    S    
C15   I6    S    
C13   C15   A    
C2    C43   A    
C46   C54   A    
C1    C29   S    
C20   H10   S    
C17   O10   A    
C32   C37   A    
N4    Zn1   S    
O7    Zn2   S    
C47   H7    S    
C4    C17   S    
C1    O7    A    
C20   C22   A    
C7    C19   A    
C55   C57   A    
C9    C34   A    
C15   C58   A    
C31   C35   A    
C39   N3    T    
O11   Zn2   S    
C33   H3    S    
C4    C48   A    
C7    C9    A    
C41   O2    S    
C12   C30   S    
C16   O8    A    
C12   O6    A    
C42   N1    A    
C48   H6    S    
C6    C10   A    
C5    C8    A    
C6    C7    A    
C10   C23   A    
C25   C27   S    
C26   C28   S    
C56   F1    S    
C53   N1    S    
C32   C33   A    
C36   C38   S    
C37   C39   S    
N3    Zn2   S    
C6    C13   A    
C13   F6    S    
O8    Zn1   S    
C3    C47   A    
C24   H9    S    
C31   H5    S    
C8    C10   A    
C22   C26   A    
C21   C24   A    
C31   C36   A    
C51   C53   A    
C3    C16   S    
O6    Zn1   S    
