data_mof_unit_12603.cif
_audit_creation_date              2012-12-10T17:54:28-0500
_audit_creation_method            fapswitch 2.2
_symmetry_space_group_name_H-M    P1
_symmetry_Int_Tables_number       1
_space_group_crystal_system       triclinic
_cell_length_a                    27.76824
_cell_length_b                    10.716475
_cell_length_c                    9.865029
_cell_angle_alpha                 89.099804
_cell_angle_beta                  89.833535
_cell_angle_gamma                 91.825372
_cell_volume                      2933.74330707

loop_
_atom_site_label
_atom_site_type_symbol
_atom_type_description
_atom_site_fract_x
_atom_site_fract_y
_atom_site_fract_z
_atom_type_partial_charge
C1    C     C_R   0.502725 0.259675 0.502148 0.868014
C2    C     C_R   0.972763 0.372525 0.495004 0.073609
C3    C     C_R   0.976178 0.601461 0.520169 0.043768
C4    C     C_R   0.405995 0.500053 0.500318 0.885977
C5    C     C_R   0.949275 0.487286 0.509736 0.070405
C6    C     C_R   0.944176 0.262658 0.475039 -0.211847
C7    C     C_R   0.894279 0.264789 0.476348 -0.138013
C8    C     C_R   0.870978 0.376437 0.496471 -0.027236
C9    C     C_R   0.898294 0.488027 0.513320 -0.054277
C10   C     C_R   0.874519 0.600520 0.532918 -0.024173
C11   C     C_R   0.824150 0.599508 0.533762 0.512239
C12   C     C_R   0.278735 0.463926 0.377048 -0.097203
C13   C     C_R   0.820669 0.379665 0.497930 0.515852
C14   C     C_R   0.723757 0.475086 0.387123 -0.217792
C15   C     C_R   0.673390 0.477267 0.380216 0.432366
C16   C     C_R   0.494830 0.738732 0.499514 0.886786
C17   C     C_R   0.671244 0.514818 0.623606 -0.297448
C18   C     C_R   0.721101 0.512259 0.628620 -0.096516
C19   C     C_R   0.747280 0.492301 0.510610 0.278926
C20   C     C_R   0.023800 0.371457 0.499009 0.002953
C21   C     C_R   0.050626 0.486120 0.500270 0.071066
C22   C     C_R   0.026936 0.601564 0.506512 0.065477
C23   C     C_R   0.252722 0.490389 0.493573 0.269270
C24   C     C_R   0.048905 0.258971 0.503361 -0.329467
C25   C     C_R   0.104665 0.712693 0.489979 -0.122416
C26   C     C_R   0.951229 0.711961 0.544887 -0.216095
C27   C     C_R   0.901342 0.711286 0.550709 -0.133908
C28   C     C_R   0.594041 0.499529 0.499741 0.920626
C29   C     C_R   0.054926 0.713798 0.497197 -0.216215
C30   C     C_R   0.505269 0.105816 0.763249 -0.163648
C31   C     C_R   0.488403 0.041588 0.878902 -0.152457
C32   C     C_R   0.463330 0.928223 0.866193 -0.149050
C33   C     C_R   0.459525 0.873480 0.739422 -0.136032
C34   C     C_R   0.101631 0.485685 0.495570 -0.130038
C35   C     C_R   0.480717 0.932808 0.623376 0.092205
C36   C     C_R   0.496937 0.057135 0.631905 0.097586
C37   C     C_R   0.504045 0.125527 0.508054 -0.112882
C38   C     C_R   0.504812 0.064523 0.383857 -0.207299
C39   C     C_R   0.498686 0.937579 0.380429 -0.207919
C40   C     C_R   0.176778 0.376087 0.492799 0.552714
C41   C     C_R   0.488263 0.870952 0.499975 -0.120993
C42   C     C_R   0.436075 0.337260 0.143465 -0.177581
C43   C     C_R   0.404325 0.258209 0.074332 -0.220548
C44   C     C_R   0.404208 0.258856 0.934071 -0.162187
C45   C     C_R   0.126010 0.371711 0.495655 -0.086223
C46   C     C_R   0.436001 0.338143 0.862256 -0.105597
C47   C     C_R   0.468438 0.420067 0.929023 0.152445
C48   C     C_R   0.468471 0.419893 0.073912 0.167986
C49   C     C_R   0.530059 0.576835 0.070095 -0.084638
C50   C     C_R   0.530050 0.576786 0.926649 -0.117683
C51   C     C_R   0.178576 0.598900 0.488042 0.514266
C52   C     C_R   0.276422 0.520640 0.613800 -0.214142
C53   C     C_R   0.326854 0.524992 0.618919 0.426203
C54   C     C_R   0.328690 0.467886 0.380316 -0.303468
C55   C     C_R   0.099297 0.257685 0.501036 0.507226
C56   C     C_R   0.128366 0.599860 0.491194 -0.002961
C57   C     C_R   0.353190 0.498055 0.500555 -0.085583
C58   C     C_R   0.646883 0.497480 0.500186 -0.096464
H1    H     H_    0.348112 0.446526 0.288636 0.186978
H2    H     H_    0.526282 0.190478 0.780138 0.175508
H3    H     H_    0.494043 0.081092 0.978186 0.148520
H4    H     H_    0.260156 0.440759 0.283961 0.153289
H5    H     H_    0.448341 0.880601 0.955027 0.147344
H6    H     H_    0.439997 0.784759 0.733119 0.183726
H7    H     H_    0.503217 0.891653 0.284327 0.170336
H8    H     H_    0.554564 0.639477 0.123020 0.159004
H9    H     H_    0.434015 0.330594 0.250957 0.208275
H10   H     H_    0.379734 0.196549 0.880396 0.165922
H11   H     H_    0.744916 0.460035 0.296732 0.138606
H12   H     H_    0.255350 0.541192 0.702845 0.137856
H13   H     H_    0.959140 0.173490 0.454038 0.143578
H14   H     H_    0.030213 0.169737 0.512843 0.133319
H15   H     H_    0.379782 0.195770 0.130128 0.167318
H16   H     H_    0.434502 0.331236 0.754915 0.205019
H17   H     H_    0.554535 0.639443 0.871137 0.155296
H18   H     H_    0.098808 0.074946 0.507186 0.318433
H19   H     H_    0.673858 0.446030 0.186039 0.330234
H20   H     H_    0.874008 0.178184 0.460566 0.193911
H21   H     H_    0.326729 0.572180 0.808995 0.332909
H22   H     H_    0.124517 0.801332 0.483812 0.199839
H23   H     H_    0.969222 0.800592 0.563229 0.140298
H24   H     H_    0.651787 0.530703 0.716759 0.186225
H25   H     H_    0.883872 0.798493 0.568796 0.190375
H26   H     H_    0.739487 0.525612 0.724218 0.153527
H27   H     H_    0.039465 0.804660 0.491952 0.135765
H28   H     H_    0.510954 0.114544 0.288704 0.175538
N1    N     N_R   0.201441 0.488308 0.489967 -0.362176
N2    N     N_R   0.798520 0.490247 0.515496 -0.347790
N3    N     N_R   0.499540 0.498800 0.142780 -0.121608
N4    N     N_R   0.499520 0.498720 0.857170 -0.127280
O1    O     O_R   0.500000 0.316780 0.614690 -0.664338
O2    O     O_R   0.571250 0.499990 0.614680 -0.636671
O3    O     O_R   0.571240 0.499970 0.385350 -0.546345
O4    O     O_2   0.201614 0.269876 0.494133 -0.467837
O5    O     O_3   0.122740 0.145640 0.504826 -0.693039
O6    O     O_3   0.649807 0.458700 0.258657 -0.751188
O7    O     O_3   0.350681 0.556920 0.736839 -0.760072
O8    O     O_2   0.793988 0.273403 0.482053 -0.546999
O9    O     O_2   0.204569 0.707575 0.483453 -0.537066
O10   O     O_2   0.800874 0.706887 0.550728 -0.549164
O11   O     O_R   0.500000 0.316750 0.385360 -0.637409
O12   O     O_R   0.428760 0.500030 0.614650 -0.582595
O13   O     O_R   0.428750 0.500010 0.385320 -0.654879
O14   O     O_R   0.500000 0.683250 0.614640 -0.625343
O15   O     O_R   0.500000 0.683220 0.385310 -0.624953
Zn1   Zn    Zn3+2 0.500000 0.500020 0.653130 0.947392
Zn2   Zn    Zn3+2 0.500000 0.499980 0.346870 0.964439

loop_
_geom_bond_atom_site_label_1
_geom_bond_atom_site_label_2
_ccdc_geom_bond_type
C10   C27   A    
C43   H15   S    
C34   C56   A    
C8    C13   A    
C22   C29   A    
C25   H22   S    
C31   H3    S    
C35   C36   A    
C25   C56   A    
O14   Zn1   S    
C7    C8    A    
C39   C41   A    
C31   C32   A    
C24   C55   A    
O15   Zn2   S    
C12   C23   A    
C26   C27   A    
C38   H28   S    
C40   N1    A    
C36   C37   A    
C18   C19   A    
H18   O5    S    
C30   C31   A    
C4    O13   A    
C51   C56   A    
C13   O8    S    
C33   C35   A    
C50   N4    A    
C20   C24   A    
C44   C46   A    
C8    C9    A    
C30   H2    S    
C4    C57   S    
C18   H26   S    
C40   O4    S    
C9    C10   A    
C29   H27   S    
C1    C37   S    
C17   C58   A    
C1    O1    A    
C23   N1    S    
C21   C22   A    
C51   O9    S    
C39   H7    S    
O1    Zn1   S    
C2    C6    A    
C16   O14   A    
C54   H1    S    
C25   C29   A    
C40   C45   A    
C49   H8    S    
C2    C20   A    
N4    Zn1   S    
C55   O5    S    
C19   N2    S    
C51   N1    A    
C15   O6    S    
C53   C57   A    
C21   C34   A    
C53   O7    S    
C4    O12   A    
C28   O3    A    
C43   C44   A    
C5    C9    A    
C37   C38   A    
C12   H4    S    
C47   C48   A    
C11   N2    A    
C17   H24   S    
N3    Zn2   S    
C17   C18   A    
C28   O2    A    
C34   C45   A    
C42   C48   A    
C16   O15   A    
C7    H20   S    
O2    Zn1   S    
C26   H23   S    
C48   N3    A    
C42   H9    S    
C15   C58   A    
C44   H10   S    
C2    C5    A    
C42   C43   A    
C1    O11   A    
C46   H16   S    
C52   C53   A    
C24   H14   S    
C46   C47   A    
C14   C19   A    
H21   O7    S    
C3    C26   A    
C32   H5    S    
C49   N3    A    
C6    H13   S    
C3    C5    A    
C6    C7    A    
C28   C58   S    
H19   O6    S    
C30   C36   A    
C32   C33   A    
C27   H25   S    
C50   H17   S    
O3    Zn2   S    
C23   C52   A    
C38   C39   A    
C33   H6    S    
C13   N2    A    
C14   H11   S    
O12   Zn1   S    
C35   C41   A    
C47   N4    A    
C52   H12   S    
C10   C11   A    
C20   C21   A    
C45   C55   A    
C49   C50   A    
O11   Zn2   S    
C14   C15   A    
C11   O10   S    
C3    C22   A    
O13   Zn2   S    
C16   C41   S    
C12   C54   A    
C54   C57   A    
