data_mof_unit_24905.cif
_audit_creation_date              2012-12-11T17:09:27-0500
_audit_creation_method            fapswitch 2.2
_symmetry_space_group_name_H-M    P1
_symmetry_Int_Tables_number       1
_space_group_crystal_system       triclinic
_cell_length_a                    14.800994
_cell_length_b                    6.923124
_cell_length_c                    13.504333
_cell_angle_alpha                 90.005568
_cell_angle_beta                  99.772062
_cell_angle_gamma                 89.985233
_cell_volume                      1363.6994981

loop_
_atom_site_label
_atom_site_type_symbol
_atom_type_description
_atom_site_fract_x
_atom_site_fract_y
_atom_site_fract_z
_atom_type_partial_charge
O1    O     O_R   0.586930 0.505770 0.416350 -0.537592
O2    O     O_R   0.413070 0.005770 0.583650 -0.537464
O3    O     O_R   0.397900 0.173100 0.389630 -0.536766
O4    O     O_R   0.602100 0.673100 0.610370 -0.537660
C1    C     C_R   0.364239 0.345434 0.362837 0.723927
C2    C     C_R   0.635751 0.845421 0.637176 0.724972
O5    O     O_R   0.585280 0.175870 0.404330 -0.543036
O6    O     O_R   0.414720 0.675870 0.595670 -0.543672
O7    O     O_R   0.601790 0.008380 0.598460 -0.535521
O8    O     O_R   0.398210 0.508380 0.401540 -0.534419
C3    C     C_R   0.614858 0.344930 0.383045 0.720988
C4    C     C_R   0.385601 0.845090 0.617514 0.720748
O9    O     O_3   0.505200 0.340120 0.563670 -0.369146
O10   O     O_3   0.494800 0.840120 0.436330 -0.368087
V1    V     V_3+5 0.499040 0.064180 0.488190 1.421551
V2    V     V_3+5 0.500960 0.564180 0.511810 1.420471
C5    C     C_R   0.259349 0.012847 0.685502 0.111881
C6    C     C_R   0.689317 0.512639 0.253674 0.110557
C7    C     C_R   0.320517 0.857980 0.689275 -0.164506
C8    C     C_R   0.686227 0.356374 0.318577 -0.162005
C9    C     C_R   0.322144 0.724130 0.768226 -0.269810
C10   C     C_R   0.758687 0.221755 0.327507 -0.268143
H1    H     H_    0.374334 0.612916 0.779146 0.141281
H2    H     H_    0.763361 0.110068 0.384273 0.135726
C11   C     C_R   0.256695 0.733716 0.834016 0.443449
C12   C     C_R   0.826225 0.232164 0.264132 0.438734
C13   C     C_R   0.188471 0.880162 0.820802 -0.200714
C14   C     C_R   0.821276 0.380069 0.190698 -0.197075
C15   C     C_R   0.194716 0.022486 0.748758 0.015780
C16   C     C_R   0.754270 0.522660 0.190720 0.017259
C17   C     C_3   0.122899 0.100802 0.667654 -0.399970
C18   C     C_3   0.686679 0.601918 0.105780 -0.412316
C19   C     C_3   0.193923 0.091505 0.598534 -0.388288
C20   C     C_3   0.615728 0.592303 0.174949 -0.387792
H3    H     H_    0.102693 0.250882 0.683171 0.166259
H4    H     H_    0.672480 0.500534 0.041124 0.169355
H5    H     H_    0.064825 0.998874 0.646092 0.169164
H6    H     H_    0.703106 0.752081 0.085961 0.162322
H7    H     H_    0.215167 0.236316 0.575294 0.166382
H8    H     H_    0.559978 0.486443 0.150071 0.167355
H9    H     H_    0.176803 0.985143 0.536463 0.168332
H10   H     H_    0.592322 0.737049 0.195764 0.174005
C21   C     C_1   0.783460 0.877110 0.782881 -0.190218
C22   C     C_1   0.216529 0.377092 0.217127 -0.171102
C23   C     C_1   0.716195 0.860121 0.716828 -0.187843
C24   C     C_1   0.283794 0.360138 0.283184 -0.181503
O11   O     O_R   0.101720 0.231700 0.098560 -0.535261
O12   O     O_R   0.898280 0.731700 0.901440 -0.539352
O13   O     O_R   0.914700 0.558980 0.095690 -0.555165
O14   O     O_R   0.085300 0.058980 0.904310 -0.553315
C25   C     C_R   0.886188 0.389775 0.118315 0.738932
C26   C     C_R   0.115815 0.889900 0.884081 0.741818
O15   O     O_R   0.102080 0.561590 0.110390 -0.531602
O16   O     O_R   0.897920 0.061590 0.889610 -0.540241
O17   O     O_R   0.086950 0.728940 0.916330 -0.521364
O18   O     O_R   0.913050 0.228940 0.083670 -0.524554
C27   C     C_R   0.136091 0.391894 0.137488 0.758583
C28   C     C_R   0.863894 0.891911 0.862531 0.720023
O19   O     O_3   0.994770 0.394510 0.936380 -0.375952
O20   O     O_3   0.005230 0.894510 0.063620 -0.366882
V3    V     V_3+5 0.000970 0.670520 0.011800 1.436497
V4    V     V_3+5 0.999030 0.170520 0.988200 1.428104
O21   O     O_3   0.264282 0.612408 0.916522 -0.557753
C29   C     C_3   0.242447 0.422256 0.883818 -0.178211
H11   H     H_    0.173401 0.415013 0.836168 0.135566
H12   H     H_    0.240635 0.330279 0.950701 0.148648
H13   H     H_    0.295371 0.361154 0.843441 0.120070
O22   O     O_3   0.901780 0.111152 0.280088 -0.558597
C30   C     C_3   0.873853 0.920654 0.254301 -0.161371
H14   H     H_    0.935851 0.828640 0.259684 0.161671
H15   H     H_    0.836973 0.912329 0.175473 0.130733
H16   H     H_    0.831209 0.860414 0.307135 0.113128

loop_
_geom_bond_atom_site_label_1
_geom_bond_atom_site_label_2
_ccdc_geom_bond_type
C2    C23   S    
C13   C15   A    
C5    C15   A    
O1    C3    A    
O2    C4    A    
O11   V4    S    
O5    C3    A    
C19   H7    S    
C20   H8    S    
C18   H4    S    
C10   H2    S    
C7    C9    A    
C14   C25   S    
O20   V4    S    
C25   O18   A    
C11   O21   S    
C30   H15   S    
C17   H3    S    
C21   C28   S    
O15   V3    S    
O22   C30   S    
O13   C25   A    
C20   H10   S    
O14   C26   A    
C17   C19   S    
C6    C16   A    
O10   V2    S    
C18   H6    S    
C26   O17   A    
O5    V1    S    
O6    V2    S    
C5    C19   S    
C2    O7    A    
C22   C24   T    
C3    C8    S    
O19   V3    S    
O13   V3    S    
C29   H13   S    
O4    C2    A    
O15   C27   A    
O16   V4    S    
C17   H5    S    
O20   V3    S    
C18   C20   S    
O4    V2    S    
C30   H16   S    
O11   C27   A    
C6    C20   S    
O9    V1    S    
C22   C27   S    
O6    C4    A    
O1    V2    S    
O2    V1    S    
C21   C23   T    
C8    C10   A    
C9    H1    S    
O14   V4    S    
O18   V4    S    
O3    V1    S    
C13   C26   S    
O16   C28   A    
C9    C11   A    
O19   V4    S    
O3    C1    A    
O12   C28   A    
C11   C13   A    
C1    C24   S    
C12   C14   A    
C19   H9    S    
C29   H11   S    
C14   C16   A    
O7    V1    S    
C12   O22   S    
C1    O8    A    
C15   C17   S    
O8    V2    S    
C16   C18   S    
O12   V3    S    
O17   V3    S    
C4    C7    S    
C5    C7    A    
C6    C8    A    
C30   H14   S    
O21   C29   S    
C10   C12   A    
O9    V2    S    
O10   V1    S    
C29   H12   S    
