data_mof_unit_20414.cif
_audit_creation_date              2013-03-05T15:55:42-0500
_audit_creation_method            fapswitch 2.2
_symmetry_space_group_name_H-M    P1
_symmetry_Int_Tables_number       1
_space_group_crystal_system       triclinic
_cell_length_a                    6.926431
_cell_length_b                    17.639191
_cell_length_c                    19.429394
_cell_angle_alpha                 108.642364
_cell_angle_beta                  89.650216
_cell_angle_gamma                 90.544571
_cell_volume                      2249.15595004

loop_
_atom_site_label
_atom_site_type_symbol
_atom_site_description
_atom_site_fract_x
_atom_site_fract_y
_atom_site_fract_z
_atom_type_partial_charge
O1    O     O_R   0.494330 0.415710 0.413720 -0.608874
O2    O     O_R   0.819360 0.430070 0.560210 -0.552879
O3    O     O_R   0.994320 0.584290 0.586280 -0.588380
C1    C     C_R   0.650639 0.416488 0.583036 1.016104
O4    O     O_R   0.823740 0.406290 0.412670 -0.593979
O5    O     O_R   0.998730 0.560340 0.437690 -0.570548
C2    C     C_R   0.654569 0.381302 0.386056 0.963499
O6    O     O_R   0.489920 0.439660 0.562310 -0.583573
O7    O     O_3   0.662330 0.550570 0.508380 -0.248592
V1    V     V_3+5 0.935370 0.490620 0.498440 1.278816
O8    O     O_R   0.328720 0.569930 0.439790 -0.581170
C3    C     C_R   0.160307 0.586158 0.419237 1.004568
O9    O     O_R   0.324340 0.593710 0.587330 -0.603783
C4    C     C_R   0.155339 0.616783 0.615239 1.036227
V2    V     V_3+5 0.435940 0.509380 0.501560 1.255983
O10   O     O_3   0.159110 0.449430 0.491620 -0.267906
C5    C     C_R   0.290497 0.742882 0.704191 -0.095603
H1    H     H_    0.414325 0.739795 0.669111 0.142443
C6    C     C_R   0.276314 0.807081 0.768889 -0.057411
H2    H     H_    0.388914 0.852397 0.781539 0.149776
C7    C     C_R   0.118343 0.813509 0.816349 -0.293967
C8    C     C_R   0.972561 0.753553 0.796931 0.356894
C9    C     C_R   0.985297 0.690892 0.730917 -0.143787
H3    H     H_    0.871150 0.646265 0.716763 0.178921
C10   C     C_R   0.144077 0.684517 0.684176 -0.190634
C11   C     C_R   0.292188 0.624276 0.315616 -0.172855
C12   C     C_R   0.152628 0.635959 0.370376 -0.299198
C13   C     C_R   0.003989 0.691736 0.375689 0.340269
C14   C     C_R   0.996719 0.734753 0.325385 0.021412
C15   C     C_R   0.139309 0.722147 0.269860 0.043141
C16   C     C_R   0.288404 0.666577 0.264983 0.075081
C17   C     C_R   0.849981 0.790671 0.329749 -0.113827
C18   C     C_R   0.842128 0.832783 0.280418 -0.206787
C19   C     C_R   0.981836 0.821307 0.225875 0.189195
C20   C     C_R   0.131772 0.765486 0.219561 0.070963
C21   C     C_R   0.272029 0.753217 0.163268 -0.080550
C22   C     C_R   0.413841 0.692565 0.155885 -0.211528
C23   C     C_R   0.425345 0.651654 0.207829 -0.149105
C24   C     C_R   0.972920 0.866132 0.178394 -0.184603
C25   C     C_R   0.113991 0.858843 0.125147 -0.279497
C26   C     C_R   0.264346 0.802550 0.117078 0.274427
H4    H     H_    0.400512 0.579363 0.311783 0.166849
H5    H     H_    0.740012 0.802838 0.371525 0.176709
H6    H     H_    0.726576 0.875268 0.285440 0.137164
H7    H     H_    0.858705 0.909527 0.184715 0.153283
C27   C     C_R   0.776093 0.192829 0.876489 0.294751
C28   C     C_R   0.624717 0.136812 0.871143 -0.305025
C29   C     C_R   0.479745 0.128477 0.818980 -0.180636
C30   C     C_R   0.482361 0.174625 0.772135 0.135676
C31   C     C_R   0.631911 0.230550 0.776979 0.042262
C32   C     C_R   0.779919 0.239694 0.829213 -0.015773
C33   C     C_R   0.335650 0.165625 0.720907 -0.233695
C34   C     C_R   0.332932 0.211614 0.673757 -0.098092
C35   C     C_R   0.484411 0.268096 0.677455 0.053080
C36   C     C_R   0.632618 0.277818 0.729996 0.027437
C37   C     C_R   0.782029 0.334894 0.735937 0.019112
C38   C     C_R   0.926931 0.343659 0.788364 -0.115276
C39   C     C_R   0.925789 0.297046 0.834181 -0.150819
C40   C     C_R   0.496072 0.313389 0.629206 -0.148690
C41   C     C_R   0.643478 0.370148 0.634830 -0.312372
C42   C     C_R   0.784644 0.382160 0.689487 0.365976
H8    H     H_    0.364564 0.085060 0.814431 0.155573
H9    H     H_    0.219713 0.123089 0.718574 0.171147
H10   H     H_    0.394819 0.303934 0.585220 0.185617
H11   H     H_    0.043617 0.386504 0.794226 0.191608
H12   H     H_    0.040126 0.306963 0.873821 0.192951
C43   C     C_R   0.788630 0.250687 0.299350 -0.063271
C44   C     C_R   0.778106 0.189764 0.231727 -0.174589
H13   H     H_    0.888725 0.144241 0.217090 0.141699
C45   C     C_R   0.621230 0.183894 0.184797 -0.138562
C46   C     C_R   0.474467 0.240968 0.205750 -0.061979
H14   H     H_    0.351428 0.237824 0.170773 0.139308
C47   C     C_R   0.486814 0.303896 0.271311 -0.047697
H15   H     H_    0.373451 0.348179 0.284556 0.123850
C48   C     C_R   0.643725 0.310556 0.318763 -0.215775
O11   O     O_R   0.774940 0.060470 0.937800 -0.579617
O12   O     O_R   0.440880 0.093730 0.087350 -0.608103
O13   O     O_R   0.266130 0.939630 0.062280 -0.576907
C49   C     C_R   0.609816 0.116780 0.115374 0.946819
O14   O     O_R   0.445480 0.069960 0.939820 -0.584965
O15   O     O_R   0.270770 0.915690 0.913690 -0.574724
C50   C     C_R   0.614990 0.085982 0.919061 1.012148
O16   O     O_R   0.770300 0.084410 0.086380 -0.597116
O17   O     O_3   0.602600 0.949510 0.991670 -0.210791
V3    V     V_3+5 0.329470 0.009370 0.001550 1.275666
O18   O     O_R   0.940760 0.906160 0.912560 -0.574710
C51   C     C_R   0.109440 0.882382 0.885037 0.979294
O19   O     O_R   0.936150 0.929930 0.060100 -0.572539
C52   C     C_R   0.104888 0.912551 0.079664 1.002607
V4    V     V_3+5 0.828930 0.990450 0.998310 1.298040
O20   O     O_3   0.105670 0.050490 0.008320 -0.258893
N1    N     N_R   0.410222 0.798158 0.063330 0.232786
O21   O     O_R   0.579084 0.830247 0.083298 -0.396106
O22   O     O_R   0.365021 0.774326 0.994761 -0.318390
C53   C     C_2   0.547913 0.667554 0.092984 1.171715
O23   O     O_2   0.484892 0.633487 0.032170 -0.542263
O24   O     O_R   0.746460 0.680244 0.104009 -0.785018
H16   H     H_    0.823314 0.660264 0.057196 0.356907
C54   C     C_2   0.577270 0.590189 0.199693 1.007848
O25   O     O_2   0.698280 0.598746 0.247155 -0.634444
O26   O     O_R   0.582308 0.523177 0.137240 -0.773448
H17   H     H_    0.692568 0.485977 0.137774 0.340701
N2    N     N_R   0.919801 0.204732 0.931948 0.234123
O27   O     O_R   0.869830 0.229437 0.000133 -0.397508
O28   O     O_R   0.098793 0.186287 0.914338 -0.415200
C55   C     C_2   0.166828 0.198388 0.622874 0.992654
O29   O     O_2   0.094826 0.254131 0.608002 -0.645799
O30   O     O_R   0.086035 0.121767 0.594589 -0.793638
H18   H     H_    0.971338 0.120262 0.561978 0.332168
N3    N     N_R   0.925245 0.445009 0.700122 0.215033
O31   O     O_R   0.093316 0.429843 0.668703 -0.373570
O32   O     O_R   0.897774 0.512956 0.750854 -0.391711
C56   C     C_2   0.945031 0.246047 0.349747 0.993448
O33   O     O_2   0.106414 0.224507 0.326042 -0.659497
O34   O     O_R   0.906012 0.262577 0.423804 -0.789885
H19   H     H_    0.023961 0.256765 0.452312 0.344867
N4    N     N_R   0.815740 0.752721 0.844953 0.242046
O35   O     O_R   0.665690 0.797037 0.846838 -0.383210
O36   O     O_R   0.804472 0.695925 0.874113 -0.292300
N5    N     N_R   0.863660 0.705898 0.433047 0.227769
O37   O     O_R   0.918599 0.731572 0.500547 -0.424160
O38   O     O_R   0.683596 0.686320 0.417938 -0.382611

loop_
_geom_bond_atom_site_label_1
_geom_bond_atom_site_label_2
_geom_bond_distance
_ccdc_geom_bond_type
C8    N4    1.430624 S    
C36   C37   1.416075 A    
C7    C51   1.491519 S    
O26   H17   1.013859 S    
C37   C42   1.410866 A    
C47   H15   1.083336 S    
C53   O23   1.222751 D    
C1    O6    1.299161 A    
O24   H16   1.013688 S    
V3    O20   1.704173 S    
C34   C35   1.426136 A    
C37   C38   1.406289 A    
C13   C14   1.417397 A    
C11   C12   1.399982 A    
O14   V3    2.004452 S    
C15   C20   1.421698 A    
C21   C22   1.431830 A    
C6    C7    1.408400 A    
C22   C23   1.418929 A    
C14   C17   1.406280 A    
N4    O36   1.300629 A    
O5    C3    1.295471 A    
C15   C16   1.412422 A    
C55   O29   1.221377 D    
O34   H19   1.013979 S    
O30   H18   1.014040 S    
C22   C53   1.483182 S    
C19   C20   1.415535 A    
C28   C50   1.485600 S    
N3    O31   1.300869 A    
C35   C36   1.422263 A    
O8    V2    1.994516 S    
C34   C55   1.488894 S    
C39   H12   1.081493 S    
C28   C29   1.404074 A    
C44   H13   1.084323 S    
C9    H3    1.082961 S    
C45   C46   1.401789 A    
O1    V2    2.001939 S    
C25   C52   1.489812 S    
O7    V1    2.152937 S    
C24   H7    1.084929 S    
O12   V3    1.999183 S    
C40   C41   1.403110 A    
O9    C4    1.300055 A    
C47   C48   1.409113 A    
C21   C26   1.437432 A    
O17   V4    1.707947 S    
C42   N3    1.433731 S    
N5    O38   1.300932 A    
C31   C32   1.418403 A    
C35   C40   1.414332 A    
O12   C49   1.299294 A    
O13   C52   1.295352 A    
C3    C12   1.486747 S    
C19   C24   1.395716 A    
O17   V3    2.152825 S    
O14   C50   1.296865 A    
C13   N5    1.436150 S    
O11   C50   1.296772 A    
C24   C25   1.395196 A    
C46   C47   1.399128 A    
O18   C51   1.298159 A    
C2    C48   1.492863 S    
C27   C32   1.418634 A    
C43   C44   1.408342 A    
C41   C42   1.411931 A    
C20   C21   1.423577 A    
O2    C1    1.294633 A    
C14   C15   1.423562 A    
C29   H8    1.084782 S    
C54   O25   1.222175 D    
C30   C33   1.398841 A    
C1    C41   1.485872 S    
N1    O22   1.301615 A    
C5    H1    1.083130 S    
C40   H10   1.078896 S    
N2    O28   1.300496 A    
C32   C39   1.404601 A    
O15   C51   1.299921 A    
O3    C4    1.295486 A    
O13   V3    2.002360 S    
C29   C30   1.401637 A    
C54   O26   1.397893 S    
O19   V4    1.994431 S    
O6    V2    1.996887 S    
O9    V2    2.002154 S    
O18   V4    2.002205 S    
C43   C48   1.423269 A    
V4    O20   2.160535 S    
O2    V1    2.004542 S    
N2    O27   1.301139 A    
C33   C34   1.404729 A    
C11   H4    1.081221 S    
O4    C2    1.298667 A    
C56   O33   1.223063 D    
O16   V4    2.007743 S    
C27   C28   1.415086 A    
C25   C26   1.418881 A    
C45   C49   1.485186 S    
O1    C2    1.298494 A    
C18   H6    1.084151 S    
C8    C9    1.403101 A    
C38   H11   1.082511 S    
C23   C54   1.489260 S    
C33   H9    1.084951 S    
O5    V1    2.002409 S    
O8    C3    1.298943 A    
C53   O24   1.397967 S    
C27   N2    1.435419 S    
C31   C36   1.419475 A    
C16   C23   1.416732 A    
C5    C10   1.403094 A    
C17   C18   1.389245 A    
C6    H2    1.082819 S    
C43   C56   1.484891 S    
O4    V1    1.999172 S    
O3    V1    2.000581 S    
V1    O10   1.704237 S    
N4    O35   1.299705 A    
C49   O16   1.295284 A    
C38   C39   1.391514 A    
C55   O30   1.398682 S    
N1    O21   1.300553 A    
C5    C6    1.400965 A    
C17   H5    1.081323 S    
C18   C19   1.398022 A    
C9    C10   1.404192 A    
C4    C10   1.484918 S    
O7    V2    1.709863 S    
N3    O32   1.300393 A    
C11   C16   1.412506 A    
C26   N1    1.433286 S    
C46   H14   1.083171 S    
O19   C52   1.300446 A    
C44   C45   1.404418 A    
C30   C31   1.406192 A    
C12   C13   1.411243 A    
N5    O37   1.301141 A    
C7    C8    1.417627 A    
O15   V3    2.000559 S    
V2    O10   2.160450 S    
O11   V4    1.997499 S    
C56   O34   1.398931 S    
