data_mof_unit_59117.cif
_audit_creation_date              2012-10-26T20:34:23-0400
_audit_creation_method            fapswitch 2.2
_symmetry_space_group_name_H-M    P1
_symmetry_Int_Tables_number       1
_space_group_crystal_system       triclinic
_cell_length_a                    15.982485
_cell_length_b                    14.779044
_cell_length_c                    10.682061
_cell_angle_alpha                 90.128585
_cell_angle_beta                  89.101235
_cell_angle_gamma                 89.531601
_cell_volume                      2522.76345938

loop_
_atom_site_label
_atom_site_type_symbol
_atom_type_description
_atom_site_fract_x
_atom_site_fract_y
_atom_site_fract_z
_atom_type_partial_charge
C1    C     C_R   0.341041 0.500372 0.499520 0.572229
C2    C     C_R   0.087545 0.501351 0.499326 -0.009432
C3    C     C_R   0.498338 0.499871 0.259188 0.591957
C4    C     C_R   0.501121 0.500151 0.740836 0.590109
C5    C     C_1   0.252304 0.501344 0.498256 0.019461
C6    C     C_1   0.747711 0.499287 0.505552 0.019086
C7    C     C_R   0.546063 0.951021 0.590055 0.015774
C8    C     C_R   0.452510 0.048863 0.411214 0.018223
C9    C     C_R   0.452060 0.951906 0.411391 0.018039
C10   C     C_R   0.546365 0.047978 0.590227 0.023901
C11   C     C_R   0.500526 0.902883 0.498864 -0.109046
C12   C     C_R   0.658973 0.499717 0.501388 0.571306
C13   C     C_R   0.498396 0.097061 0.502095 -0.105055
C14   C     C_3   0.452938 0.570365 0.041982 -0.032198
C15   C     C_3   0.545443 0.429984 0.957948 -0.038085
C16   C     C_3   0.533167 0.578019 0.959754 -0.032921
C17   C     C_3   0.465948 0.422372 0.040357 -0.040030
C18   C     C_3   0.420441 0.492810 0.958346 -0.035442
C19   C     C_3   0.578318 0.507053 0.041644 -0.034795
C20   C     C_3   0.500525 0.500563 0.876864 0.008260
C21   C     C_3   0.498282 0.499557 0.123147 0.008896
C22   C     C_1   0.500080 0.802458 0.499486 0.087881
C23   C     C_1   0.822579 0.499465 0.508322 -0.035058
C24   C     C_1   0.499460 0.197526 0.500874 0.082024
C25   C     C_2   0.599640 0.099719 0.678051 0.271424
C26   C     C_2   0.397986 0.900031 0.324902 0.287082
C27   C     C_2   0.408740 0.101663 0.312812 0.271476
C28   C     C_2   0.589536 0.898069 0.688514 0.281579
C29   C     C_R   0.335118 0.475837 0.903917 0.053540
C30   C     C_R   0.268118 0.537086 0.920686 -0.071623
C31   C     C_R   0.189299 0.517363 0.873127 -0.122321
C32   C     C_R   0.176864 0.437267 0.806743 -0.105934
C33   C     C_R   0.243345 0.376701 0.787539 -0.101990
C34   C     C_1   0.177427 0.501842 0.497898 -0.034179
C35   C     C_R   0.321982 0.395717 0.835985 -0.063064
C36   C     C_R   0.665233 0.504363 0.095506 0.055524
C37   C     C_R   0.721283 0.576527 0.081419 -0.063344
C38   C     C_R   0.802652 0.569363 0.126876 -0.120893
C39   C     C_R   0.828465 0.490818 0.188147 -0.110280
C40   C     C_R   0.772630 0.419571 0.205013 -0.106050
C41   C     C_R   0.691424 0.426339 0.159447 -0.069072
C42   C     C_2   0.404198 0.649369 0.094525 0.206119
C43   C     C_2   0.596646 0.352436 0.906580 0.231214
C44   C     C_2   0.567985 0.665163 0.910159 0.217248
C45   C     C_R   0.954835 0.583154 0.514295 -0.023181
C46   C     C_2   0.428590 0.336284 0.089061 0.237878
C47   C     C_R   0.088512 0.671344 0.508357 0.041313
C48   C     C_R   0.138778 0.695329 0.609647 -0.094707
C49   C     C_R   0.182199 0.777071 0.608393 -0.107478
C50   C     C_R   0.175479 0.835536 0.506321 -0.074642
C51   C     C_R   0.125398 0.812245 0.405278 -0.079419
C52   C     C_R   0.082042 0.730414 0.406077 -0.076582
C53   C     C_R   0.911078 0.330111 0.497179 0.027587
C54   C     C_R   0.862049 0.303560 0.600829 -0.092368
C55   C     C_R   0.818358 0.222117 0.598186 -0.084397
C56   C     C_R   0.045321 0.417925 0.494539 -0.025941
C57   C     C_R   0.823516 0.166374 0.492440 -0.093765
C58   C     C_R   0.872552 0.192059 0.389184 -0.118990
C59   C     C_R   0.916267 0.273624 0.391362 -0.095515
C60   C     C_R   0.906848 0.669177 0.530358 0.041611
C61   C     C_R   0.856651 0.702147 0.433579 -0.092181
C62   C     C_R   0.810395 0.782131 0.449964 -0.108969
C63   C     C_R   0.814246 0.829896 0.562777 -0.093634
C64   C     C_R   0.864359 0.797685 0.659358 -0.086807
C65   C     C_R   0.910543 0.717575 0.643400 -0.074323
C66   C     C_R   0.093770 0.331577 0.484516 0.029064
C67   C     C_R   0.042974 0.583948 0.508661 -0.021419
C68   C     C_R   0.143356 0.313258 0.377456 -0.084607
C69   C     C_R   0.189369 0.232591 0.368228 -0.092261
C70   C     C_R   0.186001 0.169500 0.465389 -0.108622
C71   C     C_R   0.136423 0.186928 0.571819 -0.117413
C72   C     C_R   0.090453 0.267637 0.581567 -0.092666
C73   C     C_R   0.957075 0.417195 0.500242 -0.024141
C74   C     C_R   0.912517 0.499888 0.508963 -0.010327
Cu1   Cu    Cu3+1 0.500000 0.589220 0.500000 1.055884
Cu2   Cu    Cu3+1 0.500000 0.410780 0.500000 1.018737
H1    H     H_    0.579950 0.166190 0.710974 0.112633
H2    H     H_    0.703149 0.638439 0.035937 0.147801
H3    H     H_    0.845752 0.624868 0.114573 0.102801
H4    H     H_    0.891456 0.485440 0.223329 0.114724
H5    H     H_    0.792076 0.358976 0.253294 0.125122
H6    H     H_    0.649154 0.370143 0.172741 0.111879
H7    H     H_    0.412186 0.716256 0.054958 0.093738
H8    H     H_    0.577446 0.283332 0.923598 0.086653
H9    H     H_    0.545834 0.729354 0.947676 0.111081
H10   H     H_    0.460309 0.272118 0.072969 0.106706
H11   H     H_    0.144241 0.650746 0.689236 0.103075
H12   H     H_    0.418622 0.834725 0.288827 0.123983
H13   H     H_    0.221010 0.795108 0.686588 0.116406
H14   H     H_    0.209035 0.898866 0.505564 0.139779
H15   H     H_    0.120300 0.857535 0.326234 0.133797
H16   H     H_    0.043733 0.712854 0.327019 0.104300
H17   H     H_    0.857803 0.345958 0.683572 0.137378
H18   H     H_    0.780658 0.202330 0.678336 0.178230
H19   H     H_    0.789597 0.103295 0.490553 0.138486
H20   H     H_    0.876494 0.148897 0.307292 0.117442
H21   H     H_    0.953493 0.293187 0.310417 0.110822
H22   H     H_    0.853393 0.665816 0.345872 0.103673
H23   H     H_    0.380833 0.167005 0.335212 0.115318
H24   H     H_    0.771564 0.807069 0.375225 0.112439
H25   H     H_    0.778433 0.891836 0.575336 0.130666
H26   H     H_    0.867249 0.834679 0.746716 0.125478
H27   H     H_    0.948785 0.692957 0.719115 0.104150
H28   H     H_    0.146248 0.361448 0.301290 0.132591
H29   H     H_    0.227523 0.218955 0.285627 0.159505
H30   H     H_    0.221708 0.107088 0.458130 0.128233
H31   H     H_    0.133826 0.138016 0.647001 0.115614
H32   H     H_    0.052689 0.280545 0.664848 0.107708
H33   H     H_    0.620050 0.834246 0.665034 0.130087
H34   H     H_    0.275678 0.600029 0.970002 0.144529
H35   H     H_    0.137740 0.564320 0.887804 0.103360
H36   H     H_    0.115815 0.422442 0.769858 0.114729
H37   H     H_    0.234014 0.314780 0.735637 0.124926
H38   H     H_    0.372562 0.347456 0.821420 0.115642
N1    N     N_1   0.500000 0.276710 0.500000 -0.197056
N2    N     N_1   0.500000 0.723290 0.500000 -0.187414
O1    O     O_R   0.380310 0.575320 0.500020 -0.477998
O2    O     O_2   0.328307 0.927475 0.297960 -0.487315
O3    O     O_2   0.407077 0.075026 0.204613 -0.458456
O4    O     O_2   0.588004 0.922772 0.797679 -0.454790
O5    O     O_2   0.353256 0.638297 0.179308 -0.480969
O6    O     O_2   0.659746 0.366883 0.844260 -0.485306
O7    O     O_2   0.623057 0.664260 0.829696 -0.481906
O8    O     O_2   0.362848 0.338299 0.148679 -0.486299
O9    O     O_R   0.619690 0.424680 0.499980 -0.488822
O10   O     O_R   0.619690 0.575320 0.499980 -0.484601
O11   O     O_R   0.380310 0.424680 0.500020 -0.492942
O12   O     O_R   0.499980 0.575330 0.316850 -0.482578
O13   O     O_R   0.500020 0.424670 0.683150 -0.507814
O14   O     O_R   0.500020 0.575330 0.683150 -0.471790
O15   O     O_R   0.499980 0.424670 0.316850 -0.495683
O16   O     O_2   0.667695 0.070618 0.710124 -0.503005

loop_
_geom_bond_atom_site_label_1
_geom_bond_atom_site_label_2
_ccdc_geom_bond_type
C7    C10   A    
C66   C68   A    
C45   C60   S    
C8    C13   A    
Cu2   O9    S    
C71   H31   S    
C73   C74   A    
C14   C18   S    
C61   H22   S    
Cu1   O1    S    
C63   H25   S    
C53   C59   A    
C53   C54   A    
C7    C11   A    
C27   H23   S    
C29   C30   A    
C30   H34   S    
C3    O15   A    
C14   C21   S    
C36   C37   A    
C19   C21   S    
C37   C38   A    
C19   C36   S    
C6    C12   S    
C30   C31   A    
Cu2   O15   S    
C12   O10   A    
C38   H3    S    
C6    C23   T    
Cu2   N1    S    
C35   H38   S    
Cu1   O12   S    
C58   H20   S    
C25   H1    S    
C54   H17   S    
C44   O7    D    
C51   H15   S    
C15   C19   S    
C50   H14   S    
C66   C72   A    
C72   H32   S    
C8    C9    A    
C45   C67   A    
C70   C71   A    
C16   C44   S    
Cu1   O14   S    
C14   C42   S    
C2    C34   S    
C22   N2    T    
C43   H8    S    
C46   O8    D    
C36   C41   A    
C61   C62   A    
C55   H18   S    
C47   C67   S    
C9    C26   S    
C17   C18   S    
C15   C20   S    
C51   C52   A    
C68   H28   S    
C17   C46   S    
C2    C67   A    
C70   H30   S    
C39   C40   A    
C69   H29   S    
C3    O12   A    
C68   C69   A    
C4    O14   A    
C12   O9    A    
C58   C59   A    
C17   C21   S    
C7    C28   S    
C13   C24   S    
C60   C61   A    
C64   H26   S    
Cu1   Cu2   S    
C62   C63   A    
Cu2   O13   S    
C47   C48   A    
C16   C20   S    
C5    C34   T    
C50   C51   A    
C48   H11   S    
C18   C29   S    
C1    O1    A    
C9    C11   A    
C43   O6    D    
C47   C52   A    
C62   H24   S    
C10   C25   S    
C48   C49   A    
C60   C65   A    
C55   C57   A    
C28   O4    D    
C59   H21   S    
C14   C16   S    
C52   H16   S    
C65   H27   S    
C23   C74   S    
C44   H9    S    
C1    C5    S    
C15   C17   S    
C54   C55   A    
C40   C41   A    
C56   C73   A    
C32   H36   S    
C40   H5    S    
C31   C32   A    
C53   C73   S    
C42   H7    S    
C1    O11   A    
C49   H13   S    
C10   C13   A    
C4    O13   A    
C27   O3    D    
C28   H33   S    
C26   O2    D    
C37   H2    S    
C29   C35   A    
C11   C22   S    
C33   H37   S    
Cu1   O10   S    
C39   H4    S    
C15   C43   S    
C71   C72   A    
C2    C56   A    
C8    C27   S    
C64   C65   A    
C57   C58   A    
C38   C39   A    
C16   C19   S    
C56   C66   S    
C41   H6    S    
C33   C35   A    
C18   C20   S    
C69   C70   A    
C3    C21   S    
C63   C64   A    
C4    C20   S    
C32   C33   A    
C24   N1    T    
C26   H12   S    
C49   C50   A    
C57   H19   S    
Cu2   O11   S    
C31   H35   S    
C45   C74   A    
Cu1   N2    S    
C25   O16   D    
C42   O5    D    
C46   H10   S    
