data_mof_unit_8515.cif
_audit_creation_date              2012-10-26T20:06:15-0400
_audit_creation_method            fapswitch 2.2
_symmetry_space_group_name_H-M    P1
_symmetry_Int_Tables_number       1
_space_group_crystal_system       triclinic
_cell_length_a                    9.513787
_cell_length_b                    10.834041
_cell_length_c                    13.397851
_cell_angle_alpha                 90.163595
_cell_angle_beta                  72.553056
_cell_angle_gamma                 89.993887
_cell_volume                      1317.41664894

loop_
_atom_site_label
_atom_site_type_symbol
_atom_type_description
_atom_site_fract_x
_atom_site_fract_y
_atom_site_fract_z
_atom_type_partial_charge
C1    C     C_R   0.499968 0.737944 0.500151 0.547000
C2    C     C_R   0.371174 0.513467 0.815904 -0.012528
C3    C     C_R   0.627081 0.936133 0.501567 -0.141258
C4    C     C_R   0.421045 0.505987 0.700483 0.541685
C5    C     C_R   0.627137 0.063836 0.501413 -0.138987
C6    C     C_R   0.499972 0.128201 0.500069 0.019908
C7    C     C_R   0.372748 0.063832 0.498893 -0.139981
C8    C     C_R   0.372702 0.936132 0.499025 -0.137719
C9    C     C_R   0.499900 0.871774 0.500284 0.020521
C10   C     C_R   0.900872 0.583184 0.559053 0.017342
C11   C     C_R   0.049386 0.582622 0.559617 0.011918
C12   C     C_R   0.424630 0.532366 0.983290 0.071700
C13   C     C_R   0.099783 0.417826 0.439790 0.019460
C14   C     C_R   0.950837 0.417709 0.439969 0.008983
C15   C     C_R   0.499983 0.262051 0.499979 0.552009
C16   C     C_R   0.578657 0.502132 0.299767 0.546215
C17   C     C_R   0.779387 0.621746 0.032192 -0.138252
C18   C     C_R   0.622461 0.522469 0.186759 -0.011840
C19   C     C_R   0.228905 0.472167 0.869236 -0.157703
C20   C     C_R   0.179783 0.470927 0.977656 -0.137947
C21   C     C_R   0.274793 0.501431 0.035856 0.097745
C22   C     C_R   0.464764 0.554714 0.873963 0.001757
C23   C     C_R   0.535531 0.546058 0.034334 0.048666
C24   C     C_R   0.670908 0.604795 0.981781 0.042947
C25   C     C_R   0.696125 0.646444 0.879748 -0.143872
C26   C     C_R   0.594826 0.621428 0.826478 -0.124957
C27   C     C_R   0.519522 0.497558 0.133930 -0.102668
C28   C     C_R   0.754138 0.582707 0.135060 -0.143784
Cu1   Cu    Cu3+1 0.359340 0.499980 0.500000 0.940743
Cu2   Cu    Cu3+1 0.640660 0.500020 0.500000 0.931458
H1    H     H_    0.835135 0.602792 0.174953 0.125550
H2    H     H_    0.882207 0.667685 0.992837 0.111640
H3    H     H_    0.428416 0.438342 0.172096 0.157176
H4    H     H_    0.153968 0.442326 0.827019 0.138561
H5    H     H_    0.066501 0.445915 0.017128 0.120808
H6    H     H_    0.617140 0.659249 0.748961 0.132922
H7    H     H_    0.726469 0.888097 0.502687 0.124532
H8    H     H_    0.164161 0.430190 0.176869 0.213407
H9    H     H_    0.129614 0.580859 0.161882 0.234816
H10   H     H_    0.726583 0.111868 0.502380 0.126673
H11   H     H_    0.273343 0.111857 0.497805 0.125309
H12   H     H_    0.273257 0.888099 0.498054 0.127168
H13   H     H_    0.825714 0.650777 0.605431 0.093280
H14   H     H_    0.085347 0.648795 0.607429 0.102249
H15   H     H_    0.176237 0.352096 0.391466 0.105709
H16   H     H_    0.915014 0.351897 0.391812 0.103054
H17   H     H_    0.796117 0.696057 0.840012 0.098394
N1    N     N_R   0.147940 0.499970 0.499970 -0.221006
N2    N     N_R   0.852060 0.500060 0.499990 -0.221956
N3    N     N_3   0.212893 0.514176 0.146961 -0.648651
O1    O     O_R   0.381250 0.680340 0.500010 -0.507074
O2    O     O_R   0.618820 0.680370 0.500010 -0.515923
O3    O     O_R   0.323240 0.499950 0.650980 -0.503593
O4    O     O_R   0.560810 0.499980 0.650980 -0.499247
O5    O     O_R   0.381180 0.319630 0.499990 -0.510655
O6    O     O_R   0.618750 0.319660 0.499990 -0.506238
O7    O     O_R   0.439190 0.500020 0.349020 -0.492052
O8    O     O_R   0.676760 0.500050 0.349020 -0.503412

loop_
_geom_bond_atom_site_label_1
_geom_bond_atom_site_label_2
_ccdc_geom_bond_type
C2    C22   A    
C13   N1    A    
C2    C4    S    
C23   C24   A    
C6    C7    A    
C3    C9    A    
C23   C27   A    
C4    O3    A    
C10   N2    A    
Cu2   O4    S    
C25   H17   S    
C19   C20   A    
C15   O6    A    
C20   C21   A    
C25   C26   A    
C1    C9    S    
C11   H14   S    
C14   H16   S    
C16   O8    A    
C13   C14   A    
C27   H3    S    
C13   H15   S    
C1    O1    A    
C12   C23   A    
C11   N1    A    
Cu1   Cu2   S    
Cu1   O3    S    
H8    N3    S    
Cu2   O8    S    
C26   H6    S    
C21   N3    S    
Cu2   N2    S    
C8    H12   S    
C16   O7    A    
C7    H11   S    
Cu1   O1    S    
C5    C6    A    
C1    O2    A    
C14   N2    A    
C10   C11   A    
Cu1   O7    S    
Cu1   N1    S    
C17   C24   A    
C12   C22   A    
C7    C8    A    
H9    N3    S    
C18   C28   A    
C24   C25   A    
C3    H7    S    
C16   C18   S    
C22   C26   A    
C5    H10   S    
C17   H2    S    
Cu2   O2    S    
Cu1   O5    S    
C4    O4    A    
C6    C15   S    
C2    C19   A    
C17   C28   A    
Cu2   O6    S    
C12   C21   A    
C20   H5    S    
C28   H1    S    
C18   C27   A    
C10   H13   S    
C8    C9    A    
C3    C5    A    
C19   H4    S    
C15   O5    A    
