data_mof_unit_64452.cif
_audit_creation_date              2012-12-11T16:03:05-0500
_audit_creation_method            fapswitch 2.2
_symmetry_space_group_name_H-M    P1
_symmetry_Int_Tables_number       1
_space_group_crystal_system       triclinic
_cell_length_a                    6.952596
_cell_length_b                    23.174214
_cell_length_c                    25.13822
_cell_angle_alpha                 106.702569
_cell_angle_beta                  89.950218
_cell_angle_gamma                 90.221782
_cell_volume                      3879.38115896

loop_
_atom_site_label
_atom_site_type_symbol
_atom_type_description
_atom_site_fract_x
_atom_site_fract_y
_atom_site_fract_z
_atom_type_partial_charge
O1    O     O_R   0.494320 0.441930 0.440920 -0.528454
O2    O     O_R   0.820780 0.446390 0.546550 -0.507578
O3    O     O_R   0.994330 0.558070 0.559080 -0.526945
C1    C     C_R   0.652073 0.434731 0.563558 0.727671
O4    O     O_R   0.823820 0.435090 0.440550 -0.522793
O5    O     O_R   0.997390 0.546680 0.452330 -0.510056
C2    C     C_R   0.654823 0.416693 0.418581 0.734995
O6    O     O_R   0.491260 0.453320 0.547670 -0.547075
O7    O     O_3   0.661870 0.536630 0.503990 -0.348015
V1    V     V_3+5 0.935460 0.493210 0.499260 1.506965
O8    O     O_R   0.327300 0.553610 0.453450 -0.508782
C3    C     C_R   0.158383 0.565317 0.436369 0.803447
O9    O     O_R   0.324250 0.564910 0.559450 -0.527133
C4    C     C_R   0.155407 0.583252 0.581458 0.704350
V2    V     V_3+5 0.435850 0.506790 0.500740 1.487878
O10   O     O_3   0.159570 0.463370 0.496010 -0.365291
C5    C     C_1   0.144874 0.635240 0.633535 -0.211249
C6    C     C_1   0.133353 0.677995 0.676879 0.002477
C7    C     C_1   0.118221 0.728548 0.728365 0.003000
C8    C     C_1   0.105158 0.771152 0.771786 0.003606
C9    C     C_1   0.090028 0.821738 0.823248 0.005135
C10   C     C_1   0.078498 0.864553 0.866551 -0.209534
C11   C     C_R   0.217391 0.909879 0.145313 0.365055
C12   C     C_R   0.233365 0.872358 0.180784 0.380497
C13   C     C_R   0.099473 0.825091 0.176571 -0.117888
C14   C     C_R   0.957160 0.814766 0.135164 -0.248907
H1    H     H_    0.855266 0.778156 0.130261 0.164066
C15   C     C_R   0.945248 0.850689 0.099052 -0.245684
H2    H     H_    0.834711 0.840927 0.067343 0.154944
C16   C     C_R   0.076010 0.897963 0.103049 -0.182305
N1    N     N_R   0.943964 0.759950 0.227187 -0.298895
N2    N     N_R   0.950338 0.724333 0.260479 -0.256683
C17   C     C_R   0.119826 0.712358 0.282114 0.543268
N3    N     N_R   0.281999 0.738969 0.269891 -0.265703
N4    N     N_R   0.275440 0.774918 0.236939 -0.239394
C18   C     C_R   0.106551 0.786056 0.214614 0.561205
C19   C     C_R   0.283068 0.678439 0.356582 -0.247534
H3    H     H_    0.394708 0.711262 0.356867 0.173363
C20   C     C_R   0.295331 0.643956 0.394433 0.305958
C21   C     C_R   0.147645 0.602506 0.396339 -0.188553
C22   C     C_R   0.990450 0.595499 0.359008 0.286110
C23   C     C_R   0.984467 0.628501 0.319323 0.277251
C24   C     C_R   0.128599 0.672114 0.319347 -0.139156
C25   C     C_R   0.466312 0.371755 0.612112 -0.224116
H4    H     H_    0.339055 0.378316 0.589784 0.208637
C26   C     C_R   0.448973 0.338703 0.650667 0.396769
C27   C     C_R   0.613926 0.327174 0.679372 -0.161173
C28   C     C_R   0.789400 0.353258 0.670427 -0.233069
H5    H     H_    0.917009 0.346186 0.692108 0.187404
C29   C     C_R   0.804638 0.388803 0.633738 0.493196
C30   C     C_R   0.642306 0.397360 0.603057 -0.243489
N5    N     N_R   0.769436 0.281067 0.746448 -0.282355
N6    N     N_R   0.767358 0.245851 0.780153 -0.283284
C31   C     C_R   0.605406 0.215344 0.786148 0.532864
N7    N     N_R   0.447276 0.220732 0.756290 -0.273919
N8    N     N_R   0.450345 0.255419 0.722229 -0.254913
C32   C     C_R   0.610273 0.287225 0.717022 0.551073
C33   C     C_R   0.422608 0.168574 0.848932 -0.212208
H6    H     H_    0.292122 0.188476 0.838690 0.147838
C34   C     C_R   0.412193 0.134519 0.886938 0.466963
C35   C     C_R   0.578977 0.105864 0.899529 -0.162907
C36   C     C_R   0.754687 0.115370 0.875371 -0.226843
H7    H     H_    0.884418 0.093908 0.883671 0.198747
C37   C     C_R   0.765043 0.151794 0.839514 -0.122855
H8    H     H_    0.902761 0.158095 0.821755 0.157209
C38   C     C_R   0.598428 0.178096 0.825339 -0.043905
C39   C     C_1   0.643714 0.364639 0.366567 -0.200886
C40   C     C_1   0.632282 0.321825 0.323257 0.010692
C41   C     C_1   0.617548 0.271231 0.271791 0.005970
C42   C     C_1   0.604894 0.228613 0.228363 0.002614
C43   C     C_1   0.590231 0.178054 0.176873 -0.005225
C44   C     C_1   0.578922 0.135294 0.133526 -0.227580
O11   O     O_R   0.731800 0.046750 0.952380 -0.540948
O12   O     O_R   0.399050 0.064920 0.059460 -0.523728
O13   O     O_R   0.225670 0.953300 0.047660 -0.510684
C45   C     C_R   0.567980 0.083308 0.081472 0.731552
O14   O     O_R   0.402270 0.053620 0.953470 -0.505261
O15   O     O_R   0.228900 0.941920 0.940910 -0.522886
C46   C     C_R   0.570911 0.066193 0.937162 0.717123
O16   O     O_R   0.728560 0.058130 0.059130 -0.525483
O17   O     O_3   0.561250 0.963410 0.996040 -0.358803
V3    V     V_3+5 0.287590 0.006790 0.000740 1.476247
O18   O     O_R   0.898990 0.935020 0.940500 -0.527948
C47   C     C_R   0.067886 0.916638 0.918562 0.714690
O19   O     O_R   0.895770 0.946320 0.046490 -0.540609
C48   C     C_R   0.064670 0.934976 0.063567 0.744616
V4    V     V_3+5 0.787210 0.993120 0.999190 1.429166
O20   O     O_3   0.063420 0.036580 0.003960 -0.358449
O21   O     O_3   0.343354 0.957741 0.151690 -0.553485
C49   C     C_3   0.261731 0.009140 0.189156 -0.199671
H9    H     H_    0.123637 0.021623 0.173061 0.105433
H10   H     H_    0.362548 0.047556 0.194172 0.153957
H11   H     H_    0.239931 0.002453 0.230858 0.165105
O22   O     O_3   0.268171 0.319076 0.659307 -0.612830
H12   H     H_    0.249859 0.329350 0.700028 0.297842
O23   O     O_3   0.982085 0.411999 0.625612 -0.536542
C50   C     C_3   0.018552 0.464044 0.669957 -0.233747
H13   H     H_    0.034914 0.452823 0.709870 0.130464
H14   H     H_    0.903984 0.498405 0.673464 0.110648
H15   H     H_    0.156071 0.484345 0.661685 0.147131
O24   O     O_3   0.235554 0.126722 0.909147 -0.557501
C51   C     C_3   0.194417 0.178517 0.953236 -0.245512
H16   H     H_    0.309080 0.187619 0.985548 0.121740
H17   H     H_    0.058445 0.170637 0.973251 0.162292
H18   H     H_    0.172766 0.218534 0.937908 0.134732
O25   O     O_3   0.366928 0.885987 0.223402 -0.542898
C52   C     C_3   0.549504 0.866114 0.201300 -0.116802
H19   H     H_    0.546733 0.817870 0.176355 0.125070
H20   H     H_    0.651100 0.870246 0.236210 0.178278
H21   H     H_    0.606268 0.894490 0.175933 0.161358
O26   O     O_3   0.448184 0.651481 0.430952 -0.623617
H22   H     H_    0.539872 0.681250 0.423739 0.301192
O27   O     O_3   0.849549 0.553484 0.360170 -0.631736
H23   H     H_    0.741264 0.556420 0.335576 0.337832
O28   O     O_3   0.839879 0.615486 0.280068 -0.636257
H24   H     H_    0.896153 0.616271 0.244071 0.310050

loop_
_geom_bond_atom_site_label_1
_geom_bond_atom_site_label_2
_ccdc_geom_bond_type
O18   V4    S    
V4    O20   S    
C19   C24   A    
O24   C51   S    
C22   C23   A    
C7    C8    T    
C44   C45   S    
O17   V3    S    
O19   C48   A    
N5    N6    A    
C14   H1    S    
C19   H3    S    
O12   C45   A    
C15   H2    S    
C6    C7    S    
O16   V4    S    
O5    C3    A    
O25   C52   S    
C33   C34   A    
V2    O10   S    
N8    C32   A    
C51   H18   S    
C5    C6    T    
N3    N4    A    
O11   V4    S    
C36   C37   A    
C51   H16   S    
C31   N7    A    
O8    V2    S    
C33   C38   A    
C27   C28   A    
C40   C41   S    
C52   H19   S    
C11   O21   S    
C42   C43   S    
O1    V2    S    
C16   C48   S    
O7    V1    S    
C35   C36   A    
C1    O6    A    
C28   C29   A    
O9    C4    A    
C52   H20   S    
C4    C5    S    
C41   C42   T    
O12   V3    S    
C50   H14   S    
C25   C26   A    
C50   H13   S    
O14   C46   A    
O19   V4    S    
C39   C40   T    
C17   C24   S    
C11   C16   A    
C12   C13   A    
C20   C21   A    
O4    C2    A    
C1    C30   S    
C13   C14   A    
N6    C31   A    
C34   C35   A    
N4    C18   A    
C10   C47   S    
C3    C21   S    
O2    C1    A    
C36   H7    S    
C27   C32   S    
O15   V3    S    
O13   C48   A    
C49   H10   S    
O18   C47   A    
C26   O22   S    
C11   C12   A    
O23   C50   S    
N7    N8    A    
C29   C30   A    
O11   C46   A    
C51   H17   S    
O17   V4    S    
O3    C4    A    
C25   C30   A    
C21   C22   A    
O6    V2    S    
O9    V2    S    
C52   H21   S    
C12   O25   S    
C23   C24   A    
C34   O24   S    
O2    V1    S    
C50   H15   S    
C25   H4    S    
C49   H11   S    
O27   H23   S    
C26   C27   A    
C28   H5    S    
O26   H22   S    
O1    C2    A    
N1    N2    A    
C45   O16   A    
C22   O27   S    
O5    V1    S    
O8    C3    A    
O13   V3    S    
C31   C38   S    
C14   C15   A    
N2    C17   A    
C15   C16   A    
C33   H6    S    
O4    V1    S    
C19   C20   A    
O3    V1    S    
V1    O10   S    
C37   H8    S    
C29   O23   S    
C49   H9    S    
O14   V3    S    
C35   C46   S    
V3    O20   S    
C20   O26   S    
C17   N3    A    
O7    V2    S    
O22   H12   S    
N5    C32   A    
C13   C18   S    
C2    C39   S    
O15   C47   A    
C23   O28   S    
C43   C44   T    
C8    C9    S    
N1    C18   A    
O21   C49   S    
C9    C10   T    
O28   H24   S    
C37   C38   A    
