data_mof_unit_58053.cif
_audit_creation_date              2012-12-10T17:19:23-0500
_audit_creation_method            fapswitch 2.2
_symmetry_space_group_name_H-M    P1
_symmetry_Int_Tables_number       1
_space_group_crystal_system       triclinic
_cell_length_a                    15.097779
_cell_length_b                    10.821064
_cell_length_c                    9.669001
_cell_angle_alpha                 91.963393
_cell_angle_beta                  89.340707
_cell_angle_gamma                 92.299806
_cell_volume                      1577.3834827

loop_
_atom_site_label
_atom_site_type_symbol
_atom_type_description
_atom_site_fract_x
_atom_site_fract_y
_atom_site_fract_z
_atom_type_partial_charge
C1    C     C_R   0.497171 0.262556 0.497756 1.009939
C2    C     C_R   0.909646 0.595565 0.562780 -0.082895
C3    C     C_R   0.950195 0.324745 0.324642 -0.111826
C4    C     C_R   0.042017 0.323084 0.326231 -0.107397
C5    C     C_R   0.091678 0.409624 0.407992 0.073780
C6    C     C_R   0.046969 0.499725 0.488698 -0.035175
C7    C     C_R   0.095457 0.587969 0.571165 -0.084267
C8    C     C_R   0.051611 0.683277 0.641881 0.579120
C9    C     C_R   0.959672 0.689938 0.634260 0.365811
C10   C     C_R   0.184865 0.409051 0.409854 0.391080
C11   C     C_R   0.232232 0.494259 0.497930 -0.102936
C12   C     C_R   0.329065 0.498678 0.500014 0.926255
C13   C     C_R   0.187427 0.581985 0.578027 -0.184695
C14   C     C_R   0.338117 0.126828 0.598048 0.611462
C15   C     C_R   0.270642 0.067801 0.672036 0.621992
C16   C     C_R   0.281265 0.949464 0.716355 -0.288005
C17   C     C_R   0.356075 0.884146 0.678103 0.301095
C18   C     C_R   0.421224 0.936815 0.585252 -0.123418
C19   C     C_R   0.415899 0.065097 0.559456 -0.242362
C20   C     C_R   0.487639 0.127919 0.492932 -0.253182
C21   C     C_R   0.555258 0.061957 0.430346 0.560380
C22   C     C_R   0.555158 0.935062 0.437401 0.560486
C23   C     C_R   0.492622 0.736549 0.503620 0.896168
C24   C     C_R   0.489601 0.871007 0.513349 -0.202115
C25   C     C_R   0.634892 0.629506 0.148667 -0.138911
C26   C     C_R   0.716456 0.650222 0.085908 -0.225103
C27   C     C_R   0.723586 0.634416 0.944248 0.608736
C28   C     C_R   0.645783 0.620729 0.867130 0.288709
C29   C     C_R   0.568497 0.563037 0.928098 0.019467
C30   C     C_R   0.566308 0.564421 0.076923 0.142538
C31   C     C_R   0.437244 0.437400 0.073439 -0.032676
C32   C     C_R   0.436709 0.437311 0.926883 0.487159
C33   C     C_R   0.671012 0.500130 0.498431 0.872324
C34   C     C_R   0.816881 0.591913 0.565852 -0.133330
C35   C     C_R   0.767983 0.500104 0.491765 -0.177682
C36   C     C_R   0.811676 0.414913 0.404085 0.329030
C37   C     C_R   0.904753 0.413328 0.404316 0.070005
C38   C     C_R   0.953689 0.502334 0.486093 -0.020887
Cu1   Cu    Cu3+1 0.499990 0.499990 0.640660 1.113614
Cu2   Cu    Cu3+1 0.500010 0.500010 0.359340 1.060341
H1    H     H_    0.781850 0.661650 0.623691 0.259473
H2    H     H_    0.232129 0.909947 0.786160 0.279061
H3    H     H_    0.386357 0.384843 0.127795 0.212853
H4    H     H_    0.628613 0.663591 0.252690 0.259717
H5    H     H_    0.772446 0.686568 0.145754 0.218337
H6    H     H_    0.915613 0.254959 0.260692 0.221725
H7    H     H_    0.073155 0.252415 0.263075 0.218762
H8    H     H_    0.224930 0.649034 0.641410 0.231001
N1    N     N_R   0.500860 0.501210 0.147910 -0.213708
N2    N     N_R   0.500890 0.501290 0.852040 -0.203251
O1    O     O_R   0.499990 0.319640 0.618810 -0.554027
O2    O     O_R   0.500000 0.319660 0.381240 -0.528387
O3    O     O_R   0.370250 0.499960 0.618800 -0.490764
O4    O     O_R   0.370260 0.499980 0.381230 -0.585013
O5    O     O_R   0.500000 0.680340 0.618760 -0.487834
O6    O     O_R   0.500010 0.680360 0.381190 -0.598474
O7    O     O_R   0.629740 0.500020 0.618770 -0.586867
O8    O     O_R   0.629750 0.500040 0.381200 -0.573132
F1    F     F_    0.324969 0.243327 0.559954 -0.621845
F2    F     F_    0.196637 0.128709 0.708413 -0.546745
Cl1   Cl    Cl    0.368950 0.755456 0.781073 -0.541069
F3    F     F_    0.622365 0.874439 0.374133 -0.620041
F4    F     F_    0.801668 0.666940 0.883243 -0.601495
Cl2   Cl    Cl    0.639750 0.750232 0.764364 -0.480924
Cl3   Cl    Cl    0.750054 0.311880 0.292440 -0.472558
Cl4   Cl    Cl    0.352321 0.346705 0.846964 -0.467232
Cl5   Cl    Cl    0.241958 0.301669 0.302334 -0.547369
F5    F     F_    0.098363 0.772184 0.715713 -0.618791
Cl6   Cl    Cl    0.911015 0.822787 0.708012 -0.347565
F6    F     F_    0.622399 0.120855 0.362188 -0.556467

loop_
_geom_bond_atom_site_label_1
_geom_bond_atom_site_label_2
_ccdc_geom_bond_type
C13   H8    S    
Cu1   O1    S    
C11   C12   S    
C6    C38   A    
C23   O5    A    
C37   C38   A    
C22   F3    S    
C29   C30   A    
C11   C13   A    
C15   F2    S    
C2    C38   A    
C3    H6    S    
C19   C20   A    
C14   C15   A    
C7    C13   A    
C21   F6    S    
C23   C24   S    
Cu1   O5    S    
C2    C34   A    
C17   C18   A    
C5    C10   A    
Cu1   O3    S    
C21   C22   A    
C14   F1    S    
C1    O1    A    
C32   N2    A    
C26   C27   A    
C33   O8    A    
C34   H1    S    
C31   H3    S    
C36   C37   A    
C31   N1    A    
C18   C24   A    
C25   C30   A    
C28   Cl2   S    
C25   H4    S    
C28   C29   A    
C33   C35   S    
C30   N1    A    
C9    Cl6   S    
C8    F5    S    
C6    C7    A    
Cu2   O4    S    
C29   N2    A    
C5    C6    A    
C1    O2    A    
C22   C24   A    
C10   Cl5   S    
Cu2   O8    S    
C10   C11   A    
C15   C16   A    
Cu1   O7    S    
C16   H2    S    
Cu2   N1    S    
Cu1   Cu2   S    
Cu1   N2    S    
C18   C19   A    
C20   C21   A    
C3    C37   A    
C32   Cl4   S    
C34   C35   A    
C23   O6    A    
C27   C28   A    
C7    C8    A    
C36   Cl3   S    
C27   F4    S    
C1    C20   S    
C33   O7    A    
C26   H5    S    
C17   Cl1   S    
C25   C26   A    
Cu2   O2    S    
C2    C9    A    
C4    C5    A    
C14   C19   A    
C4    H7    S    
C31   C32   A    
C12   O4    A    
C3    C4    A    
C12   O3    A    
C16   C17   A    
C8    C9    A    
Cu2   O6    S    
C35   C36   A    
