data_mof_unit_67847.cif
_audit_creation_date              2013-03-05T15:41:50-0500
_audit_creation_method            fapswitch 2.2
_symmetry_space_group_name_H-M    P1
_symmetry_Int_Tables_number       1
_space_group_crystal_system       triclinic
_cell_length_a                    7.841938
_cell_length_b                    8.635854
_cell_length_c                    10.516643
_cell_angle_alpha                 91.765022
_cell_angle_beta                  85.232224
_cell_angle_gamma                 93.217806
_cell_volume                      708.378417427

loop_
_atom_site_label
_atom_site_type_symbol
_atom_site_description
_atom_site_fract_x
_atom_site_fract_y
_atom_site_fract_z
_atom_type_partial_charge
O1    O     O_R   0.389250 0.738570 0.508410 -0.587675
O2    O     O_R   0.610750 0.261430 0.491590 -0.599164
O3    O     O_R   0.678390 0.711620 0.486450 -0.572828
O4    O     O_R   0.321610 0.288380 0.513550 -0.578254
C1    C     C_R   0.544456 0.793642 0.495842 0.855949
C2    C     C_R   0.455402 0.206346 0.502344 0.851868
O5    O     O_R   0.355460 0.513510 0.697030 -0.623242
O6    O     O_R   0.644540 0.486490 0.302970 -0.629104
O7    O     O_R   0.644600 0.486560 0.675070 -0.583079
O8    O     O_R   0.355400 0.513440 0.324930 -0.559567
C3    C     C_R   0.500725 0.501717 0.742242 0.949959
C4    C     C_R   0.499043 0.496977 0.257851 0.961692
Zn1   Zn    Zn3+2 0.306940 0.517990 0.514670 1.118603
Zn2   Zn    Zn3+2 0.693060 0.482010 0.485330 1.104076
N1    N     N_2   0.950320 0.457950 0.465730 0.036774
N2    N     N_2   0.049680 0.542050 0.534270 0.043239
C5    C     C_3   0.341627 0.539791 0.970418 -0.424943
C6    C     C_3   0.657849 0.457000 0.030590 -0.448952
C7    C     C_3   0.467254 0.639021 0.048579 0.425259
C8    C     C_3   0.532424 0.357980 0.951467 0.430959
H1    H     H_    0.216031 0.574144 0.942451 0.222245
H2    H     H_    0.783315 0.424727 0.060138 0.216316
C9    C     C_3   0.500580 0.495796 0.122904 -0.225936
C10   C     C_3   0.498932 0.501310 0.877285 -0.253950
C11   C     C_3   0.378971 0.395738 0.044460 0.514161
C12   C     C_3   0.621420 0.601541 0.956236 0.474591
C13   C     C_2   0.565932 0.954982 0.479548 0.208151
C14   C     C_2   0.432897 0.044748 0.515693 0.226769
O9    O     O_3   0.438678 0.781392 0.113789 -0.624597
C15   C     C_3   0.386968 0.887853 0.028166 -0.261995
H3    H     H_    0.255572 0.855653 0.000800 0.150204
H4    H     H_    0.478379 0.898458 0.941897 0.194562
H5    H     H_    0.384585 0.003291 0.076891 0.243442
O10   O     O_3   0.547726 0.209546 0.892772 -0.655531
C16   C     C_3   0.721506 0.177832 0.868713 -0.314164
H6    H     H_    0.778918 0.158852 0.959620 0.145459
H7    H     H_    0.794957 0.271315 0.813998 0.227105
H8    H     H_    0.730332 0.069068 0.810147 0.217292
O11   O     O_3   0.261199 0.286712 0.104847 -0.551458
C17   C     C_3   0.141428 0.232508 0.019309 -0.220857
H9    H     H_    0.205112 0.172336 0.935670 0.137328
H10   H     H_    0.065829 0.327803 0.988878 0.180352
H11   H     H_    0.050651 0.146501 0.068434 0.163989
O12   O     O_3   0.742494 0.707683 0.895632 -0.548604
C18   C     C_3   0.840972 0.784054 0.986784 -0.233597
H12   H     H_    0.896283 0.701786 0.049474 0.187270
H13   H     H_    0.763843 0.868973 0.043790 0.147769
H14   H     H_    0.949503 0.850455 0.935762 0.165533
N3    N     N_R   0.026593 0.405338 0.350561 0.320021
O13   O     O_R   0.010543 0.481803 0.248027 -0.397058
O14   O     O_R   0.070052 0.262252 0.339610 -0.329915
N4    N     N_R   0.973323 0.596426 0.648892 0.319438
O15   O     O_R   0.996443 0.526000 0.753057 -0.423544
O16   O     O_R   0.924879 0.738076 0.656979 -0.334541
O17   O     O_3   0.724362 0.013805 0.427710 -0.555068
C19   C     C_3   0.732018 0.990184 0.294149 -0.167303
H15   H     H_    0.628905 0.050151 0.251800 0.142511
H16   H     H_    0.725180 0.864349 0.267863 0.158666
H17   H     H_    0.856603 0.039865 0.252070 0.207077
O18   O     O_3   0.273250 0.986094 0.565400 -0.544366
C20   C     C_3   0.264243 0.005855 0.699265 -0.194609
H18   H     H_    0.281108 0.130387 0.727827 0.155647
H19   H     H_    0.361022 0.937343 0.740703 0.133311
H20   H     H_    0.135681 0.963323 0.739540 0.206314

loop_
_geom_bond_atom_site_label_1
_geom_bond_atom_site_label_2
_geom_bond_distance
_ccdc_geom_bond_type
C20   H20   1.108044 S    
C7    C9    1.529355 S    
O7    Zn2   1.999620 S    
O9    C15   1.405025 S    
C15   H4    1.111307 S    
C16   H6    1.110434 S    
C6    C12   1.545464 S    
C19   H17   1.107780 S    
C15   H3    1.110889 S    
O6    C4    1.280400 A    
C13   C14   1.356659 D    
C5    C11   1.542131 S    
N2    N4    1.381612 S    
O3    C1    1.294834 A    
O17   C19   1.409918 S    
C9    C11   1.526773 S    
C12   O12   1.409101 S    
C6    H2    1.108708 S    
C18   H12   1.112889 S    
C11   O11   1.408708 S    
N1    N3    1.381066 S    
O5    C3    1.280693 A    
O7    C3    1.291326 A    
C4    C9    1.417966 S    
O2    C2    1.280047 A    
O3    Zn2   1.992266 S    
O8    C4    1.290907 A    
N4    O15   1.299713 A    
O1    C1    1.279522 A    
N1    N2    1.285202 D    
C17   H10   1.110715 S    
C17   H9    1.105026 S    
C5    C7    1.541745 S    
C19   H16   1.112483 S    
N3    O13   1.300156 A    
C6    C8    1.545592 S    
C18   H13   1.107017 S    
C20   H18   1.111316 S    
O2    Zn2   1.977934 S    
C13   O17   1.390117 S    
C18   H14   1.108762 S    
C5    C10   1.554539 S    
O1    Zn1   1.977934 S    
C8    C11   1.529588 S    
C8    O10   1.412374 S    
C7    O9    1.409123 S    
C8    C10   1.529623 S    
C3    C10   1.419211 S    
O5    Zn1   1.987917 S    
C16   H8    1.109488 S    
C14   O18   1.390514 S    
C19   H15   1.114210 S    
C10   C12   1.535005 S    
O4    C2    1.293952 A    
O10   C16   1.405879 S    
Zn1   N2    2.032467 S    
O11   C17   1.405584 S    
C20   H19   1.112303 S    
C7    C12   1.529336 S    
Zn2   N1    2.032467 S    
O6    Zn2   1.987915 S    
C15   H5    1.107147 S    
C16   H7    1.111727 S    
C1    C13   1.408048 S    
C17   H11   1.108361 S    
C2    C14   1.406649 S    
O12   C18   1.406139 S    
C6    C9    1.550192 S    
O4    Zn1   1.992266 S    
N4    O16   1.299353 A    
O18   C20   1.409274 S    
N3    O14   1.299337 A    
O8    Zn1   1.999620 S    
C5    H1    1.109471 S    
