data_mof_unit_36647.cif
_audit_creation_date              2012-12-10T19:46:56-0500
_audit_creation_method            fapswitch 2.2
_symmetry_space_group_name_H-M    P1
_symmetry_Int_Tables_number       1
_space_group_crystal_system       triclinic
_cell_length_a                    10.897361
_cell_length_b                    10.898126
_cell_length_c                    13.121017
_cell_angle_alpha                 90.369844
_cell_angle_beta                  90.129443
_cell_angle_gamma                 90.11976
_cell_volume                      1558.22275725

loop_
_atom_site_label
_atom_site_type_symbol
_atom_type_description
_atom_site_fract_x
_atom_site_fract_y
_atom_site_fract_z
_atom_type_partial_charge
C1    C     C_R   0.492251 0.259649 0.499441 0.819849
C2    C     C_R   0.507745 0.740351 0.500559 0.819855
C3    C     C_R   0.872924 0.492226 0.501081 -0.096577
C4    C     C_R   0.127076 0.507767 0.498919 -0.096573
C5    C     C_R   0.940035 0.456099 0.588038 -0.002742
C6    C     C_R   0.059964 0.543892 0.411963 -0.002746
C7    C     C_R   0.273668 0.228492 0.215386 -0.120065
C8    C     C_R   0.726453 0.771495 0.784512 -0.120044
C9    C     C_R   0.313666 0.177514 0.307099 -0.109570
C10   C     C_R   0.686395 0.822480 0.692823 -0.109559
C11   C     C_R   0.426577 0.115749 0.311700 0.120647
C12   C     C_R   0.573485 0.884252 0.688279 0.120645
C13   C     C_R   0.497934 0.104455 0.223092 -0.157077
C14   C     C_R   0.502192 0.895551 0.776921 -0.157107
C15   C     C_R   0.457714 0.156000 0.131598 -0.147818
C16   C     C_R   0.542473 0.844000 0.868392 -0.147815
C17   C     C_R   0.345666 0.217997 0.127769 -0.115981
C18   C     C_R   0.654518 0.781992 0.872164 -0.115972
C19   C     C_R   0.479307 0.932772 0.410837 -0.252297
C20   C     C_R   0.520682 0.067226 0.589163 -0.252292
C21   C     C_R   0.508774 0.873031 0.501596 -0.093228
C22   C     C_R   0.491219 0.126969 0.498403 -0.093221
C23   C     C_R   0.259665 0.506899 0.499689 0.820329
C24   C     C_R   0.740334 0.493098 0.500311 0.820323
C25   C     C_R   0.532009 0.940757 0.591727 0.002072
C26   C     C_R   0.467994 0.059243 0.408269 0.002056
C27   C     C_1   0.500018 0.500070 0.173574 0.159752
C28   C     C_1   0.499983 0.499931 0.826426 0.159738
C29   C     C_1   0.500011 0.500045 0.050683 -0.101275
C30   C     C_1   0.499991 0.499956 0.949317 -0.101274
C31   C     C_R   0.237286 0.753877 0.235716 -0.130643
C32   C     C_R   0.762695 0.246126 0.764284 -0.130635
C33   C     C_R   0.184933 0.705312 0.324015 -0.106192
C34   C     C_R   0.815044 0.294693 0.675984 -0.106158
C35   C     C_R   0.117854 0.595082 0.319193 0.128219
C36   C     C_R   0.882147 0.404909 0.680809 0.128209
C37   C     C_R   0.102674 0.535439 0.224748 -0.157242
C38   C     C_R   0.897358 0.464532 0.775259 -0.157264
C39   C     C_R   0.156626 0.583424 0.136986 -0.141509
C40   C     C_R   0.843410 0.416546 0.863022 -0.141494
C41   C     C_R   0.223937 0.692541 0.142477 -0.113398
C42   C     C_R   0.776073 0.307446 0.857528 -0.113405
C43   C     C_R   0.933152 0.534250 0.413967 -0.244138
C44   C     C_R   0.066848 0.465741 0.586033 -0.244138
Cu1   Cu    Cu3+1 0.499990 0.499990 0.592680 0.978626
Cu2   Cu    Cu3+1 0.500010 0.500010 0.407320 0.978627
H1    H     H_    0.265143 0.729947 0.074387 0.122368
H2    H     H_    0.734869 0.270039 0.925619 0.122358
H3    H     H_    0.584781 0.056370 0.225113 0.124193
H4    H     H_    0.415348 0.943644 0.774944 0.124194
H5    H     H_    0.513306 0.147745 0.063636 0.126253
H6    H     H_    0.486931 0.852258 0.936382 0.126268
H7    H     H_    0.461448 0.880392 0.341929 0.152658
H8    H     H_    0.538543 0.119607 0.658070 0.152647
H9    H     H_    0.287570 0.839443 0.239252 0.124184
H10   H     H_    0.712394 0.160571 0.760746 0.124183
H11   H     H_    0.196052 0.753669 0.395843 0.104372
H12   H     H_    0.803904 0.246347 0.604153 0.104365
H13   H     H_    0.049480 0.451622 0.219308 0.113720
H14   H     H_    0.950575 0.548333 0.780703 0.113720
H15   H     H_    0.145708 0.536342 0.064632 0.124076
H16   H     H_    0.854351 0.463614 0.935380 0.124077
H17   H     H_    0.880930 0.563620 0.348013 0.156773
H18   H     H_    0.119071 0.436371 0.651986 0.156771
H19   H     H_    0.314583 0.257804 0.056914 0.125917
H20   H     H_    0.685647 0.742179 0.943001 0.125909
H21   H     H_    0.256794 0.185867 0.374387 0.105414
H22   H     H_    0.743220 0.814124 0.625508 0.105401
N1    N     N_1   0.500030 0.500030 0.268070 -0.130992
N2    N     N_1   0.499970 0.499970 0.731930 -0.130994
O1    O     O_R   0.499980 0.319630 0.578260 -0.586573
O2    O     O_R   0.500020 0.680370 0.421740 -0.586569
O3    O     O_R   0.500000 0.319650 0.421740 -0.567515
O4    O     O_R   0.500000 0.680350 0.578260 -0.567511
O5    O     O_R   0.319630 0.500000 0.578260 -0.588067
O6    O     O_R   0.680370 0.500000 0.421740 -0.588063
O7    O     O_R   0.319650 0.500020 0.421740 -0.567085
O8    O     O_R   0.680350 0.499980 0.578260 -0.567084
H23   H     H_    0.186569 0.275543 0.212129 0.120564
H24   H     H_    0.813551 0.724440 0.787724 0.120569

loop_
_geom_bond_atom_site_label_1
_geom_bond_atom_site_label_2
_ccdc_geom_bond_type
Cu1   O1    S    
Cu2   O6    S    
C43   H17   S    
C39   C41   A    
Cu1   Cu2   S    
C44   H18   S    
C3    C43   A    
C1    O1    A    
C35   C37   A    
C27   C29   S    
C20   C25   A    
C5    C36   S    
C40   H16   S    
C6    C35   S    
C7    C9    A    
C19   C26   A    
Cu2   N1    S    
C7    C17   A    
C31   C33   A    
Cu1   O8    S    
C15   H5    S    
Cu2   O2    S    
C27   N1    T    
C19   H7    S    
C40   C42   A    
C1    C22   S    
C3    C24   S    
C2    O2    A    
C39   H15   S    
C4    C6    A    
C23   O5    A    
C4    C23   S    
C24   O6    A    
C4    C44   A    
C11   C26   S    
C8    C18   A    
Cu1   O4    S    
C32   C34   A    
C9    H21   S    
C29   C30   T    
C2    C21   S    
C41   H1    S    
C42   H2    S    
C23   O7    A    
C34   H12   S    
C9    C11   A    
C37   H13   S    
C10   C12   A    
C13   H3    S    
C20   H8    S    
C5    C44   A    
C12   C14   A    
C6    C43   A    
C13   C15   A    
C38   H14   S    
C7    H23   S    
C24   O8    A    
C15   C17   A    
C21   C25   A    
C33   H11   S    
C31   C41   A    
C19   C21   A    
Cu1   N2    S    
C8    C10   A    
C28   N2    T    
C16   H6    S    
C20   C22   A    
C3    C5    A    
C2    O4    A    
Cu2   O7    S    
C10   H22   S    
C18   H20   S    
C17   H19   S    
C12   C25   S    
Cu1   O5    S    
C1    O3    A    
C28   C30   S    
C37   C39   A    
C38   C40   A    
C11   C13   A    
C14   H4    S    
C36   C38   A    
C33   C35   A    
C34   C36   A    
C14   C16   A    
C16   C18   A    
C22   C26   A    
C8    H24   S    
C32   C42   A    
C31   H9    S    
C32   H10   S    
Cu2   O3    S    
