data_mof_unit_30974.cif
_audit_creation_date              2012-12-10T17:51:29-0500
_audit_creation_method            fapswitch 2.2
_symmetry_space_group_name_H-M    P1
_symmetry_Int_Tables_number       1
_space_group_crystal_system       triclinic
_cell_length_a                    9.927089
_cell_length_b                    10.74731
_cell_length_c                    16.880153
_cell_angle_alpha                 93.840618
_cell_angle_beta                  86.311388
_cell_angle_gamma                 88.272113
_cell_volume                      1792.09389031

loop_
_atom_site_label
_atom_site_type_symbol
_atom_type_description
_atom_site_fract_x
_atom_site_fract_y
_atom_site_fract_z
_atom_type_partial_charge
C1    C     C_R   0.496802 0.739939 0.497301 0.921495
C2    C     C_R   0.349804 0.558316 0.781784 -0.209505
C3    C     C_R   0.418548 0.550190 0.139536 -0.188067
C4    C     C_R   0.406077 0.526692 0.219866 0.456218
C5    C     C_R   0.650064 0.548205 0.224856 -0.277602
C6    C     C_R   0.659126 0.577334 0.146087 -0.205156
C7    C     C_R   0.543182 0.580436 0.103946 0.180994
C8    C     C_2   0.464427 0.662242 0.982111 0.393177
C9    C     C_2   0.556199 0.597409 0.019373 -0.242006
C10   C     C_R   0.524410 0.522562 0.262366 -0.144179
C11   C     C_R   0.237066 0.902825 0.526312 -0.312756
C12   C     C_R   0.482398 0.504862 0.653029 0.847268
C13   C     C_R   0.130102 0.976758 0.565359 0.500934
C14   C     C_R   0.157831 0.091615 0.602533 -0.131764
C15   C     C_R   0.285791 0.139498 0.591582 -0.228999
C16   C     C_R   0.388272 0.072284 0.542730 0.040721
C17   C     C_R   0.370794 0.946486 0.521069 0.063169
C18   C     C_R   0.488341 0.873064 0.493280 -0.183993
C19   C     C_R   0.606938 0.929129 0.468355 -0.281153
C20   C     C_R   0.611495 0.056834 0.470591 0.486564
C21   C     C_R   0.504143 0.128691 0.510356 -0.229595
C22   C     C_R   0.852219 0.657727 0.620262 0.487023
C23   C     C_R   0.501539 0.260896 0.504129 0.886799
C24   C     C_R   0.923562 0.716368 0.680971 -0.245893
C25   C     C_R   0.061774 0.713627 0.676341 -0.237308
C26   C     C_R   0.131266 0.649612 0.612517 -0.161340
C27   C     C_R   0.066217 0.574035 0.556649 0.057793
C28   C     C_R   0.921289 0.575473 0.558248 0.007038
C29   C     C_R   0.936165 0.429759 0.444700 0.502263
C30   C     C_R   0.079950 0.429697 0.445380 -0.230792
C31   C     C_R   0.517145 0.502355 0.347167 0.875826
C32   C     C_R   0.474784 0.539918 0.738176 -0.022339
C33   C     C_R   0.593700 0.572545 0.773783 -0.167580
C34   C     C_R   0.588064 0.627028 0.850221 -0.219316
C35   C     C_R   0.464573 0.639705 0.895347 0.076525
C36   C     C_R   0.344950 0.606621 0.860617 -0.177896
H1    H     H_    0.691875 0.557881 0.742468 0.170031
H2    H     H_    0.756688 0.596424 0.117738 0.146426
H3    H     H_    0.694719 0.874051 0.443382 0.178661
H4    H     H_    0.210719 0.816795 0.495926 0.172565
H5    H     H_    0.078198 0.147151 0.636215 0.158543
H6    H     H_    0.302496 0.230965 0.619339 0.173253
H7    H     H_    0.871249 0.773222 0.729539 0.146238
H8    H     H_    0.115391 0.767417 0.720029 0.171606
H9    H     H_    0.236362 0.664899 0.607560 0.224611
H10   H     H_    0.141759 0.372594 0.400997 0.176319
H11   H     H_    0.741566 0.547174 0.256527 0.192046
H12   H     H_    0.637468 0.542790 0.986015 0.109343
H13   H     H_    0.248941 0.613340 0.895205 0.136862
H14   H     H_    0.331964 0.540481 0.104014 0.163148
H15   H     H_    0.256583 0.534579 0.755364 0.161045
H16   H     H_    0.681502 0.653075 0.875677 0.127590
N1    N     N_R   0.857140 0.501200 0.500750 -0.115013
N2    N     N_R   0.142740 0.501280 0.500770 -0.132638
O1    O     O_R   0.385310 0.683220 0.500000 -0.679044
O2    O     O_R   0.614640 0.683250 0.500010 -0.549295
O3    O     O_R   0.371780 0.500010 0.615800 -0.654725
O4    O     O_R   0.601110 0.500030 0.615800 -0.567171
O5    O     O_R   0.385360 0.316750 0.499990 -0.619729
O6    O     O_R   0.614690 0.316780 0.500000 -0.534351
O7    O     O_R   0.398890 0.499970 0.384200 -0.582599
O8    O     O_R   0.628220 0.499990 0.384200 -0.589839
Zn1   Zn    Zn3+2 0.346870 0.499980 0.499990 0.929536
Zn2   Zn    Zn3+2 0.653130 0.500020 0.500010 1.039301
O9    O     O_3   0.998127 0.939822 0.567672 -0.753093
H17   H     H_    0.993590 0.860894 0.534156 0.330152
O10   O     O_3   0.720911 0.110976 0.433253 -0.588871
C37   C     C_3   0.707752 0.105365 0.349883 0.113785
H18   H     H_    0.703252 0.202323 0.331009 0.200016
H19   H     H_    0.614201 0.060588 0.329957 0.096561
C38   C     C_3   0.830902 0.035318 0.307432 -0.342313
H20   H     H_    0.924775 0.078268 0.326972 0.243574
H21   H     H_    0.831532 0.936920 0.323647 0.218436
C39   C     C_3   0.828656 0.037507 0.217254 -0.956001
H22   H     H_    0.736876 0.992535 0.196277 0.271314
H23   H     H_    0.919094 0.985517 0.188376 0.267337
H24   H     H_    0.829964 0.135142 0.199442 0.268885
O11   O     O_3   0.873852 0.358945 0.387723 -0.738999
H25   H     H_    0.943985 0.315166 0.350619 0.304961
O12   O     O_3   0.718523 0.690420 0.620127 -0.725193
H26   H     H_    0.690941 0.756439 0.662524 0.315341
O13   O     O_3   0.282797 0.493190 0.254621 -0.641503
C40   C     C_3   0.182706 0.590137 0.253680 0.077073
H27   H     H_    0.083053 0.548397 0.265842 0.161282
H28   H     H_    0.178330 0.629896 0.194741 0.140412
C41   C     C_3   0.199964 0.694257 0.318725 -0.326526
H29   H     H_    0.198486 0.654270 0.377606 0.253692
H30   H     H_    0.298253 0.739042 0.307764 0.212996
C42   C     C_3   0.086363 0.793358 0.320894 -1.001239
H31   H     H_    0.084600 0.835331 0.262593 0.280043
H32   H     H_    0.102282 0.868396 0.367473 0.272800
H33   H     H_    0.987549 0.751336 0.335073 0.259857
O14   O     O_3   0.364419 0.735056 0.025318 -0.780750
H34   H     H_    0.311664 0.779508 0.987345 0.326681

loop_
_geom_bond_atom_site_label_1
_geom_bond_atom_site_label_2
_ccdc_geom_bond_type
O14   H34   S    
C31   O7    A    
C20   O10   S    
C35   C36   A    
C27   N2    A    
C13   O9    S    
C23   O5    A    
C5    H11   S    
C1    C18   S    
C16   C21   A    
C39   H23   S    
C1    O2    A    
C18   C19   A    
C3    C7    A    
C5    C6    A    
N1    Zn2   S    
C41   H30   S    
N2    Zn1   S    
C15   C16   A    
C2    C32   A    
C34   C35   A    
O7    Zn1   S    
O8    Zn2   S    
C26   H9    S    
C10   C31   S    
C29   O11   S    
C19   C20   A    
C37   H18   S    
C39   H24   S    
O1    Zn1   S    
O2    Zn2   S    
C42   H32   S    
C12   O4    A    
C22   C28   A    
C13   C14   A    
C12   C32   S    
C31   O8    A    
C25   H8    S    
C3    H14   S    
O3    Zn1   S    
O4    Zn2   S    
C23   O6    A    
C39   H22   S    
O10   C37   S    
C24   C25   A    
C38   H21   S    
C41   H29   S    
C8    C9    D    
C25   C26   A    
C33   H1    S    
C8    C35   S    
C29   C30   A    
C30   N2    A    
C40   H27   S    
C6    H2    S    
C17   C18   A    
C26   C27   A    
C42   H33   S    
C19   H3    S    
C14   H5    S    
C12   O3    A    
C40   H28   S    
O9    H17   S    
C21   C23   S    
C22   C24   A    
C4    C10   A    
C3    C4    A    
C2    C36   A    
C7    C9    S    
C11   C17   A    
O11   H25   S    
C34   H16   S    
C30   H10   S    
C8    O14   S    
C15   H6    S    
O12   H26   S    
C41   C42   S    
C38   C39   S    
C28   N1    A    
C6    C7    A    
O5    Zn1   S    
O6    Zn2   S    
C32   C33   A    
C1    O1    A    
C22   O12   S    
C5    C10   A    
C11   C13   A    
C16   C17   A    
C29   N1    A    
C37   C38   S    
C33   C34   A    
C11   H4    S    
C2    H15   S    
C38   H20   S    
C40   C41   S    
C4    O13   S    
C20   C21   A    
C9    H12   S    
C37   H19   S    
O13   C40   S    
C27   C28   A    
C24   H7    S    
C14   C15   A    
C42   H31   S    
C36   H13   S    
