data_mof_unit_14529.cif
_audit_creation_date              2013-03-05T15:53:16-0500
_audit_creation_method            fapswitch 2.2
_symmetry_space_group_name_H-M    P1
_symmetry_Int_Tables_number       1
_space_group_crystal_system       triclinic
_cell_length_a                    17.342522
_cell_length_b                    24.298183
_cell_length_c                    14.978923
_cell_angle_alpha                 89.739738
_cell_angle_beta                  125.441718
_cell_angle_gamma                 90.075574
_cell_volume                      5142.35909388

loop_
_atom_site_label
_atom_site_type_symbol
_atom_site_description
_atom_site_fract_x
_atom_site_fract_y
_atom_site_fract_z
_atom_type_partial_charge
C1    C     C_R   0.354062 0.347678 0.909127 -0.131080
C2    C     C_R   0.682832 0.367772 0.092364 -0.114547
C3    C     C_R   0.853490 0.847806 0.909488 -0.136353
C4    C     C_R   0.149958 0.848828 0.091911 -0.124356
H1    H     H_    0.322373 0.333911 0.826352 0.112426
H2    H     H_    0.737510 0.358923 0.176778 0.108611
H3    H     H_    0.815910 0.834297 0.825547 0.099810
H4    H     H_    0.185598 0.834966 0.175689 0.111939
N1    N     N_R   0.395410 0.396350 0.944340 -0.041371
N2    N     N_R   0.604590 0.396350 0.055660 -0.044053
N3    N     N_R   0.895410 0.896350 0.944340 -0.040738
N4    N     N_R   0.104590 0.896350 0.055660 -0.040341
C5    C     C_R   0.399948 0.620192 0.091309 -0.014200
C6    C     C_R   0.596180 0.627578 0.909288 -0.129603
C7    C     C_R   0.946497 0.151737 0.091153 -0.108832
C8    C     C_R   0.099663 0.122498 0.909094 -0.050076
H5    H     H_    0.424976 0.621286 0.175982 0.100825
H6    H     H_    0.567709 0.637283 0.826081 0.133662
H7    H     H_    0.993961 0.165004 0.175241 0.145214
H8    H     H_    0.075226 0.123583 0.824695 0.118558
N5    N     N_R   0.449930 0.602500 0.055880 -0.055504
N6    N     N_R   0.550070 0.602500 0.944120 -0.043328
N7    N     N_R   0.949930 0.102500 0.055880 -0.053061
N8    N     N_R   0.050070 0.102500 0.944120 -0.053968
C9    C     C_R   0.551395 0.452535 0.302409 -0.137199
C10   C     C_R   0.492630 0.452796 0.725048 -0.135682
C11   C     C_R   0.980055 0.952861 0.247566 -0.144866
C12   C     C_R   0.953133 0.953267 0.698727 -0.128794
H9    H     H_    0.573671 0.410579 0.328989 0.110348
H10   H     H_    0.489248 0.410630 0.703152 0.102486
H11   H     H_    0.965464 0.910197 0.251409 0.117022
H12   H     H_    0.932894 0.911292 0.671677 0.106231
N9    N     N_R   0.525080 0.471030 0.205650 -0.044806
N10   N     N_R   0.474920 0.471030 0.794350 -0.046839
N11   N     N_R   0.025080 0.971030 0.205650 -0.049686
N12   N     N_R   0.974920 0.971030 0.794350 -0.043355
C13   C     C_R   0.246587 0.544517 0.695644 0.344596
C14   C     C_R   0.764405 0.543778 0.293648 0.342621
C15   C     C_R   0.730046 0.044469 0.732024 0.311704
C16   C     C_R   0.252470 0.043685 0.305598 0.347591
N13   N     N_R   0.320260 0.527820 0.794570 -0.088801
N14   N     N_R   0.679740 0.527820 0.205430 -0.090612
N15   N     N_R   0.820260 0.027820 0.794570 -0.091473
N16   N     N_R   0.179740 0.027820 0.205430 -0.090979
C17   C     C_R   0.550200 0.543906 0.304153 -0.119429
C18   C     C_R   0.492273 0.544363 0.722281 -0.095770
C19   C     C_R   0.981916 0.044989 0.251244 -0.077970
C20   C     C_R   0.952957 0.044729 0.697072 -0.122586
H13   H     H_    0.567849 0.585817 0.332991 0.139768
H14   H     H_    0.486105 0.585761 0.692950 0.129124
H15   H     H_    0.971836 0.087543 0.262643 0.097270
H16   H     H_    0.934369 0.086685 0.667867 0.132020
N17   N     N_R   0.524590 0.527840 0.205200 -0.048926
N18   N     N_R   0.475410 0.527840 0.794800 -0.038905
N19   N     N_R   0.024590 0.027840 0.205200 -0.039483
N20   N     N_R   0.975410 0.027840 0.794800 -0.048190
C21   C     C_R   0.246411 0.452980 0.699425 -0.160850
C22   C     C_R   0.762561 0.452299 0.288613 -0.206617
C23   C     C_R   0.732092 0.952480 0.739685 -0.173919
C24   C     C_R   0.252460 0.952322 0.301393 -0.165098
H17   H     H_    0.237491 0.410523 0.674037 0.113954
H18   H     H_    0.779497 0.409925 0.314920 0.124581
H19   H     H_    0.711758 0.909650 0.724975 0.119046
H20   H     H_    0.259475 0.909900 0.327132 0.112728
N21   N     N_R   0.320750 0.471000 0.795020 -0.065545
N22   N     N_R   0.679250 0.471000 0.204980 -0.061147
N23   N     N_R   0.820750 0.971000 0.795020 -0.063287
N24   N     N_R   0.179250 0.971000 0.204980 -0.066100
C25   C     C_R   0.309822 0.624711 0.908460 -0.067543
C26   C     C_R   0.688314 0.627041 0.091468 -0.032366
C27   C     C_R   0.854383 0.152453 0.909795 -0.051285
C28   C     C_R   0.188936 0.126262 0.091989 -0.035346
H21   H     H_    0.252496 0.632585 0.824233 0.181028
H22   H     H_    0.744931 0.635518 0.174917 0.173336
H23   H     H_    0.814370 0.166389 0.826475 0.210442
H24   H     H_    0.245111 0.133909 0.176510 0.181552
N25   N     N_R   0.393620 0.602490 0.942710 -0.056709
N26   N     N_R   0.606380 0.602490 0.057290 -0.054486
N27   N     N_R   0.893620 0.102490 0.942710 -0.072607
N28   N     N_R   0.106380 0.102490 0.057290 -0.050213
C29   C     C_R   0.442181 0.347264 0.091220 -0.123973
C30   C     C_R   0.591429 0.365877 0.909554 -0.132929
C31   C     C_R   0.945056 0.846745 0.091577 -0.152118
C32   C     C_R   0.060218 0.848041 0.909322 -0.132074
H25   H     H_    0.486816 0.333145 0.175257 0.103518
H26   H     H_    0.561580 0.352491 0.827374 0.101858
H27   H     H_    0.990945 0.832245 0.175263 0.102009
H28   H     H_    0.016393 0.833629 0.825684 0.103232
N29   N     N_R   0.451720 0.396350 0.057510 -0.043223
N30   N     N_R   0.548280 0.396350 0.942490 -0.043558
N31   N     N_R   0.951720 0.896350 0.057510 -0.041595
N32   N     N_R   0.048280 0.896350 0.942490 -0.041048
C33   C     C_R   0.381845 0.315444 0.999044 0.090854
C34   C     C_R   0.678608 0.350803 0.002162 0.104382
C35   C     C_R   0.884675 0.815439 0.999986 0.106386
C36   C     C_R   0.123554 0.817283 0.002264 0.088837
C37   C     C_R   0.312014 0.635742 0.001164 0.065080
C38   C     C_R   0.685297 0.640658 0.999526 0.064776
C39   C     C_R   0.889225 0.184725 0.001343 0.056449
C40   C     C_R   0.187625 0.138203 0.000000 0.030144
C41   C     C_R   0.567657 0.497174 0.366548 0.061521
C42   C     C_R   0.511972 0.497824 0.685745 0.054454
C43   C     C_R   0.952583 0.998299 0.278289 0.050175
C44   C     C_R   0.938717 0.998590 0.635042 0.062149
C45   C     C_R   0.199192 0.498293 0.633869 -0.019381
C46   C     C_R   0.819471 0.496941 0.341856 0.003614
C47   C     C_R   0.673238 0.998072 0.700451 -0.016437
C48   C     C_R   0.298506 0.997037 0.368109 -0.000872
Ni1   Ni    Ni4+2 0.435420 0.434270 0.870230 0.210290
Ni2   Ni    Ni4+2 0.564580 0.434270 0.129770 0.209972
Ni3   Ni    Ni4+2 0.935420 0.934270 0.870230 0.205234
Ni4   Ni    Ni4+2 0.064580 0.934270 0.129770 0.203039
Ni5   Ni    Ni4+2 0.563430 0.564580 0.128740 0.294083
Ni6   Ni    Ni4+2 0.436570 0.564580 0.871260 0.295083
Ni7   Ni    Ni4+2 0.063430 0.064580 0.128740 0.292687
Ni8   Ni    Ni4+2 0.936570 0.064580 0.871260 0.281676
C49   C     C_2   0.967668 0.455040 0.401861 -0.137000
C50   C     C_2   0.069847 0.450976 0.476320 -0.153018
C51   C     C_2   0.421173 0.949243 0.533936 -0.136572
C52   C     C_2   0.521144 0.953962 0.624432 -0.154415
C53   C     C_2   0.920964 0.493363 0.417878 -0.062580
C54   C     C_2   0.120011 0.497025 0.519104 -0.103734
C55   C     C_2   0.369729 0.994813 0.486088 -0.128636
C56   C     C_2   0.571279 0.996705 0.626649 -0.078054
H29   H     H_    0.930473 0.424083 0.338575 0.139007
H30   H     H_    0.098789 0.410629 0.510590 0.139575
H31   H     H_    0.397931 0.909361 0.494781 0.133317
H32   H     H_    0.555828 0.918965 0.679079 0.132862
H33   H     H_    0.957994 0.523365 0.483137 0.195037
H34   H     H_    0.089067 0.535857 0.477442 0.213385
H35   H     H_    0.392642 0.033253 0.530785 0.192204
H36   H     H_    0.537594 0.030417 0.568469 0.197002
C57   C     C_R   0.276799 0.695084 0.105558 -0.067939
C58   C     C_R   0.722449 0.699543 0.898286 -0.082311
C59   C     C_R   0.879688 0.256066 0.103644 -0.086684
C60   C     C_R   0.237454 0.189869 0.898038 -0.079236
C61   C     C_R   0.243684 0.666545 0.008454 -0.097956
C62   C     C_R   0.756217 0.669775 0.994592 -0.115104
C63   C     C_R   0.869709 0.242259 0.007119 -0.035246
C64   C     C_R   0.260801 0.166235 0.996346 -0.100842
C65   C     C_R   0.149771 0.677280 0.916376 0.346251
C66   C     C_R   0.848794 0.679996 0.089378 0.354919
C67   C     C_R   0.808448 0.273833 0.911053 0.323642
C68   C     C_R   0.351892 0.178575 0.092349 0.348144
C69   C     C_R   0.747387 0.311611 0.910517 -0.325898
C70   C     C_R   0.399079 0.225912 0.092147 -0.312215
C71   C     C_R   0.104500 0.725583 0.916160 -0.322989
C72   C     C_R   0.897327 0.726471 0.090514 -0.306350
H37   H     H_    0.697264 0.334324 0.836284 0.173503
H38   H     H_    0.462023 0.239983 0.168377 0.179636
H39   H     H_    0.037285 0.737713 0.842407 0.177235
H40   H     H_    0.964180 0.737867 0.165233 0.174218
C73   C     C_R   0.751206 0.320029 0.005552 0.035523
C74   C     C_R   0.360254 0.256918 0.995308 0.020171
C75   C     C_R   0.149900 0.759913 0.008750 0.021625
C76   C     C_R   0.858192 0.758641 0.995678 0.042951
C77   C     C_R   0.821187 0.294460 0.103025 0.096564
C78   C     C_R   0.289951 0.231951 0.896559 0.108470
C79   C     C_R   0.228767 0.739509 0.106909 0.105362
C80   C     C_R   0.775943 0.741707 0.898596 0.043750
C81   C     C_3   0.899706 0.320975 0.207079 -0.727673
C82   C     C_3   0.207534 0.254356 0.789043 -0.645862
C83   C     C_3   0.316753 0.767864 0.197820 -0.678365
C84   C     C_3   0.767334 0.721864 0.798911 -0.575789
C85   C     C_3   0.371026 0.719761 0.194787 0.470344
C86   C     C_3   0.703730 0.677508 0.793351 0.443760
C87   C     C_3   0.964717 0.278145 0.208792 0.505248
C88   C     C_3   0.148430 0.209460 0.792502 0.471794
H41   H     H_    0.909520 0.364722 0.194732 0.194335
H42   H     H_    0.186630 0.296719 0.792897 0.205108
H43   H     H_    0.328526 0.808677 0.174455 0.198126
H44   H     H_    0.732048 0.751727 0.729883 0.194992
H45   H     H_    0.891272 0.314561 0.274503 0.186415
H46   H     H_    0.217104 0.248153 0.722533 0.185067
H47   H     H_    0.320447 0.768564 0.274439 0.184913
H48   H     H_    0.835452 0.705562 0.818378 0.192263
H49   H     H_    0.406223 0.694787 0.271260 0.064157
H50   H     H_    0.733538 0.635521 0.804045 0.080838
H51   H     H_    0.990463 0.247855 0.276409 0.066016
H52   H     H_    0.123028 0.179042 0.725706 0.059992
C89   C     C_R   0.575240 0.445461 0.600170 0.158480
C90   C     C_R   0.595441 0.444622 0.524032 0.166955
C91   C     C_R   0.901019 0.947058 0.471804 0.152460
C92   C     C_R   0.904141 0.946732 0.381922 0.155437
C93   C     C_R   0.559693 0.495676 0.632471 0.029646
C94   C     C_R   0.600989 0.494340 0.480129 0.027232
C95   C     C_R   0.902941 0.996862 0.519588 0.034752
C96   C     C_R   0.908379 0.996313 0.336755 0.035825
C97   C     C_R   0.592616 0.543863 0.613137 -0.207899
C98   C     C_R   0.614674 0.543171 0.537408 -0.156069
C99   C     C_R   0.882762 0.045514 0.458232 -0.162074
C100  C     C_R   0.885026 0.045170 0.366282 -0.187518
H53   H     H_    0.591357 0.582746 0.646320 0.184976
H54   H     H_    0.627809 0.582011 0.512969 0.156022
H55   H     H_    0.876432 0.084690 0.487411 0.145897
H56   H     H_    0.880378 0.084088 0.328079 0.131433
C101  C     C_3   0.536332 0.393945 0.470937 -0.470685
C102  C     C_3   0.515477 0.394873 0.555357 -0.484812
C103  C     C_3   0.967069 0.896976 0.423186 -0.488932
C104  C     C_3   0.962996 0.897252 0.520923 -0.487286
H57   H     H_    0.471345 0.401060 0.386973 0.197152
H58   H     H_    0.547588 0.359570 0.613526 0.221201
H59   H     H_    0.931607 0.860550 0.369741 0.209063
H60   H     H_    0.032902 0.905902 0.598890 0.202883
H61   H     H_    0.579567 0.357814 0.479737 0.229725
H62   H     H_    0.439471 0.402815 0.518918 0.198708
H63   H     H_    0.039492 0.905564 0.446237 0.202197
H64   H     H_    0.924669 0.861168 0.523199 0.209615
N33   N     N_R   0.102187 0.641727 0.822507 0.233328
O1    O     O_R   0.035122 0.660802 0.726388 -0.344707
O2    O     O_R   0.117093 0.588870 0.835147 -0.403480
N34   N     N_R   0.893976 0.643836 0.182955 0.229658
O3    O     O_R   0.957928 0.662573 0.280348 -0.343464
O4    O     O_R   0.880914 0.590917 0.169277 -0.417800
N35   N     N_R   0.808747 0.268737 0.815719 0.235694
O5    O     O_R   0.885856 0.254449 0.826252 -0.428590
O6    O     O_R   0.735707 0.284080 0.719763 -0.374524
N36   N     N_R   0.395192 0.145379 0.189773 0.232225
O7    O     O_R   0.453726 0.167215 0.285884 -0.339008
O8    O     O_R   0.386220 0.092082 0.181958 -0.400919
O9    O     O_3   0.435430 0.731581 0.166775 -0.609935
C105  C     C_3   0.402217 0.769185 0.078892 0.317998
H65   H     H_    0.415882 0.811999 0.110202 0.106382
H66   H     H_    0.325818 0.764361 0.012254 0.093141
C106  C     C_3   0.457342 0.760399 0.029839 -0.857313
H67   H     H_    0.445008 0.718295 0.995806 0.258584
H68   H     H_    0.433925 0.790653 0.962877 0.209249
H69   H     H_    0.534268 0.765937 0.093718 0.266045
O10   O     O_3   0.608422 0.680588 0.697609 -0.646572
C107  C     C_3   0.556183 0.727031 0.692002 0.294646
H70   H     H_    0.590743 0.766307 0.695874 0.092588
H71   H     H_    0.546159 0.726200 0.758816 0.103141
C108  C     C_3   0.458689 0.725892 0.583565 -0.867184
H72   H     H_    0.420942 0.687617 0.577778 0.272938
H73   H     H_    0.416682 0.761962 0.577710 0.213040
H74   H     H_    0.465501 0.727384 0.514278 0.248920
O11   O     O_3   0.040502 0.294751 0.202617 -0.603527
C109  C     C_3   0.026092 0.344887 0.146678 0.335292
H75   H     H_    0.039690 0.380106 0.201104 0.104660
H76   H     H_    0.953832 0.348112 0.069331 0.099471
C110  C     C_3   0.096773 0.348407 0.117901 -0.875924
H77   H     H_    0.087573 0.312655 0.066785 0.251807
H78   H     H_    0.085357 0.387019 0.071762 0.213815
H79   H     H_    0.170136 0.348104 0.193802 0.263546
O12   O     O_3   0.072447 0.228349 0.796491 -0.611074
C111  C     C_3   0.096495 0.266992 0.879813 0.342505
H80   H     H_    0.173075 0.275803 0.938395 0.065732
H81   H     H_    0.073114 0.249869 0.929251 0.145858
C112  C     C_3   0.043846 0.321016 0.827724 -0.796222
H82   H     H_    0.967646 0.313217 0.764326 0.306415
H83   H     H_    0.051078 0.348355 0.891242 0.208048
H84   H     H_    0.072877 0.342840 0.788195 0.219232
N37   N     N_R   0.240392 0.598483 0.652750 0.215450
O13   O     O_R   0.315921 0.628771 0.696746 -0.443483
O14   O     O_R   0.158603 0.619930 0.578148 -0.344160
N38   N     N_R   0.781567 0.596129 0.345891 0.219623
O15   O     O_R   0.710833 0.628196 0.318124 -0.427409
O16   O     O_R   0.866934 0.611262 0.424122 -0.325201
N39   N     N_R   0.699916 0.097899 0.683394 0.219081
O17   O     O_R   0.744096 0.122446 0.647935 -0.378005
O18   O     O_R   0.623034 0.119665 0.663900 -0.365103
N40   N     N_R   0.258862 0.097397 0.348532 0.215563
O19   O     O_R   0.183708 0.128130 0.304166 -0.437886
O20   O     O_R   0.340875 0.118218 0.423532 -0.353720

loop_
_geom_bond_atom_site_label_1
_geom_bond_atom_site_label_2
_geom_bond_distance
_ccdc_geom_bond_type
C22   H18   1.079116 S    
C87   H51   1.111964 S    
N3    N31   1.381077 A    
C57   C61   1.402006 A    
N8    N28   1.381076 A    
C30   C34   1.381595 A    
C2    C34   1.375187 A    
C65   N33   1.437961 S    
C26   N26   1.339362 A    
C1    C33   1.377843 A    
C85   H49   1.112077 S    
C25   N25   1.342231 A    
C6    H6    1.066178 S    
C58   C80   1.379450 A    
C66   N34   1.437892 S    
N13   Ni6   1.871740 S    
C60   C64   1.401290 A    
C83   H47   1.111960 S    
C27   N27   1.337010 A    
C31   N31   1.337522 A    
C85   O9    1.430955 S    
C27   H23   1.070610 S    
C89   C90   1.373833 A    
N22   Ni2   1.851120 S    
C59   C63   1.395353 A    
C18   C42   1.385066 A    
C109  C110  1.519153 S    
C22   N22   1.326946 A    
C112  H82   1.108886 S    
O10   C107  1.419474 S    
C38   C62   1.456497 S    
C59   C77   1.375224 A    
C57   C85   1.512600 S    
C100  H56   1.081648 S    
C67   N35   1.436923 S    
C33   C74   1.463079 S    
C83   C85   1.518914 S    
C106  H67   1.109035 S    
C14   N14   1.343646 A    
C20   H16   1.080654 S    
C3    H3    1.079931 S    
N35   O6    1.301651 A    
C73   C77   1.389012 A    
C90   C94   1.402484 A    
N37   O13   1.300931 A    
C36   C75   1.452698 S    
C102  H62   1.112638 S    
C20   C44   1.387019 A    
C106  H69   1.110728 S    
C81   H45   1.111532 S    
C56   H36   1.084474 S    
C107  C108  1.520869 S    
C20   N20   1.340449 A    
C110  H77   1.109200 S    
C50   C54   1.332981 D    
C77   C81   1.498006 S    
C11   C43   1.384916 A    
C4    H4    1.080466 S    
C49   C53   1.345389 D    
C26   H22   1.071155 S    
C9    C41   1.368718 A    
C40   C64   1.468110 S    
C23   N23   1.333094 A    
C4    C36   1.376829 A    
C16   N40   1.433082 S    
C10   N10   1.320038 A    
C19   H15   1.079610 S    
C21   H17   1.080602 S    
N16   Ni7   1.869298 S    
C72   C76   1.400979 A    
N5    Ni5   1.848999 S    
N38   O16   1.300261 A    
C102  H58   1.112135 S    
N10   Ni1   1.857711 S    
C60   C78   1.376808 A    
C58   C86   1.509324 S    
C25   H21   1.077191 S    
C86   H50   1.112468 S    
N6    Ni6   1.851351 S    
C4    N4    1.322296 A    
C71   C75   1.407688 A    
C108  H72   1.110983 S    
C111  H80   1.108625 S    
C95   C99   1.408114 A    
C24   C48   1.377991 A    
C28   H24   1.075968 S    
C16   C48   1.387343 A    
C29   N29   1.340056 A    
C94   C98   1.404483 A    
C7    N7    1.325292 A    
C88   O12   1.429612 S    
C24   N24   1.331407 A    
C84   H48   1.112732 S    
C17   N17   1.337130 A    
C103  C104  1.506105 S    
C8    N8    1.330791 A    
C70   H38   1.081349 S    
O12   C111  1.420990 S    
N1    Ni1   1.856081 S    
C39   C63   1.453509 S    
C2    H2    1.073185 S    
C90   C101  1.503215 S    
C63   C67   1.416689 A    
C47   C56   1.443254 S    
C103  H59   1.111953 S    
C59   C87   1.501656 S    
C89   C102  1.494320 S    
C37   C61   1.459305 S    
N17   Ni5   1.856384 S    
C29   H25   1.080802 S    
C6    C38   1.377137 A    
C98   H54   1.081456 S    
C109  H76   1.111080 S    
N9    N17   1.380376 A    
C106  H68   1.110442 S    
C111  H81   1.109457 S    
C112  H83   1.108767 S    
C42   C93   1.445986 S    
C19   C43   1.393990 A    
C21   C45   1.380952 A    
C75   C79   1.393294 A    
C99   C100  1.400520 A    
C66   C72   1.401784 A    
C41   C94   1.446333 S    
C12   H12   1.079586 S    
C1    N1    1.325082 A    
N6    N26   1.381076 A    
C68   C70   1.411731 A    
C101  H61   1.111927 S    
C62   C66   1.419042 A    
N1    N29   1.381077 A    
N37   O14   1.300238 A    
C104  H60   1.112375 S    
C78   C82   1.502476 S    
C8    C40   1.386007 A    
N13   N21   1.380622 A    
C60   C88   1.507904 S    
C105  C106  1.521835 S    
C11   N11   1.328153 A    
C13   C45   1.385004 A    
C88   H52   1.111784 S    
C27   C39   1.381301 A    
N29   Ni2   1.843582 S    
N11   N19   1.380376 A    
C23   C47   1.384115 A    
C92   C96   1.401624 A    
C57   C79   1.371722 A    
N8    Ni8   1.851351 S    
C32   H28   1.081121 S    
N31   Ni4   1.843582 S    
C14   C46   1.387170 A    
C7    H7    1.080978 S    
C91   C92   1.378494 A    
C68   N36   1.436695 S    
O9    C105  1.417964 S    
N12   N20   1.380415 A    
C97   H53   1.075648 S    
N15   Ni8   1.871740 S    
C107  H70   1.109958 S    
C29   C33   1.389630 A    
C12   C44   1.378345 A    
N14   Ni5   1.869298 S    
N36   O8    1.301807 A    
C70   C74   1.408457 A    
N28   Ni7   1.860779 S    
C17   H13   1.080367 S    
C8    H8    1.075579 S    
C92   C103  1.499699 S    
C31   C35   1.377898 A    
N38   O15   1.301055 A    
C18   N18   1.338211 A    
N12   Ni3   1.857711 S    
C103  H63   1.112352 S    
N33   O1    1.301455 A    
N20   Ni8   1.862231 S    
C5    N5    1.324502 A    
C5    C37   1.378546 A    
C35   C76   1.443805 S    
C107  H71   1.110773 S    
C108  H73   1.110607 S    
N2    N30   1.381075 A    
C81   C87   1.524514 S    
C15   N39   1.428577 S    
C93   C97   1.402754 A    
N11   Ni4   1.863534 S    
C82   C88   1.517087 S    
N15   N23   1.380622 A    
N34   O4    1.301702 A    
C10   H10   1.068314 S    
C86   O10   1.429881 S    
C13   N37   1.434050 S    
C17   C41   1.384795 A    
C11   H11   1.075948 S    
C1    H1    1.079000 S    
C84   H44   1.109335 S    
N26   Ni5   1.860779 S    
C48   C55   1.455800 S    
N5    N25   1.381078 A    
N39   O17   1.301069 A    
C2    N2    1.326454 A    
C80   C84   1.494033 S    
C25   C37   1.394156 A    
N4    Ni4   1.861988 S    
C83   H43   1.107604 S    
C19   N19   1.338813 A    
C28   C40   1.394041 A    
N23   Ni3   1.848713 S    
C97   C98   1.391696 A    
C67   C69   1.398820 A    
C44   C95   1.460700 S    
C61   C65   1.419715 A    
C109  H75   1.111478 S    
C105  H66   1.110148 S    
C112  H84   1.107909 S    
C89   C93   1.397526 A    
C55   H35   1.083847 S    
N4    N32   1.381075 A    
C43   C96   1.461184 S    
C72   H40   1.081930 S    
C53   H33   1.084694 S    
N39   O18   1.300648 A    
C31   H27   1.081005 S    
C15   C47   1.388086 A    
N40   O20   1.300448 A    
C51   C52   1.460074 S    
C52   H32   1.085788 S    
N32   Ni3   1.841246 S    
C74   C78   1.398976 A    
N40   O19   1.300589 A    
C82   H46   1.111739 S    
C76   C80   1.384498 A    
C51   C55   1.337720 D    
C58   C62   1.399634 A    
C32   N32   1.338951 A    
C96   C100  1.408078 A    
C18   H14   1.076142 S    
C87   O11   1.427583 S    
C23   H19   1.080252 S    
C91   C104  1.496451 S    
C30   N30   1.335862 A    
C101  H57   1.111994 S    
C5    H5    1.076831 S    
N25   Ni6   1.866558 S    
C24   H20   1.080869 S    
C110  H79   1.110741 S    
N7    N27   1.381078 A    
C6    N6    1.327649 A    
C64   C68   1.421784 A    
C81   H41   1.107849 S    
C82   H42   1.104572 S    
C28   N28   1.338339 A    
C30   H26   1.073883 S    
C49   C50   1.449536 S    
C10   C42   1.370533 A    
C7    C39   1.371661 A    
N10   N18   1.380415 A    
C9    H9    1.079826 S    
N36   O7    1.302003 A    
N21   Ni1   1.848713 S    
N19   Ni7   1.856384 S    
C34   C73   1.440431 S    
N27   Ni8   1.866558 S    
C71   H39   1.081934 S    
N18   Ni6   1.862231 S    
C46   C53   1.441304 S    
C84   C86   1.508782 S    
N33   O2    1.301557 A    
C69   C73   1.402101 A    
C45   C54   1.450668 S    
N2    Ni2   1.861988 S    
C79   C83   1.501109 S    
N35   O5    1.299905 A    
C13   N13   1.339021 A    
C101  C102  1.503663 S    
C50   H30   1.083738 S    
C108  H74   1.110963 S    
C99   H55   1.081154 S    
C3    N3    1.324954 A    
C14   N38   1.434211 S    
C65   C71   1.411880 A    
N7    Ni7   1.848999 S    
C26   C38   1.386097 A    
C16   N16   1.341608 A    
N34   O3    1.301468 A    
C12   N12   1.325952 A    
C104  H64   1.111819 S    
C15   N15   1.336958 A    
C22   C46   1.370745 A    
N14   N22   1.380661 A    
N3    Ni3   1.856081 S    
C69   H37   1.082282 S    
N16   N24   1.380661 A    
C3    C35   1.374686 A    
N9    Ni2   1.863534 S    
C32   C36   1.386517 A    
N30   Ni1   1.841246 S    
C110  H78   1.110394 S    
O11   C109  1.413255 S    
C49   H29   1.084704 S    
C105  H65   1.110522 S    
C54   H34   1.084108 S    
N24   Ni4   1.851120 S    
C91   C95   1.399288 A    
C52   C56   1.341701 D    
C9    N9    1.318463 A    
C21   N21   1.329449 A    
C111  C112  1.527481 S    
C51   H31   1.084195 S    
