data_mof_unit_27931.cif
_audit_creation_date              2012-12-10T17:11:48-0500
_audit_creation_method            fapswitch 2.2
_symmetry_space_group_name_H-M    P1
_symmetry_Int_Tables_number       1
_space_group_crystal_system       triclinic
_cell_length_a                    19.135697
_cell_length_b                    10.709088
_cell_length_c                    10.103612
_cell_angle_alpha                 91.149786
_cell_angle_beta                  90.317741
_cell_angle_gamma                 90.382567
_cell_volume                      2069.99497611

loop_
_atom_site_label
_atom_site_type_symbol
_atom_type_description
_atom_site_fract_x
_atom_site_fract_y
_atom_site_fract_z
_atom_type_partial_charge
C1    C     C_R   0.497221 0.262391 0.498363 0.935884
C2    C     C_R   0.290355 0.496097 0.499601 -0.124972
C3    C     C_R   0.929381 0.475146 0.488363 0.292456
C4    C     C_R   0.069483 0.482034 0.495574 0.303114
C5    C     C_R   0.815929 0.372042 0.537393 0.176920
C6    C     C_R   0.742424 0.380115 0.547122 0.175425
C7    C     C_R   0.709054 0.487609 0.499607 -0.117581
C8    C     C_R   0.746605 0.584489 0.443411 -0.251134
C9    C     C_R   0.818889 0.580201 0.437305 0.180302
C10   C     C_R   0.853627 0.474381 0.485365 0.022072
C11   C     C_2   0.458312 0.928708 0.405396 0.185715
C12   C     C_R   0.366065 0.499931 0.499796 0.896872
C13   C     C_2   0.494254 0.869071 0.499779 -0.434617
C14   C     C_2   0.477155 0.058799 0.386639 0.221958
C15   C     C_2   0.480101 0.131988 0.496407 -0.406390
C16   C     C_2   0.496317 0.598203 0.930098 0.190214
C17   C     C_2   0.520046 0.591467 0.071456 0.282481
C18   C     C_R   0.497299 0.736868 0.500841 0.914275
C19   C     C_R   0.633881 0.497839 0.500196 0.897009
C20   C     C_R   0.256347 0.383694 0.460549 0.133758
C21   C     C_R   0.182802 0.377703 0.462698 0.174936
C22   C     C_R   0.145078 0.486042 0.499335 -0.017374
C23   C     C_R   0.179221 0.598411 0.538678 0.166502
C24   C     C_R   0.252686 0.602572 0.541638 0.132258
H1    H     H_    0.530541 0.917780 0.566345 0.135135
H2    H     H_    0.465092 0.094448 0.591567 0.139244
H3    H     H_    0.529310 0.428219 0.888288 0.155051
H4    H     H_    0.719059 0.664949 0.406306 0.149760
N1    N     N_R   0.032865 0.479460 0.609712 -0.164749
N2    N     N_R   0.963571 0.476459 0.606116 -0.166575
N3    N     N_R   0.966076 0.477047 0.374235 -0.169517
N4    N     N_R   0.035379 0.480568 0.377791 -0.162910
N5    N     N_2   0.500750 0.501330 0.852150 -0.203689
N6    N     N_2   0.500770 0.501360 0.147810 -0.064148
O1    O     O_R   0.499990 0.319060 0.613040 -0.620076
O2    O     O_R   0.500010 0.319100 0.386900 -0.601846
O3    O     O_R   0.398130 0.499970 0.613110 -0.605107
O4    O     O_R   0.398150 0.500010 0.386970 -0.624268
O5    O     O_R   0.499990 0.680900 0.613100 -0.612976
O6    O     O_R   0.500010 0.680940 0.386960 -0.613740
O7    O     O_R   0.601850 0.499990 0.613030 -0.606237
O8    O     O_R   0.601870 0.500030 0.386890 -0.615243
Zn1   Zn    Zn3+2 0.499990 0.499970 0.650990 0.933412
Zn2   Zn    Zn3+2 0.500010 0.500030 0.349010 0.929156
C25   C     C_3   0.300047 0.270854 0.421020 -0.887996
H5    H     H_    0.332151 0.292721 0.333427 0.240616
H6    H     H_    0.335020 0.245974 0.504323 0.232771
H7    H     H_    0.269426 0.186367 0.394055 0.246982
C26   C     C_3   0.497421 0.098988 0.249398 -0.831277
H8    H     H_    0.500020 0.017951 0.179486 0.211657
H9    H     H_    0.457897 0.163937 0.210649 0.238182
H10   H     H_    0.550092 0.143151 0.251126 0.246298
C27   C     C_3   0.464133 0.717048 0.883698 -0.799548
H11   H     H_    0.440149 0.768461 0.968289 0.196223
H12   H     H_    0.504907 0.777846 0.840607 0.243041
H13   H     H_    0.421748 0.696490 0.810894 0.261133
C28   C     C_3   0.567680 0.693373 0.123508 -0.848121
H14   H     H_    0.609514 0.710988 0.050357 0.212656
H15   H     H_    0.537897 0.780717 0.139926 0.223259
H16   H     H_    0.593619 0.666902 0.216818 0.274188
C29   C     C_3   0.446855 0.413766 0.101948 -0.663629
H17   H     H_    0.422162 0.370269 0.188055 0.244499
H18   H     H_    0.404087 0.460960 0.047755 0.198075
H19   H     H_    0.469830 0.336397 0.042573 0.173653
C30   C     C_3   0.145347 0.255356 0.428577 -0.871320
H20   H     H_    0.087864 0.258486 0.439397 0.242676
H21   H     H_    0.156238 0.227590 0.324282 0.245514
H22   H     H_    0.163499 0.181429 0.495927 0.238430
C31   C     C_3   0.138367 0.715517 0.575471 -0.860599
H23   H     H_    0.153127 0.792521 0.509053 0.236655
H24   H     H_    0.080974 0.705048 0.566458 0.242561
H25   H     H_    0.149973 0.743907 0.679575 0.245548
C32   C     C_3   0.289679 0.721599 0.589005 -0.895499
H26   H     H_    0.347323 0.717782 0.584264 0.228944
H27   H     H_    0.273611 0.800749 0.527180 0.245784
H28   H     H_    0.275807 0.742245 0.693652 0.247271
C33   C     C_3   0.853062 0.254013 0.578700 -0.886792
H29   H     H_    0.846330 0.240527 0.686561 0.249426
H30   H     H_    0.831145 0.172386 0.522699 0.239639
H31   H     H_    0.909813 0.254170 0.558027 0.244735
C34   C     C_3   0.698343 0.275410 0.603456 -0.883157
H32   H     H_    0.659748 0.242062 0.527996 0.223479
H33   H     H_    0.728431 0.193257 0.634795 0.242351
H34   H     H_    0.670062 0.310239 0.692228 0.252633
C35   C     C_3   0.858021 0.690602 0.382656 -0.871733
H35   H     H_    0.896034 0.727457 0.457398 0.241486
H36   H     H_    0.886205 0.661952 0.291421 0.255506
H37   H     H_    0.822310 0.767863 0.356758 0.232442
C36   C     C_3   0.402136 0.867306 0.317477 -0.328587
C37   C     C_3   0.336784 0.947839 0.308593 -0.919374
H38   H     H_    0.318532 0.974651 0.409243 0.260740
H39   H     H_    0.347703 0.033573 0.252132 0.270806
H40   H     H_    0.294506 0.894566 0.256584 0.256840
H41   H     H_    0.422847 0.850487 0.216408 0.199653
H42   H     H_    0.385197 0.775922 0.356433 0.220523

loop_
_geom_bond_atom_site_label_1
_geom_bond_atom_site_label_2
_ccdc_geom_bond_type
C36   H42   S    
C3    N2    A    
C32   H27   S    
C32   H26   S    
C23   C31   S    
C2    C12   S    
C34   H32   S    
C28   H14   S    
C7    C8    A    
C35   H35   S    
H3    N5    S    
C13   C18   S    
C5    C6    A    
C11   C14   S    
C24   C32   S    
C35   H37   S    
C14   C26   S    
C36   H41   S    
C29   H18   S    
C25   H6    S    
C12   O3    A    
C31   H24   S    
C18   O6    A    
C16   C27   S    
C9    C35   S    
C8    C9    A    
C30   H21   S    
C23   C24   A    
C1    C15   S    
O1    Zn1   S    
C9    C10   A    
C4    N1    A    
C19   O8    A    
C33   H29   S    
C26   H10   S    
C35   H36   S    
C6    C34   S    
C21   C22   A    
O7    Zn1   S    
C13   H1    S    
C31   H23   S    
O8    Zn2   S    
C34   H33   S    
C27   H12   S    
C2    C20   A    
N5    Zn1   S    
N6    Zn2   S    
C16   C17   S    
C28   H16   S    
O5    Zn1   S    
C25   H7    S    
C26   H9    S    
C25   H5    S    
N6    C29   S    
O3    Zn1   S    
C29   H19   S    
C18   O5    A    
O4    Zn2   S    
N1    N2    A    
C16   N5    D    
C4    C22   S    
C11   C36   S    
C37   H39   S    
N3    N4    A    
C30   H22   S    
C33   H30   S    
C3    N3    A    
C4    N4    A    
C26   H8    S    
C7    C19   S    
C2    C24   A    
C8    H4    S    
C32   H28   S    
C11   C13   D    
O2    Zn2   S    
C17   N6    D    
C5    C33   S    
C34   H34   S    
C1    O1    A    
C37   H40   S    
C27   H13   S    
C21   C30   S    
C14   C15   D    
C20   C25   S    
C31   H25   S    
C15   H2    S    
C27   H11   S    
C6    C7    A    
C5    C10   A    
C3    C10   S    
C33   H31   S    
C37   H38   S    
C12   O4    A    
C29   H17   S    
C28   H15   S    
O6    Zn2   S    
C20   C21   A    
C30   H20   S    
C22   C23   A    
C36   C37   S    
C19   O7    A    
C1    O2    A    
C17   C28   S    
