data_mof_unit_62806.cif
_audit_creation_date              2012-12-10T20:06:57-0500
_audit_creation_method            fapswitch 2.2
_symmetry_space_group_name_H-M    P1
_symmetry_Int_Tables_number       1
_space_group_crystal_system       triclinic
_cell_length_a                    32.10654
_cell_length_b                    32.106567
_cell_length_c                    38.767244
_cell_angle_alpha                 89.999967
_cell_angle_beta                  89.999982
_cell_angle_gamma                 90.0
_cell_volume                      39962.4682798

loop_
_atom_site_label
_atom_site_type_symbol
_atom_type_description
_atom_site_fract_x
_atom_site_fract_y
_atom_site_fract_z
_atom_type_partial_charge
C1    C     C_R   0.919375 0.500000 0.000000 0.897544
C2    C     C_R   0.500000 0.080625 0.000000 0.897439
C3    C     C_R   0.080625 0.500000 0.000000 0.897543
C4    C     C_R   0.500000 0.919375 0.000000 0.897430
C5    C     C_R   0.419375 0.000000 0.500000 0.897671
C6    C     C_R   1.000000 0.580625 0.500000 0.897564
C7    C     C_R   0.580625 0.000000 0.500000 0.897670
C8    C     C_R   0.000000 0.419375 0.500000 0.897565
C9    C     C_R   0.771846 0.489585 0.969666 0.225133
C10   C     C_R   0.489525 0.228155 0.969680 0.225119
C11   C     C_R   0.228154 0.510426 0.969668 0.225134
C12   C     C_R   0.510511 0.771845 0.969689 0.225118
C13   C     C_R   0.228155 0.489579 0.030333 0.225082
C14   C     C_R   0.510475 0.228155 0.030320 0.225107
C15   C     C_R   0.771845 0.510410 0.030335 0.225084
C16   C     C_R   0.489489 0.771845 0.030311 0.225107
C17   C     C_R   0.271845 0.989651 0.469650 0.225087
C18   C     C_R   0.989584 0.728154 0.469666 0.225112
C19   C     C_R   0.728155 0.010356 0.469652 0.225087
C20   C     C_R   0.010415 0.271846 0.469666 0.225112
C21   C     C_R   0.728155 0.989644 0.530348 0.225075
C22   C     C_R   0.010411 0.728155 0.530335 0.225062
C23   C     C_R   0.271845 0.010349 0.530350 0.225076
C24   C     C_R   0.989589 0.271845 0.530335 0.225062
C25   C     C_R   0.793419 0.499998 0.000001 -0.129357
C26   C     C_R   0.500000 0.206581 0.000000 -0.129296
C27   C     C_R   0.206581 0.500002 0.000001 -0.129357
C28   C     C_R   0.500000 0.793419 1.000000 -0.129297
C29   C     C_R   0.293419 0.000000 0.500000 -0.129421
C30   C     C_R   0.999998 0.706581 0.500001 -0.129359
C31   C     C_R   0.706581 1.000000 0.500000 -0.129421
C32   C     C_R   0.000002 0.293419 0.500001 -0.129359
C33   C     C_1   0.662067 0.499998 1.000000 0.144712
C34   C     C_1   0.500000 0.337933 0.000000 0.144716
C35   C     C_1   0.337933 0.500001 1.000000 0.144713
C36   C     C_1   0.500000 0.662067 1.000000 0.144719
C37   C     C_1   0.162067 1.000000 0.500000 0.144691
C38   C     C_1   0.999998 0.837933 0.500000 0.144698
C39   C     C_1   0.837933 1.000000 0.500000 0.144691
C40   C     C_1   0.000001 0.162067 0.500000 0.144698
C41   C     C_1   0.837939 0.499999 0.000001 0.144992
C42   C     C_1   0.500000 0.162061 0.000000 0.145006
C43   C     C_1   0.162061 0.500001 0.000001 0.144991
C44   C     C_1   0.500000 0.837939 1.000000 0.145003
C45   C     C_1   0.337938 0.000000 0.500000 0.144959
C46   C     C_1   0.999999 0.662061 0.500001 0.144974
C47   C     C_1   0.662061 0.000000 0.500000 0.144959
C48   C     C_1   0.000001 0.337938 0.500001 0.144974
C49   C     C_1   0.875207 0.500000 0.000001 -0.104721
C50   C     C_1   0.500000 0.124793 0.000000 -0.104756
C51   C     C_1   0.124793 0.500000 0.000001 -0.104723
C52   C     C_1   0.500000 0.875207 1.000000 -0.104760
C53   C     C_1   0.375207 0.000000 0.500000 -0.104712
C54   C     C_1   1.000000 0.624793 0.500001 -0.104747
C55   C     C_1   0.624793 0.000000 0.500000 -0.104714
C56   C     C_1   0.000000 0.375207 0.500001 -0.104746
C57   C     C_1   0.624784 0.499999 1.000000 -0.088244
C58   C     C_1   0.500000 0.375215 0.000000 -0.088250
C59   C     C_1   0.375216 0.500001 1.000000 -0.088245
C60   C     C_1   0.500000 0.624784 1.000000 -0.088248
C61   C     C_1   0.124784 1.000000 0.500000 -0.088221
C62   C     C_1   0.999999 0.875216 0.500000 -0.088225
C63   C     C_1   0.875216 1.000000 0.500000 -0.088222
C64   C     C_1   0.000001 0.124784 0.500000 -0.088224
C65   C     C_R   0.500000 0.419411 0.000000 0.879486
C66   C     C_R   0.419411 0.500000 1.000000 0.879490
C67   C     C_R   0.500000 0.580589 0.000000 0.879493
C68   C     C_R   0.580589 0.500000 1.000000 0.879489
C69   C     C_R   1.000000 0.919411 0.500000 0.879443
C70   C     C_R   0.919411 0.000000 0.500000 0.879443
C71   C     C_R   0.000000 0.080589 0.500000 0.879444
C72   C     C_R   0.080589 0.000000 0.500000 0.879443
C73   C     C_R   1.000000 0.500000 0.932572 0.874691
C74   C     C_R   0.500000 0.000000 0.932572 0.874644
C75   C     C_R   1.000000 0.500000 0.067427 0.874847
C76   C     C_R   0.500000 0.000000 0.067428 0.874644
C77   C     C_R   0.500000 0.000000 0.432573 0.874919
C78   C     C_R   1.000000 0.500000 0.432572 0.874717
C79   C     C_R   0.500000 0.000000 0.567426 0.874919
C80   C     C_R   0.000000 0.500000 0.567427 0.874873
C81   C     C_R   0.970709 0.475529 0.876743 -0.072126
C82   C     C_R   0.475523 0.029286 0.876742 -0.072134
C83   C     C_R   0.029291 0.524471 0.876742 -0.072127
C84   C     C_R   0.524478 0.970715 0.876742 -0.072141
C85   C     C_R   0.029415 0.475717 0.123248 -0.073038
C86   C     C_R   0.524478 0.029286 0.123258 -0.072135
C87   C     C_R   0.970585 0.524283 0.123248 -0.073036
C88   C     C_R   0.475522 0.970715 0.123258 -0.072142
C89   C     C_R   0.470580 0.975723 0.376753 -0.073027
C90   C     C_R   0.975529 0.529291 0.376742 -0.072126
C91   C     C_R   0.529420 0.024277 0.376753 -0.073029
C92   C     C_R   0.024471 0.470709 0.376742 -0.072126
C93   C     C_R   0.529420 0.975723 0.623247 -0.073030
C94   C     C_R   0.024283 0.529414 0.623248 -0.073038
C95   C     C_R   0.470580 0.024277 0.623247 -0.073029
C96   C     C_R   0.975716 0.470585 0.623248 -0.073038
C97   C     C_R   0.970864 0.475388 0.840562 -0.037752
C98   C     C_R   0.475381 0.029130 0.840562 -0.037755
C99   C     C_R   0.029135 0.524613 0.840562 -0.037752
C100  C     C_R   0.524620 0.970871 0.840561 -0.037755
C101  C     C_R   0.029201 0.475442 0.159432 -0.037546
C102  C     C_R   0.524620 0.029130 0.159438 -0.037758
C103  C     C_R   0.970798 0.524557 0.159432 -0.037545
C104  C     C_R   0.475380 0.970871 0.159438 -0.037757
C105  C     C_R   0.470793 0.975449 0.340569 -0.037542
C106  C     C_R   0.975387 0.529135 0.340562 -0.037756
C107  C     C_R   0.529207 0.024551 0.340569 -0.037542
C108  C     C_R   0.024613 0.470865 0.340562 -0.037756
C109  C     C_R   0.529206 0.975449 0.659431 -0.037543
C110  C     C_R   0.024558 0.529201 0.659432 -0.037547
C111  C     C_R   0.470793 0.024551 0.659431 -0.037543
C112  C     C_R   0.975442 0.470799 0.659432 -0.037547
C113  C     C_R   1.000000 0.500000 0.822567 -0.026005
C114  C     C_R   0.500000 0.000001 0.822566 -0.026002
C115  C     C_R   1.000000 0.500000 0.177542 -0.027732
C116  C     C_R   0.500000 0.000001 0.177433 -0.026004
C117  C     C_R   0.500000 0.000000 0.322459 -0.027738
C118  C     C_R   1.000000 0.500000 0.322567 -0.026011
C119  C     C_R   0.500000 0.000000 0.677541 -0.027738
C120  C     C_R   1.000000 0.500000 0.677542 -0.027734
C121  C     C_R   1.000000 0.500000 0.894811 -0.135082
C122  C     C_R   0.500000 0.000000 0.894810 -0.135082
C123  C     C_R   1.000000 0.500000 0.105191 -0.134482
C124  C     C_R   0.500000 0.000000 0.105190 -0.135083
C125  C     C_R   0.500000 0.000000 0.394810 -0.134496
C126  C     C_R   1.000000 0.500000 0.394811 -0.135095
C127  C     C_R   0.500000 0.000000 0.605190 -0.134498
C128  C     C_R   1.000000 0.500000 0.605190 -0.134495
C129  C     C_R   1.000000 0.500000 0.715376 0.289829
C130  C     C_R   0.500000 0.000001 0.715376 0.289825
C131  C     C_R   1.000000 0.500000 0.284875 0.289753
C132  C     C_R   0.500000 0.000001 0.284624 0.289834
C133  C     C_R   0.500000 0.000001 0.215125 0.289741
C134  C     C_R   1.000000 0.500000 0.215376 0.289843
C135  C     C_R   0.500000 0.000001 0.784875 0.289732
C136  C     C_R   1.000000 0.500000 0.784875 0.289738
C137  C     C_R   0.728193 0.510415 0.030333 0.228237
C138  C     C_R   0.510479 0.271806 0.030319 0.228297
C139  C     C_R   0.271807 0.489574 0.030331 0.228238
C140  C     C_R   0.489485 0.728194 0.030310 0.228294
C141  C     C_R   0.271806 0.510430 0.969669 0.228313
C142  C     C_R   0.489521 0.271806 0.969681 0.228296
C143  C     C_R   0.728194 0.489581 0.969667 0.228314
C144  C     C_R   0.510515 0.728194 0.969690 0.228294
C145  C     C_R   0.228193 0.010353 0.530349 0.228247
C146  C     C_R   0.010415 0.771807 0.530333 0.228229
C147  C     C_R   0.771806 0.989639 0.530347 0.228246
C148  C     C_R   0.989585 0.228193 0.530333 0.228228
C149  C     C_R   0.771806 0.010360 0.469653 0.228245
C150  C     C_R   0.989580 0.771806 0.469667 0.228305
C151  C     C_R   0.228193 0.989647 0.469651 0.228245
C152  C     C_R   0.010419 0.228194 0.469667 0.228305
C153  C     C_R   0.706605 0.499998 1.000000 -0.135687
C154  C     C_R   0.500000 0.293394 0.000000 -0.135676
C155  C     C_R   0.293394 0.500002 0.000000 -0.135687
C156  C     C_R   0.500000 0.706606 1.000000 -0.135670
C157  C     C_R   0.206605 1.000000 0.500000 -0.135729
C158  C     C_R   0.999998 0.793394 0.500000 -0.135714
C159  C     C_R   0.793395 1.000000 0.500000 -0.135728
C160  C     C_R   0.000002 0.206605 0.500000 -0.135714
N1    N     N_R   0.992930 0.535766 0.767290 -0.138394
N2    N     N_R   0.535764 0.007079 0.767290 -0.138393
N3    N     N_R   0.007070 0.464234 0.767290 -0.138397
N4    N     N_R   0.464235 0.992923 0.767290 -0.138397
N5    N     N_R   0.964256 0.492855 0.233031 -0.139186
N6    N     N_R   0.464236 0.007079 0.232710 -0.138398
N7    N     N_R   0.035743 0.507144 0.233031 -0.139187
N8    N     N_R   0.535764 0.992922 0.232710 -0.138403
N9    N     N_R   0.535742 0.992848 0.266969 -0.139184
N10   N     N_R   0.035766 0.507070 0.267290 -0.138406
N11   N     N_R   0.464258 0.007153 0.266969 -0.139181
N12   N     N_R   0.964234 0.492929 0.267290 -0.138406
N13   N     N_R   0.464258 0.992848 0.733031 -0.139179
N14   N     N_R   0.007144 0.464256 0.733031 -0.139182
N15   N     N_R   0.535742 0.007153 0.733031 -0.139178
N16   N     N_R   0.992856 0.535744 0.733031 -0.139181
O1    O     O_R   0.939070 0.534360 0.999910 -0.604232
O2    O     O_R   0.534360 0.060930 0.999910 -0.604214
O3    O     O_R   0.060930 0.465640 0.999910 -0.604232
O4    O     O_R   0.465640 0.939070 0.999910 -0.604211
O5    O     O_R   0.060930 0.534360 0.000090 -0.604234
O6    O     O_R   0.465640 0.060930 0.000090 -0.604214
O7    O     O_R   0.939070 0.465640 0.000090 -0.604236
O8    O     O_R   0.534360 0.939070 0.000090 -0.604213
O9    O     O_R   0.439070 0.034360 0.499910 -0.604263
O10   O     O_R   0.034360 0.560930 0.499910 -0.604242
O11   O     O_R   0.560930 0.965640 0.499910 -0.604262
O12   O     O_R   0.965640 0.439070 0.499910 -0.604242
O13   O     O_R   0.560930 0.034360 0.500090 -0.604263
O14   O     O_R   0.965640 0.560930 0.500090 -0.604245
O15   O     O_R   0.439070 0.965640 0.500090 -0.604263
O16   O     O_R   0.034360 0.439070 0.500090 -0.604246
O17   O     O_R   0.000050 0.534360 0.948990 -0.610359
O18   O     O_R   0.534360 0.999950 0.948990 -0.610358
O19   O     O_R   0.999950 0.465640 0.948990 -0.610360
O20   O     O_R   0.465640 0.000050 0.948990 -0.610363
O21   O     O_R   0.999950 0.534360 0.051010 -0.610501
O22   O     O_R   0.465640 0.999950 0.051010 -0.610361
O23   O     O_R   0.000050 0.465640 0.051010 -0.610501
O24   O     O_R   0.534360 0.000050 0.051010 -0.610366
O25   O     O_R   0.500050 0.034360 0.448990 -0.610506
O26   O     O_R   0.034360 0.499950 0.448990 -0.610369
O27   O     O_R   0.499950 0.965640 0.448990 -0.610507
O28   O     O_R   0.965640 0.500050 0.448990 -0.610369
O29   O     O_R   0.499950 0.034360 0.551010 -0.610511
O30   O     O_R   0.965640 0.499950 0.551010 -0.610510
O31   O     O_R   0.500050 0.965640 0.551010 -0.610509
O32   O     O_R   0.034360 0.500050 0.551010 -0.610511
O33   O     O_R   0.500080 0.438950 0.971150 -0.596925
O34   O     O_R   0.438950 0.499920 0.971150 -0.596924
O35   O     O_R   0.499920 0.561050 0.971150 -0.596927
O36   O     O_R   0.561050 0.500080 0.971150 -0.596919
O37   O     O_R   0.499920 0.438950 0.028850 -0.596893
O38   O     O_R   0.561050 0.499920 0.028850 -0.596890
O39   O     O_R   0.500080 0.561050 0.028850 -0.596899
O40   O     O_R   0.438950 0.500080 0.028850 -0.596884
O41   O     O_R   0.000080 0.938950 0.471150 -0.596904
O42   O     O_R   0.938950 0.999920 0.471150 -0.596895
O43   O     O_R   0.999920 0.061050 0.471150 -0.596904
O44   O     O_R   0.061050 0.000080 0.471150 -0.596895
O45   O     O_R   0.999920 0.938950 0.528850 -0.596868
O46   O     O_R   0.061050 0.999920 0.528850 -0.596866
O47   O     O_R   0.000080 0.061050 0.528850 -0.596870
O48   O     O_R   0.938950 0.000080 0.528850 -0.596865
Zn1   Zn    Zn3+2 0.000000 0.545910 0.000000 1.047141
Zn2   Zn    Zn3+2 0.545910 0.000000 0.000000 1.047350
Zn3   Zn    Zn3+2 0.000000 0.454090 0.000000 1.047139
Zn4   Zn    Zn3+2 0.454090 0.000000 0.000000 1.047351
Zn5   Zn    Zn3+2 0.500000 0.045910 0.500000 1.046840
Zn6   Zn    Zn3+2 0.045910 0.500000 0.500000 1.047050
Zn7   Zn    Zn3+2 0.500000 0.954090 0.500000 1.046840
Zn8   Zn    Zn3+2 0.954090 0.500000 0.500000 1.047051
Zn9   Zn    Zn3+2 0.500000 0.500000 0.961540 1.094689
Zn10  Zn    Zn3+2 0.500000 0.500000 0.038460 1.094835
Zn11  Zn    Zn3+2 0.000000 0.000000 0.461540 1.094869
Zn12  Zn    Zn3+2 0.000000 0.000000 0.538460 1.095015
C161  C     C_1   0.939435 0.451711 0.895289 0.226808
N17   N     N_1   0.914495 0.432771 0.910077 -0.120517
C162  C     C_1   0.451697 0.060554 0.895289 0.226807
N18   N     N_1   0.432751 0.085490 0.910076 -0.120457
C163  C     C_1   0.060565 0.548289 0.895289 0.226804
N19   N     N_1   0.085504 0.567229 0.910077 -0.120507
C164  C     C_1   0.548304 0.939447 0.895288 0.226796
N20   N     N_1   0.567251 0.914512 0.910076 -0.120426
C165  C     C_1   0.060683 0.451921 0.104662 0.226275
N21   N     N_1   0.085614 0.433002 0.089845 -0.120511
C166  C     C_1   0.548304 0.060554 0.104711 0.226803
N22   N     N_1   0.567250 0.085489 0.089923 -0.120463
C167  C     C_1   0.939316 0.548079 0.104662 0.226278
N23   N     N_1   0.914385 0.566998 0.089845 -0.120520
C168  C     C_1   0.451695 0.939447 0.104712 0.226791
N24   N     N_1   0.432748 0.914513 0.089924 -0.120431
C169  C     C_1   0.439306 0.951935 0.395339 0.226265
N25   N     N_1   0.414371 0.933022 0.410156 -0.120613
C170  C     C_1   0.951711 0.560565 0.395289 0.226787
N26   N     N_1   0.932771 0.585504 0.410077 -0.120553
C171  C     C_1   0.560694 0.048066 0.395339 0.226263
N27   N     N_1   0.585629 0.066978 0.410157 -0.120607
C172  C     C_1   0.048289 0.439435 0.395289 0.226787
N28   N     N_1   0.067229 0.414495 0.410077 -0.120553
C173  C     C_1   0.560693 0.951934 0.604661 0.226259
N29   N     N_1   0.585628 0.933020 0.589844 -0.120612
C174  C     C_1   0.048080 0.560683 0.604662 0.226259
N30   N     N_1   0.066999 0.585614 0.589845 -0.120556
C175  C     C_1   0.439306 0.048066 0.604661 0.226261
N31   N     N_1   0.414371 0.066979 0.589843 -0.120619
C176  C     C_1   0.951920 0.439317 0.604662 0.226259
N32   N     N_1   0.933001 0.414386 0.589845 -0.120556
C177  C     C_1   0.940232 0.450941 0.821858 0.228803
N33   N     N_1   0.915821 0.431470 0.806942 -0.124523
C178  C     C_1   0.450926 0.059756 0.821858 0.228795
N34   N     N_1   0.431450 0.084163 0.806942 -0.124522
C179  C     C_1   0.059767 0.549059 0.821858 0.228801
N35   N     N_1   0.084178 0.568530 0.806942 -0.124524
C180  C     C_1   0.549074 0.940245 0.821857 0.228791
N36   N     N_1   0.568550 0.915839 0.806941 -0.124519
C181  C     C_1   0.058332 0.448985 0.177910 0.231425
N37   N     N_1   0.081541 0.427881 0.192620 -0.123751
C182  C     C_1   0.549074 0.059756 0.178142 0.228791
N38   N     N_1   0.568551 0.084163 0.193058 -0.124519
C183  C     C_1   0.941667 0.551014 0.177910 0.231426
N39   N     N_1   0.918459 0.572119 0.192620 -0.123753
C184  C     C_1   0.450925 0.940246 0.178143 0.228787
N40   N     N_1   0.431449 0.915840 0.193059 -0.124517
C185  C     C_1   0.441656 0.948999 0.322091 0.231420
N41   N     N_1   0.418442 0.927900 0.307381 -0.123765
C186  C     C_1   0.950940 0.559767 0.321858 0.228788
N42   N     N_1   0.931469 0.584178 0.306942 -0.124529
C187  C     C_1   0.558344 0.051002 0.322091 0.231421
N43   N     N_1   0.581558 0.072101 0.307381 -0.123765
C188  C     C_1   0.049060 0.440233 0.321858 0.228789
N44   N     N_1   0.068530 0.415822 0.306942 -0.124528
C189  C     C_1   0.558343 0.948998 0.677909 0.231416
N45   N     N_1   0.581557 0.927899 0.692619 -0.123764
C190  C     C_1   0.051015 0.558332 0.677910 0.231410
N46   N     N_1   0.072120 0.581540 0.692620 -0.123762
C191  C     C_1   0.441656 0.051002 0.677909 0.231417
N47   N     N_1   0.418443 0.072102 0.692619 -0.123766
C192  C     C_1   0.948985 0.441668 0.677910 0.231411
N48   N     N_1   0.927880 0.418460 0.692620 -0.123761
Br1   Br    Br    0.802148 0.524601 0.071711 -0.367497
Br2   Br    Br    0.524751 0.197850 0.071675 -0.368340
Br3   Br    Br    0.197852 0.475373 0.071705 -0.367490
Br4   Br    Br    0.475164 0.802150 0.071655 -0.368332
Br5   Br    Br    0.197849 0.524633 0.928297 -0.368396
Br6   Br    Br    0.475249 0.197850 0.928325 -0.368371
Br7   Br    Br    0.802151 0.475393 0.928291 -0.368396
Br8   Br    Br    0.524836 0.802150 0.928345 -0.368360
Br9   Br    Br    0.302149 0.024453 0.571746 -0.367521
Br10  Br    Br    0.024603 0.697852 0.571711 -0.367494
Br11  Br    Br    0.697851 0.975530 0.571742 -0.367519
Br12  Br    Br    0.975398 0.302148 0.571711 -0.367495
Br13  Br    Br    0.697851 0.024470 0.428258 -0.367549
Br14  Br    Br    0.975390 0.697849 0.428292 -0.368397
Br15  Br    Br    0.302149 0.975547 0.428254 -0.367550
Br16  Br    Br    0.024608 0.302151 0.428291 -0.368396
Br17  Br    Br    0.697928 0.524631 0.071708 -0.339724
Br18  Br    Br    0.524780 0.302071 0.071673 -0.339994
Br19  Br    Br    0.302072 0.475342 0.071702 -0.339714
Br20  Br    Br    0.475134 0.697929 0.071652 -0.340007
Br21  Br    Br    0.302070 0.524662 0.928298 -0.340111
Br22  Br    Br    0.475220 0.302071 0.928327 -0.340121
Br23  Br    Br    0.697930 0.475364 0.928292 -0.340097
Br24  Br    Br    0.524866 0.697929 0.928348 -0.340126
Br25  Br    Br    0.197929 0.024482 0.571744 -0.339578
Br26  Br    Br    0.024634 0.802072 0.571707 -0.339594
Br27  Br    Br    0.802071 0.975499 0.571739 -0.339578
Br28  Br    Br    0.975368 0.197928 0.571707 -0.339596
Br29  Br    Br    0.802071 0.024500 0.428260 -0.339702
Br30  Br    Br    0.975361 0.802070 0.428293 -0.339982
Br31  Br    Br    0.197929 0.975517 0.428256 -0.339699
Br32  Br    Br    0.024637 0.197930 0.428292 -0.339978

loop_
_geom_bond_atom_site_label_1
_geom_bond_atom_site_label_2
_ccdc_geom_bond_type
O20   Zn4   S    
C188  N44   T    
C7    C55   S    
C8    C56   S    
C74   O18   A    
C9    C143  A    
C89   C125  A    
O46   Zn12  S    
C70   O42   A    
C13   C139  A    
C59   C66   S    
C108  C188  S    
C98   C114  A    
C178  N34   T    
C10   Br6   S    
C119  C130  S    
O40   Zn10  S    
C148  C160  A    
C117  C132  S    
C118  C131  S    
C104  C116  A    
C180  N36   T    
C67   O35   A    
O8    Zn2   S    
C147  Br27  S    
O11   Zn7   S    
C138  C154  A    
C165  N21   T    
C106  C118  A    
C82   C98   A    
C17   C151  A    
C6    C54   S    
C41   C49   T    
O22   Zn4   S    
C139  Br19  S    
C140  Br20  S    
C112  C192  S    
C100  C180  S    
C106  C186  S    
C84   C100  A    
C149  Br29  S    
C174  N30   T    
C25   C41   S    
C112  C120  A    
C116  C133  S    
O5    Zn1   S    
C28   C44   S    
C29   C45   S    
O28   Zn8   S    
C24   C32   A    
C65   O37   A    
C145  C157  A    
C36   C156  S    
C11   C27   A    
C16   Br4   S    
C90   C126  A    
C134  N5    A    
C137  C153  A    
N4    N13   A    
C14   Br2   S    
C14   C26   A    
C140  C156  A    
C87   C103  A    
N8    N9    A    
C73   C121  S    
O45   Zn12  S    
C76   O24   A    
C101  C115  A    
C77   C125  S    
C79   C127  S    
C152  Br32  S    
C91   C125  A    
O10   Zn6   S    
C115  C134  S    
C98   C178  S    
C20   Br16  S    
C6    O10   A    
O19   Zn3   S    
O17   Zn1   S    
C133  N6    A    
C109  C189  S    
C8    O16   A    
C79   O31   A    
C12   Br8   S    
C85   C123  A    
C69   O45   A    
C105  C185  S    
C143  C153  A    
O15   Zn7   S    
C34   C58   T    
C18   C150  A    
C82   C122  A    
C38   C62   T    
C80   O30   A    
C86   C166  S    
O29   Zn5   S    
C102  C182  S    
C88   C124  A    
O41   Zn11  S    
C1    O7    A    
C21   C31   A    
C167  N23   T    
C17   Br15  S    
C23   C29   A    
C7    O11   A    
C35   C155  S    
O42   Zn11  S    
C104  C184  S    
C173  N29   T    
C33   C153  S    
C15   C25   A    
C111  C119  A    
C163  N19   T    
O34   Zn9   S    
C37   C157  S    
C148  Br28  S    
C2    C50   S    
C92   C108  A    
C22   C146  A    
C60   C67   S    
C145  Br25  S    
C66   O34   A    
C44   C52   T    
O25   Zn5   S    
C45   C53   T    
C161  N17   T    
C85   C165  S    
C16   C140  A    
C137  Br17  S    
C88   C104  A    
C72   O44   A    
C120  C129  S    
C76   C124  S    
O43   Zn11  S    
C100  C114  A    
C5    O15   A    
C133  N8    A    
N1    N16   A    
N2    N15   A    
C80   C128  S    
C79   O29   A    
C4    O8    A    
O35   Zn9   S    
C144  C156  A    
C189  N45   T    
C27   C43   S    
C58   C65   S    
C139  C155  A    
C82   C162  S    
C187  N43   T    
O24   Zn2   S    
C142  C154  A    
C11   C141  A    
C138  Br18  S    
C42   C50   T    
C80   O32   A    
C86   C124  A    
C57   C68   S    
C86   C102  A    
C92   C172  S    
C26   C42   S    
C20   C32   A    
C87   C167  S    
C22   C30   A    
C30   C46   S    
C77   O25   A    
C176  N32   T    
C146  C158  A    
C75   O23   A    
C130  N15   A    
C143  Br23  S    
C87   C123  A    
O6    Zn4   S    
C19   C149  A    
C81   C161  S    
C66   O40   A    
O47   Zn12  S    
C150  Br30  S    
O1    Zn1   S    
C89   C105  A    
C184  N40   T    
C31   C47   S    
C2    O2    A    
C15   C137  A    
C172  N28   T    
C93   C109  A    
C68   O36   A    
C11   Br5   S    
C73   O17   A    
C17   C29   A    
O44   Zn11  S    
C162  N18   T    
C5    O9    A    
C19   C31   A    
C9    C25   A    
C168  N24   T    
C8    O12   A    
O16   Zn6   S    
C12   C28   A    
C69   O41   A    
C135  N4    A    
C151  C157  A    
C101  C181  S    
C95   C175  S    
C15   Br1   S    
C164  N20   T    
C71   O43   A    
C96   C128  A    
C35   C59   T    
C10   C142  A    
C64   C71   S    
C14   C138  A    
C70   O48   A    
C182  N38   T    
C24   Br12  S    
C68   O38   A    
C75   O21   A    
C94   C174  S    
C147  C159  A    
C141  Br21  S    
C177  N33   T    
C32   C48   S    
C105  C117  A    
O38   Zn10  S    
O39   Zn10  S    
C4    O4    A    
C77   O27   A    
C18   Br14  S    
C136  N1    A    
C34   C154  S    
C130  N13   A    
C131  N12   A    
O30   Zn8   S    
C90   C106  A    
C190  N46   T    
C3    C51   S    
C141  C155  A    
O4    Zn4   S    
C20   C152  A    
C62   C69   S    
C83   C99   A    
C103  C115  A    
C192  N48   T    
C185  N41   T    
C91   C171  S    
C91   C107  A    
C96   C112  A    
C186  N42   T    
C46   C54   T    
C3    O5    A    
C38   C158  S    
C88   C168  S    
C61   C72   S    
C74   C122  S    
C73   O19   A    
C129  N14   A    
C132  N9    A    
O7    Zn3   S    
O37   Zn10  S    
C78   C126  S    
C109  C119  A    
C150  C158  A    
C39   C159  S    
C40   C160  S    
C92   C126  A    
C99   C113  A    
C94   C128  A    
O9    Zn5   S    
C83   C163  S    
O18   Zn2   S    
O48   Zn12  S    
C76   O22   A    
O27   Zn7   S    
C43   C51   T    
C169  N25   T    
C94   C110  A    
C84   C164  S    
O13   Zn5   S    
C95   C127  A    
C81   C121  A    
C21   Br11  S    
C7    O13   A    
O12   Zn8   S    
O23   Zn3   S    
C107  C117  A    
C151  Br31  S    
C136  N3    A    
O21   Zn1   S    
C16   C28   A    
C90   C170  S    
C152  C160  A    
C131  N10   A    
C191  N47   T    
C67   O39   A    
C97   C177  S    
O36   Zn9   S    
C99   C179  S    
C23   C145  A    
C4    C52   S    
C75   C123  S    
C21   C147  A    
C5    C53   S    
C78   O28   A    
C171  N27   T    
C84   C122  A    
C2    O6    A    
C3    O3    A    
C1    O1    A    
C111  C191  S    
C113  C136  S    
C146  Br26  S    
C114  C135  S    
C129  N16   A    
C18   C30   A    
C132  N11   A    
C175  N31   T    
C65   O33   A    
O26   Zn6   S    
C10   C26   A    
C96   C176  S    
N6    N11   A    
C89   C169  S    
O3    Zn3   S    
N7    N10   A    
C93   C173  S    
C74   O20   A    
C71   O47   A    
C108  C118  A    
C24   C148  A    
C110  C120  A    
C183  N39   T    
C12   C144  A    
C93   C127  A    
C144  Br24  S    
C9    Br7   S    
C63   C70   S    
C72   O46   A    
C6    O14   A    
C179  N35   T    
C22   Br10  S    
C83   C121  A    
C149  C159  A    
C135  N2    A    
C97   C113  A    
C170  N26   T    
C85   C101  A    
C47   C55   T    
C48   C56   T    
C33   C57   T    
C78   O26   A    
C36   C60   T    
C37   C61   T    
C166  N22   T    
C19   Br13  S    
C39   C63   T    
C110  C190  S    
C40   C64   T    
C142  Br22  S    
C95   C111  A    
O31   Zn7   S    
C81   C97   A    
N5    N12   A    
C23   Br9   S    
O14   Zn8   S    
O33   Zn9   S    
O2    Zn2   S    
C102  C116  A    
C13   Br3   S    
C134  N7    A    
C13   C27   A    
C181  N37   T    
N3    N14   A    
C1    C49   S    
C103  C183  S    
C107  C187  S    
O32   Zn6   S    
