data_mof_unit_60005.cif
_audit_creation_date              2013-03-05T16:42:57-0500
_audit_creation_method            fapswitch 2.2
_symmetry_space_group_name_H-M    P1
_symmetry_Int_Tables_number       1
_space_group_crystal_system       triclinic
_cell_length_a                    17.724418
_cell_length_b                    16.431759
_cell_length_c                    27.792564
_cell_angle_alpha                 89.752624
_cell_angle_beta                  90.318136
_cell_angle_gamma                 89.948523
_cell_volume                      8094.19619794

loop_
_atom_site_label
_atom_site_type_symbol
_atom_site_description
_atom_site_fract_x
_atom_site_fract_y
_atom_site_fract_z
_atom_type_partial_charge
O1    O     O_R   0.391260 0.567930 0.500000 -0.591678
O2    O     O_R   0.608740 0.432070 0.500000 -0.591633
O3    O     O_R   0.608740 0.567930 0.500000 -0.580983
O4    O     O_R   0.391260 0.432070 0.500000 -0.581174
C1    C     C_R   0.355214 0.500022 0.500035 0.804287
C2    C     C_R   0.644786 0.499978 0.499958 0.805211
O5    O     O_R   0.500010 0.567900 0.430260 -0.561302
O6    O     O_R   0.499990 0.432100 0.569740 -0.561051
O7    O     O_R   0.499990 0.567900 0.569740 -0.587810
O8    O     O_R   0.500010 0.432100 0.430260 -0.587310
C3    C     C_R   0.502252 0.500242 0.407382 0.846854
C4    C     C_R   0.497700 0.499751 0.592636 0.846706
Cu1   Cu    Cu3+1 0.500000 0.580420 0.500000 0.965666
Cu2   Cu    Cu3+1 0.500000 0.419580 0.500000 0.965992
C5    C     C_R   0.451205 0.547205 0.178305 0.568209
C6    C     C_R   0.552701 0.459038 0.821846 0.566800
O9    O     O_2   0.404033 0.595484 0.203316 -0.526347
O10   O     O_2   0.603707 0.415393 0.796920 -0.527056
N1    N     N_R   0.500640 0.497451 0.202283 -0.457097
N2    N     N_R   0.499338 0.503685 0.797785 -0.457078
C7    C     C_R   0.548593 0.447031 0.178174 0.568562
C8    C     C_R   0.447367 0.549373 0.821809 0.570049
C9    C     C_R   0.549968 0.554608 0.278080 0.181670
C10   C     C_R   0.451975 0.444138 0.722136 0.181164
C11   C     C_R   0.551411 0.555375 0.328838 0.092665
C12   C     C_R   0.450329 0.443166 0.671377 0.093387
C13   C     C_R   0.459505 0.444959 0.329650 -0.248757
C14   C     C_R   0.538933 0.556687 0.670296 -0.248193
C15   C     C_R   0.458525 0.444340 0.279671 -0.133390
C16   C     C_R   0.539902 0.557655 0.720269 -0.133746
C17   C     C_R   0.503010 0.499069 0.253814 0.279217
C18   C     C_R   0.497111 0.501559 0.746259 0.279446
C19   C     C_R   0.499432 0.498194 0.102060 -0.041262
C20   C     C_R   0.500476 0.503454 0.898007 -0.041242
C21   C     C_R   0.449771 0.548619 0.127796 -0.024844
C22   C     C_R   0.554154 0.457920 0.872357 -0.024644
C23   C     C_R   0.400509 0.599961 0.102737 -0.135279
C24   C     C_R   0.607902 0.412251 0.897508 -0.135919
C25   C     C_R   0.549035 0.446618 0.127663 -0.026021
C26   C     C_R   0.446861 0.549980 0.872318 -0.026204
C27   C     C_R   0.504740 0.500704 0.354600 -0.116331
C28   C     C_R   0.495301 0.499322 0.645454 -0.117446
H1    H     H_    0.423905 0.402511 0.348974 0.159058
H2    H     H_    0.573258 0.600253 0.650897 0.159930
H3    H     H_    0.422788 0.401420 0.260843 0.153400
H4    H     H_    0.574300 0.601950 0.738989 0.153419
C29   C     C_R   0.446681 0.549981 0.974468 0.042147
C30   C     C_R   0.551460 0.449643 0.025563 0.042639
C31   C     C_R   0.553656 0.453359 0.974458 0.042775
C32   C     C_R   0.448019 0.550642 0.025647 0.042277
C33   C     C_R   0.500302 0.502307 0.949197 0.072268
C34   C     C_R   0.499604 0.499464 0.050871 0.072262
C35   C     C_R   0.393094 0.595174 0.947383 -0.194887
C36   C     C_R   0.599147 0.397143 0.052517 -0.194771
C37   C     C_R   0.393434 0.595189 0.897424 -0.134228
C38   C     C_R   0.597973 0.395962 0.102465 -0.134907
O11   O     O_2   0.396077 0.593523 0.796842 -0.521617
O12   O     O_2   0.596062 0.398039 0.203054 -0.522390
C39   C     C_R   0.399629 0.601219 0.052779 -0.195139
C40   C     C_R   0.607936 0.410082 0.947457 -0.195013
H5    H     H_    0.348891 0.630500 0.963519 0.143368
H6    H     H_    0.637633 0.354882 0.036235 0.143582
H7    H     H_    0.360845 0.643883 0.036681 0.143293
H8    H     H_    0.652359 0.374549 0.963702 0.143480
C41   C     C_R   0.846285 0.573732 0.498236 -0.142719
C42   C     C_R   0.153710 0.426270 0.501641 -0.143040
C43   C     C_R   0.153547 0.573766 0.498755 -0.143629
C44   C     C_R   0.846453 0.426238 0.501176 -0.143489
H9    H     H_    0.876412 0.631057 0.497083 0.138273
H10   H     H_    0.123580 0.368944 0.502761 0.138271
H11   H     H_    0.123289 0.631082 0.497610 0.137269
H12   H     H_    0.876713 0.368924 0.502331 0.137269
C45   C     C_R   0.767639 0.573820 0.498276 -0.168883
C46   C     C_R   0.232357 0.426180 0.501637 -0.169750
C47   C     C_R   0.232196 0.573878 0.498765 -0.182719
C48   C     C_R   0.767805 0.426125 0.501201 -0.182456
H13   H     H_    0.738195 0.631586 0.497100 0.161198
H14   H     H_    0.261799 0.368412 0.502803 0.161071
H15   H     H_    0.261511 0.631651 0.497594 0.153268
H16   H     H_    0.738492 0.368353 0.502405 0.153258
C49   C     C_R   0.727719 0.499966 0.499805 -0.036200
C50   C     C_R   0.272280 0.500035 0.500156 -0.036485
C51   C     C_R   0.885582 0.499991 0.499727 0.142467
C52   C     C_R   0.114415 0.500012 0.500160 0.142533
C53   C     C_1   0.966171 0.500002 0.499866 -0.048503
C54   C     C_1   0.033827 0.500003 0.500008 -0.048588
C55   C     C_R   0.548241 0.828636 0.530597 -0.259963
C56   C     C_R   0.451775 0.171361 0.469398 -0.259712
C57   C     C_R   0.451944 0.829169 0.469277 -0.255298
C58   C     C_R   0.548018 0.170834 0.530753 -0.254978
H17   H     H_    0.586312 0.860025 0.554816 0.139944
H18   H     H_    0.413722 0.139969 0.445169 0.140011
H19   H     H_    0.413909 0.860981 0.445033 0.142315
H20   H     H_    0.586028 0.139025 0.555014 0.142295
C59   C     C_R   0.547363 0.742778 0.530073 0.092066
C60   C     C_R   0.452657 0.257219 0.469916 0.092548
C61   C     C_R   0.452768 0.743299 0.469842 0.102575
C62   C     C_R   0.547201 0.256704 0.530180 0.103176
H21   H     H_    0.584795 0.709400 0.553883 0.114699
H22   H     H_    0.415245 0.290594 0.446092 0.114850
H23   H     H_    0.415378 0.710328 0.446015 0.124152
H24   H     H_    0.584568 0.289678 0.554020 0.124306
N3    N     N_R   0.500000 0.701220 0.500000 -0.168339
N4    N     N_R   0.500000 0.298780 0.500000 -0.168382
C63   C     C_R   0.500077 0.873062 0.499946 0.141483
C64   C     C_R   0.499910 0.126939 0.500069 0.141397
C65   C     C_1   0.500020 0.962695 0.499987 -0.023860
C66   C     C_1   0.499967 0.037305 0.500031 -0.023770
H25   H     H_    0.362326 0.639972 0.121697 0.189316
H26   H     H_    0.650456 0.377624 0.878632 0.189142
I1    I     I_    0.375270 0.361977 0.634627 -0.283477
I2    I     I_    0.628419 0.633912 0.365949 -0.284102
I3    I     I_    0.387266 0.360358 0.763892 -0.241985
I4    I     I_    0.618108 0.635463 0.236563 -0.241579
H27   H     H_    0.351089 0.630780 0.878501 0.189944
H28   H     H_    0.635944 0.354923 0.121304 0.189772

loop_
_geom_bond_atom_site_label_1
_geom_bond_atom_site_label_2
_geom_bond_distance
_ccdc_geom_bond_type
C56   C60   1.411032 A    
C55   H17   1.083059 S    
C13   C15   1.389141 A    
O3    C2    1.285939 A    
N1    C17   1.432926 S    
C8    O11   1.349687 S    
C53   C54   1.199153 T    
C41   H9    1.083640 S    
C19   C34   1.422762 A    
C5    N1    1.366654 A    
C63   C65   1.472843 S    
C20   C33   1.422760 A    
C19   C25   1.408554 A    
C31   C40   1.416279 A    
C37   H27   1.083550 S    
O1    C1    1.286315 A    
C32   C39   1.416408 A    
C6    N2    1.366566 A    
N1    C7    1.366612 A    
C10   C12   1.411033 A    
C59   H21   1.081767 S    
C41   C51   1.397409 A    
C42   C46   1.393969 A    
C41   C45   1.393964 A    
C45   C49   1.405910 A    
O7    Cu1   1.948258 S    
O5    C3    1.283805 A    
C4    C28   1.468805 S    
C11   I2    2.142720 S    
C10   I3    2.135688 S    
C56   H18   1.083058 S    
C31   C33   1.421440 A    
C55   C59   1.411033 A    
C32   C34   1.421632 A    
C65   C66   1.225971 T    
Cu1   N3    1.984955 S    
C23   H25   1.083549 S    
O3    Cu1   1.938064 S    
O6    C4    1.283967 A    
C29   C35   1.416409 A    
C43   C52   1.397396 A    
C2    C49   1.469962 S    
Cu1   Cu2   2.642886 S    
O4    Cu2   1.938066 S    
O2    C2    1.286312 A    
C35   H5    1.075740 S    
C46   C50   1.405911 A    
C5    C21   1.403955 A    
C59   N3    1.366671 A    
C58   H20   1.083050 S    
C29   C32   1.422544 A    
C35   C37   1.388534 A    
C36   C38   1.388507 A    
C58   C64   1.404596 A    
O8    Cu2   1.948261 S    
C11   C27   1.416427 A    
C29   C33   1.421635 A    
C36   H6    1.075927 S    
C24   H26   1.083538 S    
C62   H24   1.081717 S    
C14   H2    1.083687 S    
C57   C61   1.411076 A    
C9    C17   1.407425 A    
C30   C36   1.416283 A    
C10   C18   1.407346 A    
C56   C64   1.404553 A    
C13   C27   1.401184 A    
Cu2   N4    1.984955 S    
C25   C38   1.395024 A    
C55   C63   1.404552 A    
C30   C34   1.421448 A    
C44   H12   1.083641 S    
C26   C37   1.394986 A    
C8    C26   1.403934 A    
C38   H28   1.083545 S    
C61   N3    1.366609 A    
C23   C39   1.388540 A    
C24   C40   1.388511 A    
C30   C31   1.422132 A    
C51   C53   1.428370 S    
N2    C8    1.366704 A    
C60   N4    1.366667 A    
C20   C26   1.408437 A    
C43   C47   1.393995 A    
C57   C63   1.404597 A    
C22   C24   1.395023 A    
C12   C28   1.416992 A    
N2    C18   1.432936 S    
C5    O9    1.349683 S    
O6    Cu2   1.950025 S    
C21   C23   1.394984 A    
C44   C51   1.397397 A    
C7    C25   1.403941 A    
C16   H4    1.082925 S    
C48   H16   1.083060 S    
C52   C54   1.428371 S    
O4    C1    1.285940 A    
C48   C49   1.405795 A    
C47   C50   1.405803 A    
C44   C48   1.393994 A    
C39   H7    1.075740 S    
C40   H8    1.075933 S    
C14   C16   1.389040 A    
C7    O12   1.349674 S    
C15   C17   1.396010 A    
C6    C22   1.403958 A    
C9    I4    2.135490 S    
C16   C18   1.395791 A    
C1    C50   1.469970 S    
C42   H10   1.083640 S    
C64   C66   1.472842 S    
C62   N4    1.366607 A    
C60   H22   1.081769 S    
C14   C28   1.401511 A    
C19   C21   1.408443 A    
C20   C22   1.408562 A    
C3    C27   1.467847 S    
C43   H11   1.083642 S    
C9    C11   1.410890 A    
C57   H19   1.083050 S    
O2    Cu2   1.938431 S    
O7    C4    1.286372 A    
O8    C3    1.285998 A    
C42   C52   1.397412 A    
C13   H1    1.083703 S    
O5    Cu1   1.950027 S    
O1    Cu1   1.938433 S    
C6    O10   1.349671 S    
C46   H14   1.083091 S    
C15   H3    1.082922 S    
C45   H13   1.083088 S    
C47   H15   1.083061 S    
C12   I1    2.143070 S    
C58   C62   1.411072 A    
C61   H23   1.081718 S    
