data_mof_unit_24551.cif
_audit_creation_date              2012-12-11T17:07:48-0500
_audit_creation_method            fapswitch 2.2
_symmetry_space_group_name_H-M    P1
_symmetry_Int_Tables_number       1
_space_group_crystal_system       triclinic
_cell_length_a                    17.07835
_cell_length_b                    17.148572
_cell_length_c                    17.37558
_cell_angle_alpha                 90.130089
_cell_angle_beta                  90.070397
_cell_angle_gamma                 90.05404
_cell_volume                      5088.75497127

loop_
_atom_site_label
_atom_site_type_symbol
_atom_type_description
_atom_site_fract_x
_atom_site_fract_y
_atom_site_fract_z
_atom_type_partial_charge
C1    C     C_R   0.390924 0.300902 0.904599 -0.150216
C2    C     C_R   0.197948 0.893788 0.397979 -0.166223
C3    C     C_R   0.753240 0.856365 0.208050 0.345538
C4    C     C_R   0.140969 0.248218 0.789932 0.297720
C5    C     C_R   0.321571 0.766162 0.644877 0.393460
C6    C     C_R   0.850284 0.744800 0.783098 0.366394
C7    C     C_R   0.680744 0.233714 0.637046 0.278141
C8    C     C_R   0.639411 0.263940 0.701164 0.397671
C9    C     C_R   0.819305 0.719591 0.854335 0.382826
C10   C     C_R   0.367716 0.717675 0.692114 0.381860
C11   C     C_R   0.173957 0.278351 0.859250 0.348065
C12   C     C_R   0.724371 0.820118 0.140038 0.354448
C13   C     C_R   0.087184 0.177586 0.362037 -0.148938
C14   C     C_R   0.735922 0.360184 0.299173 0.405733
C15   C     C_R   0.279572 0.181980 0.145588 0.367937
C16   C     C_R   0.282317 0.632603 0.308297 0.382907
C17   C     C_3   0.189110 0.630822 0.468545 0.280126
C18   C     C_3   0.121869 0.587137 0.506211 -0.895018
C19   C     C_3   0.352282 0.128942 0.301794 0.216064
C20   C     C_3   0.410489 0.069015 0.331344 -0.951707
C21   C     C_3   0.775859 0.398406 0.466117 0.318081
C22   C     C_3   0.832729 0.445374 0.514811 -0.933886
C23   C     C_3   0.656224 0.867836 0.296826 0.222656
C24   C     C_R   0.800831 0.105779 0.401515 -0.165269
C25   C     C_3   0.597199 0.923686 0.332158 -0.946513
C26   C     C_3   0.134491 0.350463 0.707105 0.249889
C27   C     C_3   0.079339 0.401693 0.660660 -0.961470
C28   C     C_3   0.370508 0.810312 0.532184 0.282632
C29   C     C_3   0.415264 0.876725 0.494600 -0.896150
C30   C     C_3   0.868558 0.648893 0.694869 0.234114
C31   C     C_3   0.928654 0.593127 0.661209 -0.945425
C32   C     C_3   0.599052 0.220487 0.535393 0.315579
C33   C     C_3   0.553326 0.162021 0.487420 -0.931248
C34   C     C_3   0.574598 0.149566 0.737342 0.354295
C35   C     C_R   0.893939 0.198859 0.598172 -0.171183
C36   C     C_3   0.575098 0.131828 0.823285 -1.066333
C37   C     C_3   0.904706 0.616779 0.889600 0.336693
C38   C     C_3   0.992749 0.631711 0.887530 -0.838017
C39   C     C_3   0.492074 0.674193 0.671938 0.288395
C40   C     C_3   0.577979 0.697649 0.675065 -0.899893
C41   C     C_3   0.059684 0.349972 0.892077 0.363475
C42   C     C_3   0.025109 0.394406 0.959891 -1.027519
C43   C     C_3   0.618773 0.903345 0.110454 0.352074
C44   C     C_3   0.560970 0.916331 0.044986 -1.034539
C45   C     C_3   0.849391 0.427882 0.264243 0.338087
C46   C     C_R   0.173538 0.082965 0.641899 -0.166863
C47   C     C_3   0.866860 0.417745 0.178717 -1.071933
C48   C     C_3   0.383997 0.098482 0.113255 0.362832
C49   C     C_3   0.438633 0.086059 0.045123 -1.022309
C50   C     C_3   0.325082 0.508483 0.328346 0.286569
C51   C     C_3   0.300964 0.423090 0.325095 -0.897177
C52   C     C_R   0.106287 0.802463 0.602101 -0.168128
C53   C     C_R   0.822162 0.912834 0.638237 -0.148534
C54   C     C_3   0.864222 0.336627 0.705179 -0.436131
C55   C     C_3   0.749638 0.928692 0.814394 -0.495719
C56   C     C_3   0.135845 0.671075 0.717115 -0.411820
C57   C     C_R   0.671481 0.420051 0.857257 -0.172705
C58   C     C_3   0.302772 0.099999 0.768034 -0.464988
C59   C     C_3   0.896804 0.691743 0.240477 -0.471554
C60   C     C_3   0.662279 0.136210 0.294300 -0.433320
C61   C     C_3   0.071561 0.255173 0.190158 -0.479890
C62   C     C_3   0.331365 0.863280 0.284402 -0.406870
C63   C     C_3   0.382345 0.814823 0.232605 -0.474733
C64   C     C_3   0.108642 0.297118 0.123516 -0.407757
C65   C     C_3   0.617385 0.184472 0.237304 -0.470481
C66   C     C_3   0.854296 0.645367 0.179891 -0.497092
C67   C     C_3   0.348552 0.143941 0.828047 -0.487632
C68   C     C_R   0.607444 0.699017 0.902217 -0.126001
C69   C     C_3   0.184208 0.619888 0.768678 -0.470837
C70   C     C_3   0.709315 0.892203 0.882400 -0.357667
C71   C     C_3   0.815988 0.382197 0.761815 -0.485789
C72   C     C_R   0.420284 0.671172 0.856441 -0.123563
C73   C     C_R   0.300865 0.393061 0.900987 -0.150640
C74   C     C_R   0.579574 0.327134 0.858045 -0.120860
C75   C     C_R   0.698976 0.607713 0.901857 -0.149209
C76   C     C_R   0.392198 0.301743 0.098576 -0.158165
C77   C     C_R   0.328913 0.579647 0.143806 -0.124404
C78   C     C_R   0.608640 0.698142 0.099015 -0.159089
C79   C     C_R   0.331210 0.575611 0.855598 -0.160099
C80   C     C_R   0.672794 0.420477 0.142171 -0.121081
C81   C     C_R   0.891976 0.197776 0.398525 -0.130391
C82   C     C_R   0.825821 0.919461 0.358919 -0.134104
C83   C     C_R   0.106098 0.802445 0.395549 -0.134791
C84   C     C_R   0.177055 0.082272 0.361536 -0.133885
C85   C     C_R   0.917503 0.823088 0.638396 -0.135813
C86   C     C_R   0.801874 0.107823 0.601511 -0.132126
C87   C     C_R   0.080487 0.174571 0.640492 -0.118975
C88   C     C_R   0.197815 0.894153 0.604659 -0.135356
C89   C     C_R   0.312109 0.313821 0.891348 0.151073
C90   C     C_R   0.424580 0.668671 0.144364 -0.157694
C91   C     C_R   0.641364 0.357161 0.815606 0.164544
C92   C     C_R   0.686216 0.686487 0.891174 0.089490
C93   C     C_R   0.361571 0.636135 0.812585 0.148433
C94   C     C_R   0.364050 0.638329 0.187603 0.147974
C95   C     C_R   0.687908 0.684969 0.109484 0.133919
C96   C     C_R   0.642778 0.358699 0.184395 0.162764
C97   C     C_R   0.313250 0.314708 0.109332 0.102515
C98   C     C_R   0.853462 0.855895 0.317342 0.148370
C99   C     C_R   0.184242 0.816491 0.380041 0.164894
C100  C     C_R   0.151460 0.147325 0.321871 0.145031
C101  C     C_R   0.699770 0.606931 0.096234 -0.143098
C102  C     C_R   0.812995 0.183181 0.386489 0.173186
C103  C     C_R   0.816352 0.186613 0.613327 0.175913
C104  C     C_R   0.143349 0.146696 0.682961 0.153621
C105  C     C_R   0.183705 0.816311 0.620296 0.165256
C106  C     C_R   0.852194 0.848503 0.678288 0.145417
C107  C     C_R   0.744457 0.358386 0.716922 0.087265
C108  C     C_R   0.715522 0.814731 0.842735 0.050068
C109  C     C_R   0.253489 0.639213 0.718970 0.104419
C110  C     C_R   0.272644 0.178815 0.853829 0.154089
C111  C     C_R   0.822635 0.721110 0.150904 0.153143
C112  C     C_R   0.579916 0.328596 0.142587 -0.168755
C113  C     C_R   0.641305 0.255542 0.282453 0.079548
C114  C     C_R   0.186404 0.286762 0.161675 0.059644
C115  C     C_R   0.361989 0.745760 0.281808 0.106818
C116  C     C_R   0.315406 0.790343 0.328776 0.068508
C117  C     C_R   0.152138 0.247255 0.222081 0.106614
C118  C     C_R   0.681577 0.210876 0.334754 0.088181
C119  C     C_R   0.860711 0.763851 0.206971 0.108678
C120  C     C_R   0.230653 0.139427 0.797844 0.096109
C121  C     C_R   0.209019 0.685949 0.672193 0.070449
C122  C     C_R   0.753993 0.848694 0.781169 0.104455
C123  C     C_R   0.300694 0.393054 0.098026 -0.134651
C124  C     C_R   0.789111 0.317725 0.664765 0.094030
C125  C     C_R   0.672972 0.327633 0.742797 -0.167127
C126  C     C_R   0.744700 0.746337 0.875133 -0.080125
C127  C     C_R   0.329982 0.661026 0.738457 -0.223639
C128  C     C_R   0.251408 0.254577 0.875796 -0.115937
C129  C     C_R   0.748372 0.743402 0.125344 -0.111262
C130  C     C_R   0.672329 0.326832 0.257024 -0.166832
C131  C     C_R   0.253421 0.257056 0.126986 -0.083058
C132  C     C_R   0.339402 0.669829 0.261938 -0.223799
C133  C     C_R   0.245132 0.760891 0.357527 -0.228426
C134  C     C_R   0.917031 0.826023 0.358718 -0.158272
C135  C     C_R   0.186428 0.180357 0.252441 -0.170512
C136  C     C_R   0.751182 0.238161 0.367040 -0.147470
C137  C     C_R   0.822793 0.826410 0.243370 -0.179159
C138  C     C_R   0.170380 0.177257 0.757962 -0.157806
C139  C     C_R   0.239155 0.755612 0.643232 -0.227819
C140  C     C_R   0.819320 0.813324 0.748068 -0.180693
C141  C     C_R   0.761342 0.248364 0.632684 -0.148819
C142  C     C_R   0.234020 0.678833 0.355753 0.393186
C143  C     C_R   0.254352 0.149283 0.216027 0.348960
C144  C     C_R   0.766109 0.318436 0.362977 0.280831
H1    H     H_    0.417963 0.245348 0.916192 0.106003
H2    H     H_    0.254485 0.920980 0.405814 0.107761
H3    H     H_    0.636320 0.255895 0.496231 0.074397
H4    H     H_    0.556027 0.259358 0.564688 0.098442
H5    H     H_    0.510874 0.130295 0.524274 0.255753
H6    H     H_    0.521003 0.193267 0.441415 0.207457
H7    H     H_    0.593927 0.119256 0.460919 0.257316
H8    H     H_    0.627341 0.120865 0.712794 0.112016
H9    H     H_    0.522959 0.120367 0.711111 0.131141
H10   H     H_    0.625017 0.161973 0.851583 0.267774
H11   H     H_    0.519394 0.150239 0.850376 0.258729
H12   H     H_    0.581780 0.068047 0.832168 0.243173
H13   H     H_    0.053016 0.228712 0.348550 0.106745
H14   H     H_    0.883443 0.589968 0.835547 0.075420
H15   H     H_    0.894292 0.571855 0.934401 0.079292
H16   H     H_    0.014165 0.646078 0.946253 0.236765
H17   H     H_    0.023487 0.578614 0.866833 0.201163
H18   H     H_    0.007134 0.680987 0.848897 0.285945
H19   H     H_    0.476663 0.661222 0.610884 0.056037
H20   H     H_    0.484566 0.620430 0.706916 0.091742
H21   H     H_    0.587940 0.750186 0.639096 0.259887
H22   H     H_    0.595353 0.710824 0.735284 0.253895
H23   H     H_    0.614970 0.649287 0.653063 0.198041
H24   H     H_    0.744903 0.077798 0.410822 0.110408
H25   H     H_    0.027473 0.293711 0.886261 0.107195
H26   H     H_    0.049787 0.387404 0.841002 0.148283
H27   H     H_    0.014794 0.354321 0.008615 0.259239
H28   H     H_    0.064746 0.442501 0.977966 0.276812
H29   H     H_    0.967677 0.419701 0.943219 0.221980
H30   H     H_    0.640152 0.961101 0.130686 0.155702
H31   H     H_    0.586029 0.873174 0.156685 0.081535
H32   H     H_    0.583104 0.962258 0.005659 0.264111
H33   H     H_    0.552007 0.861724 0.011661 0.269440
H34   H     H_    0.503502 0.934167 0.068840 0.234705
H35   H     H_    0.921827 0.254572 0.588393 0.113123
H36   H     H_    0.880827 0.380632 0.294949 0.123386
H37   H     H_    0.876444 0.483408 0.283813 0.131052
H38   H     H_    0.835751 0.365789 0.155720 0.270409
H39   H     H_    0.849391 0.470466 0.146136 0.255839
H40   H     H_    0.930763 0.409180 0.170410 0.244530
H41   H     H_    0.366322 0.040431 0.135637 0.155693
H42   H     H_    0.417725 0.130942 0.157547 0.067397
H43   H     H_    0.415071 0.039859 0.006629 0.267777
H44   H     H_    0.445183 0.140576 0.011475 0.264142
H45   H     H_    0.497486 0.069127 0.066226 0.232673
H46   H     H_    0.219757 0.043967 0.658452 0.115485
H47   H     H_    0.338095 0.523733 0.389436 0.056573
H48   H     H_    0.379178 0.515616 0.293407 0.091878
H49   H     H_    0.248195 0.413470 0.361179 0.259777
H50   H     H_    0.287532 0.405949 0.264864 0.253883
H51   H     H_    0.349324 0.385912 0.346896 0.198153
H52   H     H_    0.079107 0.746106 0.594202 0.108152
H53   H     H_    0.771025 0.947056 0.652187 0.107216
H54   H     H_    0.892879 0.285078 0.731804 0.204599
H55   H     H_    0.808168 0.953443 0.828445 0.203205
H56   H     H_    0.113115 0.723912 0.746826 0.206258
H57   H     H_    0.716539 0.460495 0.840469 0.108925
H58   H     H_    0.301870 0.035989 0.778081 0.203304
H59   H     H_    0.961471 0.690458 0.233164 0.203958
H60   H     H_    0.713954 0.107029 0.268126 0.209316
H61   H     H_    0.044931 0.198226 0.173984 0.201544
H62   H     H_    0.278764 0.886855 0.254694 0.210851
H63   H     H_    0.445358 0.830810 0.236792 0.177469
H64   H     H_    0.092119 0.359724 0.120701 0.190816
H65   H     H_    0.553226 0.173507 0.239925 0.180724
H66   H     H_    0.809361 0.606601 0.205845 0.204927
H67   H     H_    0.389143 0.186401 0.800883 0.201078
H68   H     H_    0.579310 0.755172 0.908362 0.109468
H69   H     H_    0.167379 0.557323 0.764702 0.180931
H70   H     H_    0.647403 0.911063 0.888430 0.186309
H71   H     H_    0.827345 0.446008 0.758662 0.179146
H72   H     H_    0.903346 0.374320 0.670432 0.192427
H73   H     H_    0.710589 0.967625 0.780641 0.186730
H74   H     H_    0.091859 0.637621 0.683747 0.193593
H75   H     H_    0.319077 0.118177 0.708753 0.190047
H76   H     H_    0.875547 0.678179 0.299463 0.190223
H77   H     H_    0.623615 0.097990 0.328882 0.189941
H78   H     H_    0.033907 0.293774 0.225833 0.185463
H79   H     H_    0.287343 0.534024 0.838230 0.110445
H80   H     H_    0.365407 0.906293 0.318270 0.189850
H81   H     H_    0.358686 0.811018 0.173045 0.201684
H82   H     H_    0.104185 0.264636 0.068162 0.212876
H83   H     H_    0.643226 0.182249 0.178594 0.197238
H84   H     H_    0.894304 0.617073 0.137860 0.203715
H85   H     H_    0.374905 0.105355 0.872347 0.209945
H86   H     H_    0.188665 0.643546 0.828182 0.203535
H87   H     H_    0.744290 0.895281 0.936384 0.227535
H88   H     H_    0.818107 0.357029 0.820742 0.194937
H89   H     H_    0.456579 0.720385 0.841519 0.157086
H90   H     H_    0.466531 0.712314 0.161458 0.110821
H91   H     H_    0.246082 0.423797 0.904875 0.160518
H92   H     H_    0.538847 0.282093 0.843317 0.178170
H93   H     H_    0.754680 0.579009 0.907376 0.095521
H94   H     H_    0.421354 0.246713 0.093673 0.129248
H95   H     H_    0.279722 0.543305 0.158975 0.157018
H96   H     H_    0.579873 0.753508 0.094558 0.133188
H97   H     H_    0.717771 0.461117 0.157401 0.176446
H98   H     H_    0.920520 0.253940 0.400832 0.145555
H99   H     H_    0.780853 0.960459 0.344029 0.171365
H100  H     H_    0.076870 0.746758 0.397867 0.154693
H101  H     H_    0.755281 0.579070 0.084974 0.105242
H102  H     H_    0.223591 0.042472 0.348227 0.171715
H103  H     H_    0.957536 0.776853 0.651669 0.171083
H104  H     H_    0.745595 0.079178 0.599399 0.147077
H105  H     H_    0.038930 0.219171 0.654549 0.173355
H106  H     H_    0.253736 0.923306 0.602547 0.154792
H107  H     H_    0.197612 0.687108 0.499376 0.076977
H108  H     H_    0.243016 0.594713 0.474372 0.069614
H109  H     H_    0.110965 0.531356 0.475381 0.268988
H110  H     H_    0.136881 0.573987 0.566878 0.205871
H111  H     H_    0.067878 0.623154 0.504715 0.238757
H112  H     H_    0.539413 0.283584 0.159152 0.111393
H113  H     H_    0.321109 0.154584 0.352005 0.113485
H114  H     H_    0.385768 0.176730 0.273491 0.066902
H115  H     H_    0.435687 0.035488 0.282562 0.256418
H116  H     H_    0.458833 0.098635 0.362317 0.233820
H117  H     H_    0.380847 0.028727 0.371818 0.246155
H118  H     H_    0.741003 0.360051 0.504684 0.074429
H119  H     H_    0.735846 0.440302 0.436825 0.097189
H120  H     H_    0.862826 0.489507 0.478661 0.254934
H121  H     H_    0.800160 0.475455 0.561475 0.207619
H122  H     H_    0.877320 0.406241 0.540465 0.260010
H123  H     H_    0.244355 0.421213 0.092004 0.116051
H124  H     H_    0.690050 0.840491 0.344338 0.113173
H125  H     H_    0.623421 0.820411 0.266985 0.067434
H126  H     H_    0.565033 0.955182 0.286179 0.255215
H127  H     H_    0.554574 0.890620 0.367533 0.226043
H128  H     H_    0.627842 0.966313 0.369756 0.247687
H129  H     H_    0.175818 0.321571 0.666494 0.105691
H130  H     H_    0.168231 0.388901 0.746949 0.098372
H131  H     H_    0.038269 0.432539 0.699719 0.253381
H132  H     H_    0.113661 0.445610 0.628191 0.227023
H133  H     H_    0.045414 0.365605 0.619226 0.253421
H134  H     H_    0.955856 0.779436 0.342975 0.114728
H135  H     H_    0.314134 0.802236 0.501056 0.076762
H136  H     H_    0.406325 0.756293 0.526668 0.069035
H137  H     H_    0.470813 0.887656 0.526150 0.268918
H138  H     H_    0.429425 0.861072 0.434283 0.205281
H139  H     H_    0.379309 0.930656 0.495060 0.238495
H140  H     H_    0.840849 0.681505 0.646724 0.106546
H141  H     H_    0.822094 0.613783 0.723609 0.063481
H142  H     H_    0.961973 0.564250 0.708074 0.261379
H143  H     H_    0.898885 0.547713 0.626532 0.232435
H144  H     H_    0.969560 0.625486 0.623344 0.243799
N1    N     N_R   0.425360 0.368540 0.922560 -0.043069
N2    N     N_R   0.131460 0.925360 0.422560 -0.040731
N3    N     N_R   0.074640 0.131460 0.422560 -0.043864
N4    N     N_R   0.868540 0.074640 0.422560 -0.042618
N5    N     N_R   0.925360 0.131460 0.577440 -0.043898
N6    N     N_R   0.131460 0.074640 0.577440 -0.043979
N7    N     N_R   0.074640 0.868540 0.577440 -0.040805
N8    N     N_R   0.868540 0.925360 0.577440 -0.044300
N9    N     N_R   0.425340 0.631500 0.922560 -0.052407
N10   N     N_R   0.368500 0.425340 0.922560 -0.047406
N11   N     N_R   0.574660 0.368500 0.922560 -0.054070
N12   N     N_R   0.631460 0.425360 0.922560 -0.043071
N13   N     N_R   0.631500 0.574660 0.922560 -0.038891
N14   N     N_R   0.425340 0.368500 0.077440 -0.040509
N15   N     N_R   0.368500 0.574660 0.077440 -0.052356
N16   N     N_R   0.574660 0.631500 0.077440 -0.042712
N17   N     N_R   0.631500 0.425340 0.077440 -0.054707
N18   N     N_R   0.925340 0.131500 0.422560 -0.046176
N19   N     N_R   0.868500 0.925340 0.422560 -0.052409
N20   N     N_R   0.074660 0.868500 0.422560 -0.046499
N21   N     N_R   0.131500 0.074660 0.422560 -0.052628
N22   N     N_R   0.925340 0.868500 0.577440 -0.052425
N23   N     N_R   0.574640 0.631460 0.922560 -0.042781
N24   N     N_R   0.868500 0.074660 0.577440 -0.046599
N25   N     N_R   0.074660 0.131500 0.577440 -0.054603
N26   N     N_R   0.131500 0.925340 0.577440 -0.046663
N27   N     N_R   0.368540 0.574640 0.922560 -0.044145
N28   N     N_R   0.425360 0.631460 0.077440 -0.043907
N29   N     N_R   0.631460 0.574640 0.077440 -0.042370
N30   N     N_R   0.574640 0.368540 0.077440 -0.042662
N31   N     N_R   0.368540 0.425360 0.077440 -0.042266
N32   N     N_R   0.925360 0.868540 0.422560 -0.044114
Ni1   Ni    Ni4+2 0.500000 0.369720 0.000000 0.207933
Ni2   Ni    Ni4+2 0.630280 0.500000 0.000000 0.206411
Ni3   Ni    Ni4+2 0.500000 0.630280 0.000000 0.210718
Ni4   Ni    Ni4+2 0.369720 0.500000 0.000000 0.213730
Ni5   Ni    Ni4+2 0.000000 0.869720 0.500000 0.205286
Ni6   Ni    Ni4+2 0.130280 0.000000 0.500000 0.205965
Ni7   Ni    Ni4+2 0.000000 0.130280 0.500000 0.212795
Ni8   Ni    Ni4+2 0.869720 0.000000 0.500000 0.212985
O1    O     O_3   0.170530 0.643932 0.390586 -0.601442
O2    O     O_3   0.864146 0.684953 0.912187 -0.625714
O3    O     O_3   0.446131 0.735903 0.701209 -0.599916
O4    O     O_3   0.141195 0.338931 0.902947 -0.654882
O5    O     O_3   0.681448 0.857807 0.082756 -0.634553
O6    O     O_3   0.767253 0.432207 0.278837 -0.653982
O7    O     O_3   0.317730 0.140204 0.087753 -0.620264
O8    O     O_3   0.263479 0.554649 0.299081 -0.600079
O9    O     O_3   0.298952 0.092166 0.250530 -0.654322
O10   O     O_3   0.818538 0.352886 0.413153 -0.645949
O11   O     O_3   0.706183 0.909410 0.245963 -0.657296
O12   O     O_3   0.090288 0.294459 0.748194 -0.665498
O13   O     O_3   0.356917 0.829200 0.610019 -0.601228
O14   O     O_3   0.906523 0.700256 0.747041 -0.644174
O15   O     O_3   0.646180 0.179875 0.588509 -0.645776
O16   O     O_3   0.568263 0.231330 0.723239 -0.654031

loop_
_geom_bond_atom_site_label_1
_geom_bond_atom_site_label_2
_ccdc_geom_bond_type
C82   N19   A    
C31   H144  S    
C52   H52   S    
C57   N12   A    
C80   N17   A    
C76   N14   A    
C75   N13   A    
C77   N15   A    
C34   O16   S    
C54   H72   S    
C59   C66   S    
C114  C131  A    
N20   Ni5   S    
N15   N28   A    
C43   H31   S    
C53   C106  A    
C21   H119  S    
C55   H55   S    
C19   C20   S    
C22   H120  S    
C86   H104  S    
C67   H67   S    
N8    Ni8   S    
N2    Ni6   S    
C6    O14   S    
C100  C135  S    
C63   C115  S    
C21   C22   S    
C12   O5    S    
C82   C98   A    
C107  C124  A    
N21   Ni6   S    
C56   H74   S    
C28   H136  S    
C45   C47   S    
C14   C144  A    
C123  N31   A    
C70   H70   S    
C21   O10   S    
C97   C131  S    
C27   H133  S    
C116  C133  A    
C41   H25   S    
C83   H100  S    
C94   C132  S    
C81   H98   S    
C78   N16   A    
C43   C44   S    
C37   C38   S    
C22   H122  S    
N11   Ni1   S    
C1    N1    A    
C50   H47   S    
C23   O11   S    
C48   O7    S    
C35   N5    A    
C60   C65   S    
C51   H49   S    
C31   H142  S    
C120  C138  A    
N19   Ni8   S    
C117  C135  A    
C118  C136  A    
C27   H131  S    
C14   C130  A    
C34   H9    S    
C91   C125  S    
N30   Ni1   S    
C65   C113  S    
C7    O15   S    
C19   H113  S    
N23   Ni3   S    
C85   N22   A    
C17   H108  S    
N2    N20   A    
C53   H53   S    
C33   H5    S    
C109  C121  A    
N16   N29   A    
C49   H44   S    
C68   C92   A    
C58   C67   S    
C67   H85   S    
C51   H51   S    
C108  C126  A    
C39   H20   S    
C62   H62   S    
C36   H11   S    
C110  C128  A    
C56   H56   S    
C121  C139  A    
N12   Ni2   S    
C60   H77   S    
C6    C9    A    
N1    Ni1   S    
C7    C8    A    
C63   H81   S    
C32   H3    S    
C18   H110  S    
C48   H42   S    
C133  C142  A    
C112  N30   A    
C115  C116  A    
C77   C94   A    
C80   H97   S    
C65   H83   S    
C111  C119  A    
C70   H87   S    
N5    N24   A    
N29   Ni2   S    
C60   H60   S    
C29   H138  S    
N24   Ni8   S    
C30   H141  S    
C68   N23   A    
C62   H80   S    
C43   O5    S    
C135  C143  A    
C87   N25   A    
N10   Ni4   S    
C103  C141  S    
C13   H13   S    
C84   N21   A    
C109  C127  A    
C5    C139  A    
C115  C132  A    
C35   H35   S    
C64   C114  S    
C113  C130  A    
C107  C125  A    
N14   Ni1   S    
C33   H7    S    
C44   H34   S    
C39   C40   S    
C34   H8    S    
C4    C138  A    
C37   O2    S    
C59   H59   S    
N27   Ni4   S    
N6    N25   A    
C67   C110  S    
C17   C18   S    
N25   Ni7   S    
C58   H58   S    
C40   H21   S    
C25   H127  S    
C90   N28   A    
C15   C143  A    
C52   C105  A    
C11   O4    S    
N5    Ni7   S    
C124  C141  A    
C85   C106  A    
C68   H68   S    
C7    C141  A    
C77   H95   S    
C87   H105  S    
N17   N30   A    
C31   H143  S    
C44   H32   S    
C2    C99   A    
C26   H129  S    
C79   H79   S    
C45   O6    S    
C30   O14   S    
C37   H15   S    
C122  C140  A    
C48   H41   S    
C97   C123  A    
C70   C108  S    
C88   C105  A    
C83   N20   A    
C71   H71   S    
C82   H99   S    
C34   C36   S    
N16   Ni3   S    
C114  C117  A    
C42   H27   S    
C20   H115  S    
C21   H118  S    
C15   C131  A    
C56   C69   S    
C66   H84   S    
N13   Ni2   S    
C85   H103  S    
C83   C99   A    
C46   N6    A    
C32   O15   S    
C74   H92   S    
C95   C101  A    
C61   H61   S    
C16   O8    S    
C71   C107  S    
N3    N21   A    
C41   C42   S    
C101  H101  S    
C36   H10   S    
C55   H73   S    
C26   C27   S    
C28   C29   S    
C35   C103  A    
C59   H76   S    
C3    O11   S    
C30   C31   S    
C112  H112  S    
C72   H89   S    
C76   H94   S    
C40   H23   S    
C45   H36   S    
C1    H1    S    
C111  C129  A    
C38   H17   S    
C54   C71   S    
C1    C89   A    
C60   C118  S    
C3    C137  A    
C66   C111  S    
C50   H48   S    
C53   N8    A    
N3    Ni7   S    
C63   H63   S    
C72   N9    A    
C79   N27   A    
C90   C94   A    
C101  N29   A    
C14   O6    S    
N17   Ni2   S    
C98   C137  S    
C61   C117  S    
C134  H134  S    
C69   H69   S    
N9    Ni3   S    
C12   C129  A    
C134  N32   A    
C28   O13   S    
N26   Ni6   S    
C76   C97   A    
N7    N26   A    
C46   C104  A    
C17   H107  S    
C84   C100  A    
C74   C91   A    
C61   C64   S    
N11   N12   A    
C62   C63   S    
C25   H128  S    
C20   H117  S    
C105  C139  S    
C64   H64   S    
C106  C140  S    
C49   H43   S    
C78   C95   A    
C88   N26   A    
C50   C51   S    
N7    Ni5   S    
N32   Ni5   S    
C4    C11   A    
N9    N27   A    
C24   N4    A    
C72   C93   A    
C47   H39   S    
C48   C49   S    
N8    N22   A    
C75   H93   S    
C39   H19   S    
N15   Ni4   S    
N4    N18   A    
C36   H12   S    
C28   H135  S    
C96   C130  S    
C54   C124  S    
N31   Ni4   S    
C23   H125  S    
C59   C119  S    
C57   C91   A    
C73   N10   A    
N19   N32   A    
C47   H40   S    
C92   C126  S    
C32   H4    S    
C18   H111  S    
C41   H26   S    
N14   N31   A    
C32   C33   S    
C73   C89   A    
C136  C144  A    
C17   O1    S    
C22   H121  S    
C2    N2    A    
C24   C102  A    
C52   N7    A    
C6    C140  A    
C16   C132  A    
C102  C136  S    
C73   H91   S    
C38   H16   S    
C87   C104  A    
C123  H123  S    
C8    C125  A    
C29   H137  S    
C95   C129  S    
C27   H132  S    
C8    O16   S    
C89   C128  S    
N6    Ni6   S    
C10   O3    S    
C4    O12   S    
N18   Ni7   S    
C19   H114  S    
C64   H82   S    
C86   N24   A    
C96   C112  A    
C99   C133  S    
N1    N10   A    
C84   H102  S    
C24   H24   S    
C79   C93   A    
C33   H6    S    
C43   H30   S    
C49   H45   S    
C9    O2    S    
C23   H124  S    
C90   H90   S    
C26   O12   S    
C3    C12   A    
C61   H78   S    
C69   C109  S    
C51   H50   S    
N28   Ni3   S    
C50   O8    S    
C71   H88   S    
C80   C96   A    
C65   H65   S    
C25   H126  S    
C55   C122  S    
C143  O9    S    
C41   O4    S    
C74   N11   A    
C46   H46   S    
C47   H38   S    
C86   C103  A    
C58   C120  S    
C81   N18   A    
C81   C102  A    
C18   H109  S    
C119  C137  A    
C110  C120  A    
C26   H130  S    
C19   O9    S    
C37   H14   S    
C16   C142  A    
C93   C127  S    
C62   C116  S    
C58   H75   S    
C29   H139  S    
C30   H140  S    
C42   H28   S    
C75   C92   A    
C20   H116  S    
C13   N3    A    
C66   H66   S    
C57   H57   S    
C10   C127  A    
C142  O1    S    
C88   H106  S    
C78   H96   S    
C40   H22   S    
C15   O7    S    
C108  C122  A    
C42   H29   S    
C44   H33   S    
C45   H37   S    
C39   O3    S    
C2    H2    S    
C98   C134  A    
C9    C126  A    
C54   H54   S    
C5    O13   S    
C56   C121  S    
C13   C100  A    
C144  O10   S    
C11   C128  A    
C5    C10   A    
C69   H86   S    
N22   Ni5   S    
C104  C138  S    
C23   C25   S    
C55   C70   S    
C113  C118  A    
C38   H18   S    
N13   N23   A    
N4    Ni8   S    
