data_mof_unit_8474.cif
_audit_creation_date              2012-12-10T20:34:55-0500
_audit_creation_method            fapswitch 2.2
_symmetry_space_group_name_H-M    P1
_symmetry_Int_Tables_number       1
_space_group_crystal_system       triclinic
_cell_length_a                    10.632221
_cell_length_b                    10.667608
_cell_length_c                    9.85507
_cell_angle_alpha                 90.373641
_cell_angle_beta                  90.179115
_cell_angle_gamma                 90.019469
_cell_volume                      1117.73634265

loop_
_atom_site_label
_atom_site_type_symbol
_atom_type_description
_atom_site_fract_x
_atom_site_fract_y
_atom_site_fract_z
_atom_type_partial_charge
C1    C     C_R   0.503371 0.259808 0.499511 0.879717
C2    C     C_R   0.553661 0.937178 0.618937 -0.023484
C3    C     C_3   0.494112 0.931072 0.757571 0.354367
C4    C     C_R   0.257572 0.500044 0.499686 0.831707
C5    C     C_3   0.482734 0.073420 0.753381 -0.535918
C6    C     C_R   0.429137 0.414929 0.070292 0.217953
C7    C     C_R   0.579639 0.574814 0.072919 -0.120931
C8    C     C_R   0.579879 0.574583 0.928760 -0.093481
C9    C     C_R   0.429366 0.414758 0.927682 0.217450
C10   C     C_3   0.290198 0.400518 0.920525 -0.515209
C11   C     C_3   0.289649 0.401967 0.074428 -0.520528
C12   C     C_3   0.878666 0.500458 0.499315 0.194116
C13   C     C_R   0.506467 0.740038 0.500194 0.869460
C14   C     C_R   0.742359 0.500343 0.499929 0.822263
C15   C     C_3   0.072174 0.381348 0.571503 -0.410452
C16   C     C_3   0.927777 0.381075 0.570825 -0.401549
C17   C     C_3   0.072430 0.618785 0.573931 -0.400879
C18   C     C_3   0.070681 0.500372 0.351079 -0.403313
C19   C     C_3   0.121114 0.500198 0.499065 0.191088
C20   C     C_3   0.701675 0.908131 0.849247 0.139007
C21   C     C_3   0.769334 0.890351 0.983959 -0.890438
C22   C     C_3   0.927994 0.618511 0.574910 -0.410659
C23   C     C_3   0.928024 0.501878 0.351079 -0.388489
C24   C     C_R   0.546174 0.065094 0.618358 0.031362
C25   C     C_R   0.525040 0.128562 0.497679 -0.077634
C26   C     C_R   0.533187 0.063752 0.373762 -0.231655
C27   C     C_R   0.535893 0.934271 0.374281 -0.203146
C28   C     C_R   0.531386 0.871030 0.498832 -0.139203
H1    H     H_    0.106511 0.378913 0.678213 0.174956
H2    H     H_    0.641902 0.636770 0.128486 0.143574
H3    H     H_    0.107652 0.295514 0.519388 0.152608
H4    H     H_    0.642867 0.635904 0.874703 0.167295
H5    H     H_    0.242736 0.483394 0.875611 0.215316
H6    H     H_    0.262038 0.308608 0.876156 0.190338
H7    H     H_    0.243209 0.486624 0.117115 0.214267
H8    H     H_    0.259776 0.311396 0.119219 0.194768
H9    H     H_    0.892707 0.295703 0.517205 0.154891
H10   H     H_    0.893074 0.377349 0.677202 0.177478
H11   H     H_    0.107871 0.621336 0.680343 0.172324
H12   H     H_    0.894329 0.587314 0.297616 0.171636
H13   H     H_    0.894253 0.619773 0.681767 0.172292
H14   H     H_    0.105729 0.584116 0.295809 0.173208
H15   H     H_    0.103398 0.414930 0.296219 0.174008
H16   H     H_    0.892728 0.418580 0.293727 0.177115
H17   H     H_    0.722589 0.004893 0.814734 0.140001
H18   H     H_    0.740065 0.839672 0.774494 0.133859
H19   H     H_    0.760851 0.791885 0.017661 0.237430
H20   H     H_    0.870688 0.912856 0.972227 0.208711
H21   H     H_    0.728406 0.953416 0.062343 0.263168
H22   H     H_    0.107096 0.704740 0.522583 0.153647
H23   H     H_    0.892119 0.704881 0.525134 0.151419
H24   H     H_    0.527265 0.111470 0.277235 0.172144
H25   H     H_    0.530729 0.884977 0.277939 0.185008
H26   H     H_    0.401069 0.883405 0.755845 0.105466
H27   H     H_    0.383763 0.106302 0.745094 0.165192
H28   H     H_    0.540124 0.124111 0.830559 0.211078
N1    N     N_R   0.499150 0.499140 0.142800 -0.111363
N2    N     N_R   0.499150 0.499180 0.857150 -0.114639
O1    O     O_R   0.500020 0.316790 0.614690 -0.611480
O2    O     O_R   0.500000 0.316760 0.385350 -0.625314
O3    O     O_R   0.314800 0.500000 0.614670 -0.627533
O4    O     O_R   0.314790 0.499960 0.385330 -0.624516
O5    O     O_R   0.500000 0.683240 0.614650 -0.613647
O6    O     O_R   0.499980 0.683210 0.385310 -0.617385
O7    O     O_R   0.685210 0.500040 0.614670 -0.633308
O8    O     O_R   0.685200 0.500000 0.385330 -0.633056
O9    O     O_3   0.570861 0.887426 0.866913 -0.594422
Zn1   Zn    Zn3+2 0.500010 0.500020 0.653130 0.938201
Zn2   Zn    Zn3+2 0.499990 0.499980 0.346870 0.933744

loop_
_geom_bond_atom_site_label_1
_geom_bond_atom_site_label_2
_ccdc_geom_bond_type
C17   H22   S    
C15   C19   S    
C27   H25   S    
C13   C28   S    
C15   H3    S    
C17   C22   S    
C26   H24   S    
O1    Zn1   S    
C2    C28   A    
C9    C10   S    
C20   O9    S    
C20   H17   S    
C13   O5    A    
C16   H9    S    
C3    C5    S    
C21   H20   S    
C4    O4    A    
O7    Zn1   S    
C6    C9    A    
C11   H7    S    
C2    C3    S    
C14   O8    A    
C7    C8    A    
C10   H6    S    
C7    H2    S    
C18   H15   S    
C24   C25   A    
C1    C25   S    
C13   O6    A    
O3    Zn1   S    
C26   C27   A    
C5    C24   S    
O2    Zn2   S    
C21   H21   S    
N2    Zn1   S    
C11   H8    S    
C17   C19   S    
C14   O7    A    
C12   C14   S    
C15   H1    S    
C10   H5    S    
C1    O1    A    
C2    C24   A    
C3    H26   S    
C7    N1    A    
O8    Zn2   S    
C6    N1    A    
C15   C16   S    
C18   C23   S    
C22   H13   S    
C12   C22   S    
C27   C28   A    
C20   C21   S    
N1    Zn2   S    
C9    N2    A    
C10   C11   S    
C1    O2    A    
C6    C11   S    
C23   H12   S    
C17   H11   S    
O5    Zn1   S    
C18   C19   S    
C12   C23   S    
C5    H28   S    
C18   H14   S    
C8    N2    A    
C25   C26   A    
O6    Zn2   S    
C4    C19   S    
C4    O3    A    
C5    H27   S    
C3    O9    S    
C23   H16   S    
C12   C16   S    
O4    Zn2   S    
C16   H10   S    
C22   H23   S    
C21   H19   S    
C20   H18   S    
C8    H4    S    
