data_mof_unit_18763.cif
_audit_creation_date              2012-12-11T15:52:18-0500
_audit_creation_method            fapswitch 2.2
_symmetry_space_group_name_H-M    P1
_symmetry_Int_Tables_number       1
_space_group_crystal_system       triclinic
_cell_length_a                    11.015303
_cell_length_b                    11.021823
_cell_length_c                    18.779987
_cell_angle_alpha                 89.458514
_cell_angle_beta                  90.352872
_cell_angle_gamma                 120.203066
_cell_volume                      1970.44139938

loop_
_atom_site_label
_atom_site_type_symbol
_atom_type_description
_atom_site_fract_x
_atom_site_fract_y
_atom_site_fract_z
_atom_type_partial_charge
C1    C     C_R   0.545417 0.422583 0.139936 0.565614
C2    C     C_R   0.547897 0.070938 0.144707 0.554973
C3    C     C_R   0.929413 0.477501 0.144696 0.577728
C4    C     C_R   0.458537 0.518450 0.852330 0.522485
C5    C     C_R   0.060834 0.541031 0.852356 0.522839
C6    C     C_R   0.480510 0.938076 0.852549 0.524881
C7    C     C_3   0.642821 0.896660 0.527468 0.171660
C8    C     C_3   0.057837 0.762899 0.531901 0.140530
C9    C     C_3   0.238375 0.321180 0.534610 0.183447
C10   C     C_3   0.070188 0.766319 0.451511 0.150249
C11   C     C_3   0.679603 0.947628 0.451622 0.108915
C12   C     C_3   0.244919 0.308277 0.455087 0.116994
C13   C     C_R   0.519562 0.456570 0.354299 0.542907
C14   C     C_R   0.580578 0.127770 0.360811 0.560036
C15   C     C_R   0.938959 0.480851 0.353646 0.549890
C16   C     C_R   0.458631 0.517306 0.647034 0.591475
C17   C     C_R   0.057961 0.541828 0.647239 0.563857
C18   C     C_R   0.484743 0.944800 0.648179 0.590436
C19   C     C_R   0.505849 0.008863 0.920526 -0.018486
C20   C     C_R   0.987974 0.493391 0.920157 -0.021238
C21   C     C_R   0.508295 0.486708 0.918147 -0.021679
C22   C     C_R   0.958319 0.487355 0.068848 0.045489
C23   C     C_R   0.529922 0.042506 0.068922 0.046752
C24   C     C_R   0.536629 0.444757 0.063975 0.039299
C25   C     C_R   0.394386 0.998065 0.961277 0.003975
C26   C     C_R   0.996453 0.391455 0.961791 -0.007023
C27   C     C_R   0.614641 0.593462 0.958879 0.001548
C28   C     C_R   0.980060 0.387819 0.034972 -0.030708
C29   C     C_R   0.406788 0.014380 0.034277 -0.016992
C30   C     C_R   0.627077 0.572938 0.030755 -0.004953
C31   C     C_R   0.649025 0.076610 0.026968 -0.117523
C32   C     C_R   0.927366 0.574122 0.026178 -0.120970
C33   C     C_R   0.443425 0.331891 0.021323 -0.123707
C34   C     C_R   0.937399 0.573712 0.952368 -0.146285
C35   C     C_R   0.637562 0.061854 0.953297 -0.146192
C36   C     C_R   0.431117 0.351685 0.948697 -0.139093
C37   C     C_3   0.243987 0.883746 0.967495 0.165839
C38   C     C_3   0.107146 0.350625 0.967422 0.117673
C39   C     C_3   0.650823 0.742375 0.970003 0.160525
C40   C     C_3   0.088486 0.346190 0.047981 0.159437
C41   C     C_3   0.258539 0.902799 0.047760 0.143175
C42   C     C_3   0.662524 0.719194 0.049043 0.158667
C43   C     C_R   0.524324 0.026176 0.581898 0.016185
C44   C     C_R   0.010685 0.516976 0.573970 0.009357
C45   C     C_R   0.497597 0.488002 0.577847 0.020967
C46   C     C_R   0.996599 0.497306 0.424656 -0.023887
C47   C     C_R   0.564210 0.101658 0.437119 -0.037776
C48   C     C_R   0.504805 0.482896 0.428224 -0.024382
C49   C     C_R   0.627940 0.021665 0.541624 -0.006524
C50   C     C_R   0.072246 0.635830 0.530134 0.064970
C51   C     C_R   0.393646 0.375088 0.538918 -0.028261
C52   C     C_R   0.070063 0.628708 0.457291 -0.059057
C53   C     C_R   0.651726 0.062935 0.471624 -0.001761
C54   C     C_R   0.399157 0.371657 0.465994 0.001578
C55   C     C_R   0.468539 0.120478 0.477998 -0.159316
C56   C     C_R   0.947229 0.375715 0.467842 -0.138031
C57   C     C_R   0.614166 0.592714 0.466266 -0.146192
C58   C     C_R   0.949523 0.384737 0.542274 -0.110411
C59   C     C_R   0.454074 0.090239 0.551565 -0.124533
C60   C     C_R   0.616354 0.589779 0.541100 -0.113157
Cr1   Cr    Cr6+3 0.769160 0.541570 0.250690 1.033822
Cr2   Cr    Cr6+3 0.458430 0.227590 0.250690 1.023005
Cr3   Cr    Cr6+3 0.772410 0.230840 0.250690 1.012105
Cr4   Cr    Cr6+3 0.541570 0.769160 0.749310 1.017482
Cr5   Cr    Cr6+3 0.227590 0.458430 0.749310 1.029764
Cr6   Cr    Cr6+3 0.230840 0.772410 0.749310 1.034492
H1    H     H_    0.750551 0.110341 0.051000 0.159010
H2    H     H_    0.900067 0.646322 0.049759 0.155475
H3    H     H_    0.373125 0.230881 0.045080 0.150565
H4    H     H_    0.921969 0.648736 0.921798 0.188660
H5    H     H_    0.728487 0.078332 0.923378 0.182776
H6    H     H_    0.350761 0.264635 0.918587 0.182018
H7    H     H_    0.399152 0.148260 0.451879 0.196455
H8    H     H_    0.899298 0.273260 0.444031 0.184240
H9    H     H_    0.691458 0.684459 0.438000 0.176800
H10   H     H_    0.910918 0.290533 0.574539 0.144206
H11   H     H_    0.381142 0.106038 0.582709 0.147881
H12   H     H_    0.699825 0.677165 0.569375 0.126202
H13   H     H_    0.728850 0.897139 0.558850 0.178758
H14   H     H_    0.954130 0.740106 0.553326 0.107114
H15   H     H_    0.173095 0.220670 0.563808 0.175339
H16   H     H_    0.170626 0.853791 0.430241 0.193406
H17   H     H_    0.607354 0.872896 0.410800 0.139796
H18   H     H_    0.213666 0.373318 0.422459 0.126604
O1    O     O_R   0.911480 0.572650 0.170990 -0.529525
O2    O     O_R   0.427350 0.338830 0.170990 -0.476816
O3    O     O_R   0.661170 0.088520 0.170990 -0.515574
O4    O     O_R   0.572650 0.911480 0.829010 -0.539871
O5    O     O_R   0.338830 0.427350 0.829010 -0.540332
O6    O     O_R   0.088520 0.661170 0.829010 -0.541434
O7    O     O_R   0.640340 0.528970 0.175680 -0.513991
O8    O     O_R   0.471030 0.111370 0.175680 -0.530405
O9    O     O_R   0.888630 0.359660 0.175680 -0.499929
O10   O     O_R   0.528970 0.640340 0.824320 -0.521727
O11   O     O_R   0.111370 0.471030 0.824320 -0.521958
O12   O     O_R   0.359660 0.888630 0.824320 -0.526047
O13   O     O_R   0.909980 0.572450 0.331530 -0.468562
O14   O     O_R   0.427550 0.337530 0.331530 -0.520754
O15   O     O_R   0.662470 0.090020 0.331530 -0.529289
O16   O     O_R   0.572450 0.909980 0.668470 -0.509717
O17   O     O_R   0.337530 0.427550 0.668470 -0.487051
O18   O     O_R   0.090020 0.662470 0.668470 -0.487333
O19   O     O_R   0.638950 0.528780 0.324500 -0.493084
O20   O     O_R   0.471220 0.110170 0.324500 -0.492553
O21   O     O_R   0.889830 0.361050 0.324500 -0.521337
O22   O     O_R   0.528780 0.638950 0.675500 -0.479306
O23   O     O_R   0.110170 0.471220 0.675500 -0.452161
O24   O     O_R   0.361050 0.889830 0.675500 -0.451191
O25   O     O_3   0.666667 0.333333 0.250560 -0.307520
O26   O     O_3   0.333333 0.666667 0.749440 -0.246428
H19   H     H_    0.223733 0.779733 0.948872 0.167058
H20   H     H_    0.212545 0.432017 0.948003 0.148702
H21   H     H_    0.565411 0.764274 0.955561 0.168071
H22   H     H_    0.043881 0.239988 0.072428 0.191644
H23   H     H_    0.192735 0.942130 0.071871 0.157249
H24   H     H_    0.769880 0.784760 0.071824 0.148301
O27   O     O_3   0.152571 0.925663 0.939309 -0.690035
H25   H     H_    0.153584 0.915364 0.886966 0.345978
O28   O     O_3   0.060005 0.216317 0.940017 -0.680631
H26   H     H_    0.073591 0.228582 0.887739 0.346602
O29   O     O_3   0.781962 0.837524 0.940693 -0.688671
H27   H     H_    0.765263 0.844463 0.889266 0.345531
O30   O     O_3   0.208016 0.448497 0.084525 -0.662617
H28   H     H_    0.244360 0.540008 0.059450 0.369154
O31   O     O_3   0.249915 0.785591 0.082468 -0.715117
H29   H     H_    0.252280 0.804086 0.134193 0.341676
O32   O     O_3   0.555128 0.721515 0.087715 -0.682228
H30   H     H_    0.584340 0.732855 0.138400 0.347816
O33   O     O_3   0.512783 0.770642 0.533603 -0.713410
H31   H     H_    0.441262 0.777154 0.503854 0.316351
O34   O     O_3   0.171872 0.875743 0.564320 -0.687777
H32   H     H_    0.144947 0.948842 0.568621 0.322386
O35   O     O_3   0.208028 0.425873 0.552775 -0.681904
H33   H     H_    0.268639 0.512729 0.524864 0.333458
O36   O     O_3   0.952695 0.760007 0.419159 -0.660003
H34   H     H_    0.871627 0.669861 0.434729 0.322969
O37   O     O_3   0.822496 0.999240 0.438093 -0.689122
H35   H     H_    0.835161 0.015870 0.385996 0.352884
O38   O     O_3   0.180809 0.167334 0.434511 -0.693507
H36   H     H_    0.170351 0.166751 0.382014 0.350905

loop_
_geom_bond_atom_site_label_1
_geom_bond_atom_site_label_2
_ccdc_geom_bond_type
C45   C60   A    
C55   C59   A    
C43   C59   A    
C3    O1    A    
C48   C57   A    
Cr6   O18   S    
C9    C51   S    
Cr5   O17   S    
C10   C52   S    
C59   H11   S    
C58   H10   S    
O36   H34   S    
Cr6   O6    S    
C5    C20   S    
Cr5   O5    S    
C6    C19   S    
Cr2   O2    S    
C60   H12   S    
C7    H13   S    
C22   C32   A    
C23   C29   A    
Cr6   O12   S    
Cr1   O19   S    
C41   H23   S    
O33   H31   S    
C17   O23   A    
C45   C51   A    
C46   C52   A    
C33   C36   A    
C6    O4    A    
C12   H18   S    
C13   O14   A    
Cr3   O15   S    
C25   C37   S    
Cr2   O14   S    
Cr4   O26   S    
C40   H22   S    
C44   C58   A    
C39   H21   S    
Cr2   O8    S    
C50   C52   A    
C13   O19   A    
C34   H4    S    
C5    O6    A    
C11   C53   S    
C16   O22   A    
C47   C53   A    
Cr3   O3    S    
C21   C27   A    
Cr1   O25   S    
C1    O7    A    
C22   C28   A    
C27   C30   A    
C18   O16   A    
C15   O13   A    
C5    O11   A    
C7    C11   S    
C39   C42   S    
Cr2   O20   S    
Cr5   O23   S    
C25   C29   A    
Cr1   O13   S    
C56   H8    S    
C41   O31   S    
O30   H28   S    
C10   O36   S    
C7    C49   S    
C27   C39   S    
C21   C36   A    
C26   C38   S    
C57   C60   A    
C11   H17   S    
C32   C34   A    
C10   H16   S    
C23   C31   A    
Cr3   O25   S    
C48   C54   A    
C17   O18   A    
C14   O20   A    
Cr5   O11   S    
C15   O21   A    
O28   H26   S    
C8    O34   S    
C12   O38   S    
C2    O3    A    
C3    O9    A    
Cr6   O26   S    
C2    O8    A    
O29   H27   S    
Cr1   O1    S    
C42   O32   S    
C4    O10   A    
C38   O28   S    
C42   H24   S    
C6    O12   A    
O31   H29   S    
C31   C35   A    
C24   C30   A    
Cr3   O21   S    
C38   H20   S    
O32   H30   S    
C8    C50   S    
C47   C55   A    
C4    O5    A    
C44   C50   A    
C1    O2    A    
C40   O30   S    
C29   C41   S    
C43   C49   A    
Cr6   O24   S    
C16   C45   S    
C13   C48   S    
O38   H36   S    
Cr4   O22   S    
C14   C47   S    
C33   H3    S    
O37   H35   S    
Cr3   O9    S    
C26   C28   A    
C24   C33   A    
C39   O29   S    
C32   H2    S    
C51   C54   A    
C57   H9    S    
C11   O37   S    
C17   C44   S    
Cr4   O10   S    
C19   C35   A    
O27   H25   S    
C38   C40   S    
C4    C21   S    
C14   O15   A    
O35   H33   S    
Cr2   O25   S    
C20   C26   A    
C49   C53   A    
C56   C58   A    
C37   C41   S    
C19   C25   A    
C9    C12   S    
C18   O24   A    
Cr5   O26   S    
C7    O33   S    
C31   H1    S    
C35   H5    S    
C20   C34   A    
C55   H7    S    
C36   H6    S    
C16   O17   A    
Cr4   O16   S    
C37   H19   S    
C37   O27   S    
C1    C24   S    
C8    C10   S    
C46   C56   A    
C2    C23   S    
C8    H14   S    
C28   C40   S    
C30   C42   S    
C3    C22   S    
C15   C46   S    
Cr1   O7    S    
C18   C43   S    
Cr4   O4    S    
C12   C54   S    
O34   H32   S    
C9    H15   S    
C9    O35   S    
