data_mof_unit_32852.cif
_audit_creation_date              2012-12-10T17:57:22-0500
_audit_creation_method            fapswitch 2.2
_symmetry_space_group_name_H-M    P1
_symmetry_Int_Tables_number       1
_space_group_crystal_system       triclinic
_cell_length_a                    9.505941
_cell_length_b                    10.815968
_cell_length_c                    13.490957
_cell_angle_alpha                 89.924148
_cell_angle_beta                  73.641363
_cell_angle_gamma                 89.738766
_cell_volume                      1330.91915475

loop_
_atom_site_label
_atom_site_type_symbol
_atom_type_description
_atom_site_fract_x
_atom_site_fract_y
_atom_site_fract_z
_atom_type_partial_charge
C1    C     C_R   0.501189 0.737907 0.495507 0.871412
C2    C     C_R   0.391328 0.446356 0.808663 -0.162975
C3    C     C_R   0.593991 0.934749 0.538776 -0.206201
C4    C     C_R   0.425030 0.484583 0.698679 0.817731
C5    C     C_R   0.594966 0.062544 0.540858 -0.147128
C6    C     C_R   0.501812 0.128889 0.496672 -0.087783
C7    C     C_R   0.411104 0.067881 0.447472 -0.226043
C8    C     C_R   0.412236 0.939576 0.441493 0.441086
C9    C     C_R   0.501883 0.872143 0.490850 -0.157937
C10   C     C_R   0.898043 0.571847 0.568057 -0.022832
C11   C     C_R   0.046799 0.571347 0.568374 0.051127
C12   C     C_R   0.456048 0.435704 0.972282 0.037558
C13   C     C_R   0.102094 0.428482 0.431652 -0.002313
C14   C     C_R   0.953120 0.428389 0.431772 0.000507
C15   C     C_R   0.500354 0.262272 0.499774 0.812993
C16   C     C_R   0.577233 0.501925 0.300650 0.855422
C17   C     C_R   0.806762 0.528183 0.026162 -0.085990
C18   C     C_R   0.620996 0.503100 0.188260 -0.044796
C19   C     C_R   0.250330 0.403277 0.859322 -0.273656
C20   C     C_R   0.216192 0.365881 0.962529 0.430955
C21   C     C_R   0.314320 0.389546 0.020099 -0.279917
C22   C     C_R   0.500806 0.445371 0.863267 0.090197
C23   C     C_R   0.558181 0.465752 0.028085 0.105299
C24   C     C_R   0.705952 0.492290 0.973659 0.173328
C25   C     C_R   0.753430 0.477043 0.867608 -0.206538
C26   C     C_R   0.653838 0.448512 0.813954 -0.182216
C27   C     C_R   0.517735 0.473254 0.136046 -0.240957
C28   C     C_R   0.764555 0.533194 0.133109 -0.090835
Cu1   Cu    Cu3+1 0.359340 0.499980 0.500000 0.995792
Cu2   Cu    Cu3+1 0.640660 0.500020 0.500000 0.967975
H1    H     H_    0.844618 0.559156 0.172641 0.170519
H2    H     H_    0.406191 0.457276 0.181072 0.149834
H3    H     H_    0.170161 0.391724 0.816791 0.185334
H4    H     H_    0.281404 0.362208 0.100237 0.156695
H5    H     H_    0.703101 0.421203 0.735240 0.187227
H6    H     H_    0.663803 0.884702 0.576286 0.174801
H7    H     H_    0.338583 0.718689 0.258002 0.375109
H8    H     H_    0.169023 0.132077 0.077935 0.357886
H9    H     H_    0.665848 0.109436 0.578955 0.163468
H10   H     H_    0.342124 0.121044 0.411356 0.185101
H11   H     H_    0.819901 0.629552 0.622474 0.127871
H12   H     H_    0.080886 0.628637 0.623016 0.127275
H13   H     H_    0.180361 0.371074 0.377023 0.126346
H14   H     H_    0.918971 0.370944 0.377238 0.157983
H15   H     H_    0.868676 0.484901 0.825953 0.144056
H16   H     H_    0.919244 0.549504 0.984507 0.141033
N1    N     N_R   0.147940 0.499970 0.499970 -0.162633
N2    N     N_R   0.852060 0.500060 0.499990 -0.176168
O1    O     O_R   0.381250 0.680340 0.500010 -0.519514
O2    O     O_2   0.265185 0.964765 0.298280 -0.289072
O3    O     O_3   0.406871 0.758312 0.291720 -0.540241
O4    O     O_2   0.981970 0.324610 0.124232 -0.326398
O5    O     O_2   0.955253 0.280352 0.951882 -0.271798
O6    O     O_3   0.110249 0.129764 0.027882 -0.467528
O7    O     O_R   0.618820 0.680370 0.500010 -0.584788
O8    O     O_R   0.323240 0.499950 0.650980 -0.592723
O9    O     O_R   0.560810 0.499980 0.650980 -0.608581
O10   O     O_R   0.381180 0.319630 0.499990 -0.593896
O11   O     O_R   0.618750 0.319660 0.499990 -0.589459
O12   O     O_R   0.439190 0.500020 0.349020 -0.580681
O13   O     O_R   0.676760 0.500050 0.349020 -0.582470
O14   O     O_2   0.170843 0.815481 0.437249 -0.294223
S1    S     S_3+6 0.307674 0.870082 0.366469 0.013065
S2    S     S_3+6 0.058581 0.277087 0.018050 0.003304

loop_
_geom_bond_atom_site_label_1
_geom_bond_atom_site_label_2
_ccdc_geom_bond_type
C4    O9    A    
C2    C22   A    
C2    C4    S    
C23   C24   A    
C20   S2    S    
C6    C7    A    
C3    C9    A    
Cu1   O8    S    
C23   C27   A    
Cu2   O7    S    
C14   H14   S    
C11   N1    A    
C19   C20   A    
H8    O6    S    
Cu1   O12   S    
C7    H10   S    
Cu2   O11   S    
O14   S1    D    
C1    O7    A    
C17   H16   S    
C18   C28   A    
C7    C8    A    
C25   C26   A    
Cu1   O1    S    
C13   C14   A    
C24   C25   A    
C10   H11   S    
O2    S1    D    
C12   C23   A    
Cu1   Cu2   S    
O6    S2    S    
C3    H6    S    
Cu1   N1    S    
Cu1   O10   S    
Cu2   N2    S    
O5    S2    D    
O4    S2    D    
C5    H9    S    
C10   N2    A    
C5    C6    A    
H7    O3    S    
C15   O10   A    
C12   C22   A    
C17   C24   A    
C10   C11   A    
C27   H2    S    
C8    S1    S    
C22   C26   A    
Cu2   O9    S    
C25   H15   S    
C26   H5    S    
C13   H13   S    
C1    C9    S    
C20   C21   A    
C11   H12   S    
C16   C18   S    
C16   O12   A    
Cu2   O13   S    
C13   N1    A    
O3    S1    S    
C14   N2    A    
C21   H4    S    
C16   O13   A    
C6    C15   S    
C2    C19   A    
C17   C28   A    
C15   O11   A    
C12   C21   A    
C28   H1    S    
C4    O8    A    
C18   C27   A    
C19   H3    S    
C8    C9    A    
C3    C5    A    
C1    O1    A    
