data_mof_unit_21903.cif
_audit_creation_date              2012-12-10T17:57:50-0500
_audit_creation_method            fapswitch 2.2
_symmetry_space_group_name_H-M    P1
_symmetry_Int_Tables_number       1
_space_group_crystal_system       triclinic
_cell_length_a                    10.889177
_cell_length_b                    9.55844
_cell_length_c                    15.033251
_cell_angle_alpha                 90.478448
_cell_angle_beta                  90.229897
_cell_angle_gamma                 90.292596
_cell_volume                      1564.62623507

loop_
_atom_site_label
_atom_site_type_symbol
_atom_type_description
_atom_site_fract_x
_atom_site_fract_y
_atom_site_fract_z
_atom_type_partial_charge
C1    C     C_R   0.262427 0.499938 0.500592 0.979674
C2    C     C_R   0.738085 0.500597 0.501384 0.966600
C3    C     C_R   0.275991 0.533457 0.047674 -0.257856
C4    C     C_R   0.718629 0.553043 0.952782 -0.259016
C5    C     C_R   0.061512 0.377429 0.482913 0.312912
C6    C     C_R   0.940130 0.630039 0.502426 0.263169
C7    C     C_R   0.938253 0.374372 0.506616 0.248211
C8    C     C_R   0.064793 0.624798 0.524543 0.280610
C9    C     C_R   0.872667 0.502047 0.503692 -0.356458
C10   C     C_R   0.128831 0.500629 0.502588 -0.358392
C11   C     C_R   0.478837 0.073063 0.423537 0.070761
C12   C     C_R   0.520416 0.927100 0.576528 0.050510
C13   C     C_R   0.521610 0.075089 0.576394 0.119960
C14   C     C_R   0.479515 0.925050 0.423465 0.015198
C15   C     C_R   0.503336 0.499534 0.329022 0.952244
C16   C     C_R   0.494085 0.499966 0.670891 0.938471
C17   C     C_R   0.605654 0.530719 0.811888 0.147733
C18   C     C_R   0.390164 0.524516 0.188338 0.137174
C19   C     C_R   0.494369 0.500414 0.767647 -0.215135
C20   C     C_R   0.502308 0.500136 0.232250 -0.216149
C21   C     C_R   0.385435 0.473329 0.815613 0.328987
C22   C     C_R   0.612856 0.485769 0.184376 0.307414
C23   C     C_R   0.383651 0.507890 0.907209 -0.038064
C24   C     C_R   0.612697 0.520022 0.093027 -0.036191
C25   C     C_R   0.496887 0.523095 0.953141 -0.039655
C26   C     C_R   0.498917 0.523599 0.047062 -0.033870
C27   C     C_R   0.608232 0.533431 0.905590 0.045182
C28   C     C_R   0.387291 0.525184 0.094694 0.040911
C29   C     C_R   0.273013 0.526643 0.955025 0.306860
C30   C     C_R   0.721523 0.550872 0.045569 0.307080
Cu1   Cu    Cu3+1 0.500000 0.640660 0.500000 1.044378
Cu2   Cu    Cu3+1 0.500000 0.359340 0.500000 1.109482
H1    H     H_    0.189546 0.546338 0.081778 0.150747
H2    H     H_    0.804008 0.572731 0.918563 0.146560
H3    H     H_    0.461342 0.126557 0.361850 0.140207
H4    H     H_    0.536153 0.873917 0.638402 0.106310
H5    H     H_    0.540176 0.130040 0.638032 0.169248
H6    H     H_    0.463704 0.870352 0.361513 0.112003
N1    N     N_R   0.500000 0.852070 0.500000 -0.157551
N2    N     N_R   0.500000 0.147930 0.500000 -0.165077
O1    O     O_R   0.319640 0.618740 0.499990 -0.541029
O2    O     O_R   0.680360 0.381260 0.500010 -0.509456
O3    O     O_R   0.680360 0.618740 0.500010 -0.530254
O4    O     O_R   0.319640 0.381260 0.499990 -0.525791
O5    O     O_R   0.499970 0.618800 0.370260 -0.615823
O6    O     O_R   0.500030 0.381200 0.629740 -0.548183
O7    O     O_R   0.500030 0.618800 0.629740 -0.617862
O8    O     O_R   0.499970 0.381200 0.370260 -0.548907
N3    N     N_2   0.716002 0.540940 0.761214 -0.448035
H7    H     H_    0.785692 0.476719 0.782579 0.261393
C31   C     C_3   0.757296 0.681715 0.742629 -0.579565
H8    H     H_    0.784289 0.737279 0.804870 0.213811
H9    H     H_    0.683980 0.741461 0.709136 0.244195
H10   H     H_    0.837940 0.677387 0.697775 0.256390
N4    N     N_2   0.280221 0.535699 0.239297 -0.412402
H11   H     H_    0.210203 0.470059 0.218610 0.297831
C32   C     C_3   0.239156 0.676995 0.256436 -0.592327
H12   H     H_    0.210321 0.727896 0.193646 0.209696
H13   H     H_    0.313374 0.739816 0.287929 0.231613
H14   H     H_    0.159770 0.674579 0.302586 0.253678
S1    S     S_3+6 0.264384 0.367413 0.768320 0.026651
O9    O     O_2   0.200219 0.287976 0.840638 -0.266722
O10   O     O_2   0.172490 0.458053 0.721904 -0.268747
O11   O     O_3   0.317731 0.248361 0.695564 -0.534520
H15   H     H_    0.243603 0.206799 0.667266 0.401252
S2    S     S_3+6 0.742419 0.401473 0.234264 0.022725
O12   O     O_2   0.822908 0.336904 0.164162 -0.267499
O13   O     O_2   0.815832 0.506380 0.287308 -0.266460
O14   O     O_3   0.696954 0.272140 0.301746 -0.532911
H16   H     H_    0.773107 0.221319 0.316952 0.405640
N5    N     N_2   0.159336 0.550844 0.910695 -0.363723
H17   H     H_    0.083458 0.514153 0.944323 0.248734
C33   C     C_3   0.143317 0.693053 0.880905 -0.560971
H18   H     H_    0.058139 0.699874 0.840315 0.250205
H19   H     H_    0.222105 0.726086 0.839259 0.246275
H20   H     H_    0.135444 0.765014 0.939041 0.195067
N6    N     N_2   0.831778 0.592664 0.090106 -0.363426
H21   H     H_    0.910933 0.575171 0.054281 0.240920
C34   C     C_3   0.828565 0.731924 0.128487 -0.556963
H22   H     H_    0.915130 0.752373 0.165807 0.246502
H23   H     H_    0.750717 0.742290 0.175572 0.241975
H24   H     H_    0.819387 0.811033 0.075137 0.199852
S3    S     S_3+6 0.121430 0.235452 0.419169 0.088026
O15   O     O_2   0.186368 0.136063 0.479832 -0.207748
O16   O     O_2   0.018964 0.160086 0.371373 -0.216315
O17   O     O_3   0.221574 0.293512 0.343176 -0.562520
H25   H     H_    0.246152 0.209171 0.309068 0.356955
S4    S     S_3+6 0.878400 0.792394 0.465104 0.116881
O18   O     O_2   0.807658 0.858816 0.539826 -0.231795
O19   O     O_2   0.979323 0.889506 0.436824 -0.150713
O20   O     O_3   0.784948 0.767263 0.376933 -0.509704
H26   H     H_    0.749566 0.860450 0.364704 0.362434
S5    S     S_3+6 0.878150 0.217476 0.553379 0.113735
O21   O     O_2   0.805271 0.138706 0.484115 -0.198797
O22   O     O_2   0.980163 0.125830 0.586040 -0.162138
O23   O     O_3   0.786482 0.255286 0.639988 -0.542691
H27   H     H_    0.843399 0.281364 0.688962 0.348491
S6    S     S_3+6 0.132660 0.766435 0.586472 0.092119
O24   O     O_2   0.195650 0.863973 0.523379 -0.211326
O25   O     O_2   0.035967 0.844741 0.637235 -0.218076
O26   O     O_3   0.237377 0.708359 0.659535 -0.526639
H28   H     H_    0.282694 0.793041 0.679707 0.351812

loop_
_geom_bond_atom_site_label_1
_geom_bond_atom_site_label_2
_ccdc_geom_bond_type
S2    O13   D    
N4    H11   S    
S5    O21   D    
C33   H19   S    
C33   H18   S    
C6    C9    A    
N6    H21   S    
O26   H28   S    
Cu1   O3    S    
C23   C29   A    
C3    C28   A    
C19   C21   A    
C24   C26   A    
O14   H16   S    
C5    S3    S    
C11   C14   A    
C32   H13   S    
S2    O14   S    
C3    H1    S    
C6    S4    S    
C3    C29   A    
S1    O10   D    
C8    S6    S    
C22   S2    S    
C13   N2    A    
C14   N1    A    
C30   N6    S    
S3    O15   D    
N3    C31   S    
C12   H4    S    
C13   H5    S    
C23   C25   A    
S2    O12   D    
S5    O22   D    
Cu1   O7    S    
Cu2   O8    S    
C11   N2    A    
Cu2   O6    S    
C15   O8    A    
C16   O7    A    
N6    C34   S    
C15   C20   S    
C7    S5    S    
C4    H2    S    
C31   H8    S    
C17   C27   A    
C18   C28   A    
C16   O6    A    
O20   H26   S    
C5    C7    A    
O17   H25   S    
C32   H14   S    
C6    C8    A    
C25   C26   A    
C31   H9    S    
S1    O11   S    
C14   H6    S    
C1    O4    A    
Cu1   Cu2   S    
S4    O20   S    
C2    O3    A    
O23   H27   S    
Cu2   O4    S    
S4    O18   D    
C18   N4    S    
C1    O1    A    
S3    O16   D    
S4    O19   D    
N3    H7    S    
S5    O23   S    
S6    O25   D    
C21   C23   A    
C33   H20   S    
C22   C24   A    
C15   O5    A    
C17   N3    S    
C4    C27   A    
C34   H23   S    
C7    C9    A    
Cu1   O1    S    
C21   S1    S    
C1    C10   S    
C20   C22   A    
C34   H24   S    
C25   C27   A    
S6    O26   S    
C26   C28   A    
C31   H10   S    
O11   H15   S    
C12   N1    A    
N4    C32   S    
C5    C10   A    
C32   H12   S    
C2    O2    A    
C16   C19   S    
C11   H3    S    
C17   C19   A    
Cu1   N1    S    
C18   C20   A    
Cu2   N2    S    
S1    O9    D    
C24   C30   A    
C34   H22   S    
N5    H17   S    
S3    O17   S    
C12   C13   A    
C8    C10   A    
S6    O24   D    
Cu1   O5    S    
N5    C33   S    
Cu2   O2    S    
C2    C9    S    
C4    C30   A    
C29   N5    S    
