data_mof_unit_33063.cif
_audit_creation_date              2012-12-10T18:31:57-0500
_audit_creation_method            fapswitch 2.2
_symmetry_space_group_name_H-M    P1
_symmetry_Int_Tables_number       1
_space_group_crystal_system       triclinic
_cell_length_a                    10.676053
_cell_length_b                    15.005182
_cell_length_c                    15.34989
_cell_angle_alpha                 81.622587
_cell_angle_beta                  90.62774
_cell_angle_gamma                 104.387207
_cell_volume                      2355.64271064

loop_
_atom_site_label
_atom_site_type_symbol
_atom_type_description
_atom_site_fract_x
_atom_site_fract_y
_atom_site_fract_z
_atom_type_partial_charge
C1    C     C_R   0.481742 0.441468 0.662328 0.842834
C2    C     C_3   0.120875 0.500303 0.493485 0.159383
C3    C     C_3   0.093766 0.580780 0.422752 0.019323
C4    C     C_3   0.080417 0.514360 0.587104 -0.451395
C5    C     C_R   0.487849 0.405540 0.755364 -0.107794
C6    C     C_R   0.558382 0.595329 0.245359 -0.052443
C7    C     C_R   0.565919 0.302012 0.866377 -0.218555
C8    C     C_R   0.530210 0.324320 0.780083 -0.233603
C9    C     C_R   0.474519 0.461612 0.818410 0.096892
C10   C     C_R   0.541700 0.451736 0.897613 0.073135
C11   C     C_R   0.574213 0.366134 0.925200 0.138133
C12   C     C_R   0.741766 0.499810 0.501824 0.826584
C13   C     C_R   0.573379 0.522184 0.951545 0.070982
C14   C     C_R   0.597067 0.497676 0.041260 0.064186
C15   C     C_R   0.620757 0.409444 0.069566 -0.242245
C16   C     C_R   0.614736 0.346193 0.010906 -0.225950
C17   C     C_R   0.589229 0.616859 0.917536 -0.222630
C18   C     C_R   0.600840 0.683139 0.973617 -0.250164
C19   C     C_R   0.595145 0.655589 0.064567 0.178933
C20   C     C_R   0.594663 0.562458 0.099040 0.089631
C21   C     C_R   0.586569 0.718991 0.121562 -0.206883
C22   C     C_R   0.567002 0.688733 0.211761 -0.202694
C23   C     C_R   0.527351 0.558513 0.338076 0.856317
C24   C     C_R   0.578980 0.534586 0.189815 -0.290913
C25   C     C_R   0.690356 0.839844 0.641281 -0.325207
C26   C     C_R   0.658370 0.751344 0.617923 0.008323
C27   C     C_R   0.517998 0.795194 0.508096 -0.068042
C28   C     C_R   0.546617 0.886639 0.528267 -0.003416
C29   C     C_R   0.634566 0.907896 0.596705 0.184521
C30   C     C_R   0.490596 0.956573 0.483829 0.076310
C31   C     C_R   0.521872 0.046870 0.509960 0.103624
C32   C     C_R   0.610665 0.064887 0.578153 -0.243850
C33   C     C_R   0.665892 0.996568 0.620363 -0.219720
C34   C     C_R   0.258150 0.500531 0.496349 0.844181
C35   C     C_R   0.404343 0.939100 0.414257 -0.245715
C36   C     C_R   0.348079 0.006899 0.372739 -0.183931
C37   C     C_R   0.375288 0.094554 0.398631 0.125179
C38   C     C_R   0.462705 0.115957 0.467075 0.005202
C39   C     C_R   0.314870 0.160796 0.356101 -0.455347
C40   C     C_R   0.340710 0.249740 0.381735 0.666402
C41   C     C_R   0.486416 0.206142 0.489486 -0.179202
C42   C     C_3   0.896439 0.409460 0.469098 -0.397968
C43   C     C_3   0.037338 0.405327 0.474509 -0.391560
C44   C     C_3   0.953022 0.586647 0.437244 -0.445916
C45   C     C_3   0.934153 0.505696 0.593105 -0.426260
C46   C     C_3   0.878471 0.500329 0.500454 0.169266
H1    H     H_    0.864266 0.406919 0.400057 0.172241
H2    H     H_    0.133099 0.584393 0.601420 0.186023
H3    H     H_    0.954569 0.651055 0.465759 0.173104
H4    H     H_    0.159321 0.648130 0.434408 0.144489
H5    H     H_    0.638610 0.280640 0.033299 0.143622
H6    H     H_    0.573273 0.463530 0.218039 0.156220
H7    H     H_    0.554425 0.737368 0.254580 0.154026
H8    H     H_    0.608358 0.755013 0.945905 0.145392
H9    H     H_    0.594327 0.237571 0.885539 0.140933
H10   H     H_    0.538310 0.279299 0.732417 0.161435
H11   H     H_    0.836910 0.346513 0.510888 0.179224
H12   H     H_    0.651053 0.389720 0.135340 0.142667
H13   H     H_    0.596942 0.640503 0.847435 0.146316
H14   H     H_    0.589025 0.790660 0.096013 0.133727
H15   H     H_    0.733325 0.013251 0.672437 0.141449
H16   H     H_    0.551940 0.229953 0.539698 0.145558
H17   H     H_    0.281963 0.990235 0.319942 0.140848
H18   H     H_    0.757695 0.854893 0.693698 0.141706
H19   H     H_    0.700547 0.697806 0.651733 0.130028
H20   H     H_    0.451840 0.771353 0.458236 0.121830
H21   H     H_    0.047062 0.349209 0.528344 0.181478
H22   H     H_    0.640188 0.131286 0.600940 0.133124
H23   H     H_    0.377774 0.873619 0.389581 0.131634
H24   H     H_    0.249803 0.141468 0.303829 0.151413
H25   H     H_    0.068769 0.386722 0.412240 0.195288
H26   H     H_    0.900453 0.592448 0.374317 0.151789
H27   H     H_    0.916402 0.566558 0.620104 0.176093
H28   H     H_    0.886422 0.441969 0.638996 0.169947
H29   H     H_    0.106124 0.461976 0.638672 0.164301
N1    N     N_R   0.573860 0.731700 0.552730 -0.098188
N2    N     N_R   0.426060 0.268290 0.447230 -0.130241
O1    O     O_R   0.462770 0.383110 0.605620 -0.612871
O2    O     O_R   0.510160 0.531900 0.639510 -0.619584
O3    O     O_R   0.661510 0.425600 0.483070 -0.636217
O4    O     O_R   0.708900 0.574390 0.516960 -0.622380
O5    O     O_R   0.489840 0.468100 0.360490 -0.575504
O6    O     O_R   0.537230 0.616890 0.394380 -0.621748
O7    O     O_R   0.291100 0.425610 0.483040 -0.578242
O8    O     O_R   0.338490 0.574400 0.516930 -0.635471
Zn1   Zn    Zn3+2 0.468350 0.400660 0.477370 0.962740
Zn2   Zn    Zn3+2 0.531650 0.599340 0.522630 0.921910
C47   C     C_3   0.369926 0.515989 0.806435 -0.374894
C48   C     C_3   0.270745 0.487586 0.882966 -0.876538
H30   H     H_    0.229862 0.411041 0.893097 0.260967
H31   H     H_    0.314891 0.509040 0.944789 0.272064
H32   H     H_    0.190569 0.521954 0.867703 0.247226
H33   H     H_    0.410075 0.592123 0.796242 0.207895
H34   H     H_    0.314170 0.501104 0.746409 0.198354
O9    O     O_3   0.283952 0.321074 0.346059 -0.625604
C49   C     C_3   0.209541 0.306278 0.270215 0.021978
H35   H     H_    0.152045 0.359167 0.261081 0.164174
H36   H     H_    0.135644 0.238778 0.278960 0.128424
C50   C     C_3   0.296314 0.322327 0.187388 -0.348671
H37   H     H_    0.354415 0.395525 0.177185 0.237082
H38   H     H_    0.363873 0.276339 0.195258 0.216941
C51   C     C_3   0.216736 0.304752 0.105721 -0.954273
H39   H     H_    0.158427 0.231491 0.113429 0.260983
H40   H     H_    0.282666 0.317746 0.047233 0.276210
H41   H     H_    0.151322 0.352253 0.094621 0.263719
C52   C     C_3   0.110490 0.571621 0.324004 -0.444922
C53   C     C_3   0.247295 0.576102 0.295370 -0.884557
H42   H     H_    0.315713 0.635233 0.319812 0.257670
H43   H     H_    0.270668 0.509305 0.319834 0.289122
H44   H     H_    0.255323 0.586532 0.222310 0.253708
H45   H     H_    0.044657 0.507204 0.306708 0.217460
H46   H     H_    0.082622 0.630871 0.283030 0.217434

loop_
_geom_bond_atom_site_label_1
_geom_bond_atom_site_label_2
_ccdc_geom_bond_type
C44   H3    S    
C24   H6    S    
O6    Zn2   S    
C23   O5    A    
O9    C49   S    
C16   H5    S    
C7    H9    S    
C8    H10   S    
O2    Zn2   S    
C34   O8    A    
C7    C8    A    
C52   H46   S    
C45   C46   S    
C7    C11   A    
C23   O6    A    
C30   C35   A    
C1    C5    S    
C36   C37   A    
C19   C21   A    
O7    Zn1   S    
C18   C19   A    
C9    C47   S    
C41   N2    A    
C30   C31   A    
C52   C53   S    
C15   C16   A    
C6    C22   A    
C49   C50   S    
C29   C33   A    
C51   H41   S    
C45   H27   S    
C38   C41   A    
C42   C46   S    
C4    H29   S    
O3    Zn1   S    
C20   C24   A    
C49   H36   S    
C26   N1    A    
C53   H42   S    
C48   H31   S    
C36   H17   S    
C9    C10   A    
C32   H22   S    
O1    Zn1   S    
C21   C22   A    
C1    O1    A    
C53   H43   S    
C34   O7    A    
C41   H16   S    
C42   H11   S    
C3    H4    S    
C44   C46   S    
C22   H7    S    
C52   H45   S    
O8    Zn2   S    
C3    C52   S    
C25   C29   A    
C47   H34   S    
C3    C44   S    
C4    C45   S    
C14   C20   A    
C21   H14   S    
C12   C46   S    
C39   C40   A    
C25   C26   A    
O5    Zn1   S    
C45   H28   S    
C35   C36   A    
C2    C4    S    
C5    C9    A    
C37   C38   A    
C11   C16   A    
C50   H37   S    
C2    C43   S    
C6    C24   A    
C49   H35   S    
C17   C18   A    
C48   H32   S    
C51   H40   S    
N1    Zn2   S    
O4    Zn2   S    
C17   H13   S    
C33   H15   S    
C50   H38   S    
N2    Zn1   S    
C1    O2    A    
C53   H44   S    
C42   C43   S    
C40   O9    S    
C27   N1    A    
C4    H2    S    
C47   H33   S    
C28   C29   A    
C43   H25   S    
C40   N2    A    
C26   H19   S    
C31   C32   A    
C10   C13   A    
C5    C8    A    
C31   C38   A    
C13   C17   A    
C32   C33   A    
C19   C20   A    
C28   C30   A    
C2    C3    S    
C37   C39   A    
C27   H20   S    
C2    C34   S    
C6    C23   S    
C12   O3    A    
C15   H12   S    
C39   H24   S    
C12   O4    A    
C44   H26   S    
C42   H1    S    
C51   H39   S    
C10   C11   A    
C18   H8    S    
C50   C51   S    
C47   C48   S    
C35   H23   S    
C43   H21   S    
C27   C28   A    
C14   C15   A    
C48   H30   S    
C13   C14   A    
C25   H18   S    
