data_mof_unit_57796.cif
_audit_creation_date              2012-12-11T15:41:27-0500
_audit_creation_method            fapswitch 2.2
_symmetry_space_group_name_H-M    P1
_symmetry_Int_Tables_number       1
_space_group_crystal_system       triclinic
_cell_length_a                    19.051844
_cell_length_b                    11.145152
_cell_length_c                    18.727529
_cell_angle_alpha                 89.837334
_cell_angle_beta                  90.01114
_cell_angle_gamma                 90.116405
_cell_volume                      3976.49862482

loop_
_atom_site_label
_atom_site_type_symbol
_atom_type_description
_atom_site_fract_x
_atom_site_fract_y
_atom_site_fract_z
_atom_type_partial_charge
C1    C     C_R   0.727316 0.955458 0.852920 0.535594
C2    C     C_R   0.272703 0.955699 0.147054 0.548271
C3    C     C_R   0.227320 0.455447 0.852911 0.543207
C4    C     C_R   0.772705 0.455708 0.147048 0.546485
C5    C     C_R   0.698978 0.465803 0.038874 0.023598
C6    C     C_R   0.301095 0.465800 0.960866 0.025275
C7    C     C_R   0.198974 0.965778 0.038887 0.024128
C8    C     C_R   0.801087 0.965821 0.960882 0.026647
C9    C     C_R   0.688001 0.433802 0.967647 -0.043127
C10   C     C_R   0.312173 0.433762 0.032137 -0.044594
C11   C     C_R   0.187991 0.933779 0.967660 -0.044368
C12   C     C_R   0.812160 0.933780 0.032152 -0.043834
C13   C     C_R   0.780059 0.286234 0.976835 -0.142982
C14   C     C_R   0.220386 0.285029 0.023297 -0.142967
C15   C     C_R   0.280063 0.786230 0.976837 -0.142844
C16   C     C_R   0.720404 0.785000 0.023291 -0.143784
C17   C     C_R   0.790339 0.315697 0.047706 -0.128527
C18   C     C_R   0.209968 0.314621 0.952381 -0.129400
C19   C     C_R   0.290346 0.815694 0.047707 -0.128776
C20   C     C_R   0.709988 0.814596 0.952376 -0.128720
C21   C     C_3   0.621605 0.466114 0.053705 0.420262
C22   C     C_3   0.378465 0.467331 0.945969 0.421264
C23   C     C_3   0.121608 0.966076 0.053742 0.420487
C24   C     C_3   0.878464 0.967365 0.946011 0.421005
C25   C     C_3   0.610114 0.430654 0.976547 -0.100454
C26   C     C_3   0.390064 0.431697 0.023181 -0.100525
C27   C     C_3   0.110105 0.930607 0.976585 -0.101197
C28   C     C_3   0.890052 0.931754 0.023225 -0.100359
C29   C     C_R   0.729748 0.345664 0.935594 -0.000092
C30   C     C_R   0.270622 0.344980 0.064362 -0.000660
C31   C     C_R   0.229743 0.845651 0.935599 -0.000207
C32   C     C_R   0.770622 0.844974 0.064365 -0.002190
C33   C     C_R   0.509349 0.166667 0.419871 0.034774
C34   C     C_R   0.521512 0.170028 0.567460 0.051389
C35   C     C_R   0.000609 0.662285 0.423376 0.028042
C36   C     C_R   0.013587 0.673633 0.570648 0.062602
C37   C     C_R   0.529371 0.271676 0.454780 0.036517
C38   C     C_R   0.537280 0.272317 0.527484 -0.014322
C39   C     C_R   0.033531 0.759037 0.454643 0.016692
C40   C     C_R   0.042445 0.762842 0.526789 -0.018866
C41   C     C_R   0.508664 0.061356 0.532648 -0.157430
C42   C     C_R   0.506841 0.058743 0.458363 -0.161742
C43   C     C_R   0.983857 0.572240 0.540018 -0.170152
C44   C     C_R   0.980863 0.564050 0.466023 -0.177617
C45   C     C_R   0.530706 0.177061 0.850903 0.559979
C46   C     C_R   0.469238 0.177407 0.149072 0.564365
C47   C     C_R   0.030714 0.677060 0.850908 0.563953
C48   C     C_R   0.969247 0.677407 0.149078 0.566154
C49   C     C_3   0.492458 0.390764 0.456394 -0.057025
C50   C     C_3   0.505738 0.394433 0.535848 -0.077334
C51   C     C_3   0.019086 0.890599 0.448440 -0.053195
C52   C     C_3   0.034306 0.897004 0.527587 -0.053554
C53   C     C_R   0.776853 0.473973 0.435313 0.035182
C54   C     C_R   0.217921 0.490488 0.562774 0.043724
C55   C     C_R   0.284213 0.990096 0.437532 0.038325
C56   C     C_R   0.750581 0.899368 0.581460 0.024243
C57   C     C_R   0.828939 0.416726 0.474553 -0.025814
C58   C     C_R   0.161665 0.459841 0.517840 -0.002167
C59   C     C_R   0.337007 0.934366 0.477571 -0.016283
C60   C     C_R   0.705827 0.817443 0.547585 0.035465
C61   C     C_R   0.821360 0.396754 0.546668 -0.011450
C62   C     C_R   0.172990 0.432678 0.446104 0.020788
C63   C     C_R   0.327153 0.908614 0.549540 0.006238
C64   C     C_R   0.713337 0.792743 0.475683 -0.043629
C65   C     C_R   0.708037 0.492110 0.543937 -0.133268
C66   C     C_R   0.295407 0.476204 0.460298 -0.081789
C67   C     C_R   0.215356 0.002922 0.546679 -0.087575
C68   C     C_R   0.815756 0.918365 0.470943 -0.117018
C69   C     C_R   0.717251 0.515734 0.471174 -0.125270
C70   C     C_R   0.284045 0.504809 0.531709 -0.080884
C71   C     C_R   0.225493 0.032545 0.474537 -0.078232
C72   C     C_R   0.806418 0.947330 0.542628 -0.093133
C73   C     C_3   0.863023 0.297011 0.462343 -0.050827
C74   C     C_3   0.108718 0.360134 0.524936 -0.058068
C75   C     C_3   0.372855 0.816280 0.465189 -0.048450
C76   C     C_3   0.628008 0.829573 0.539825 -0.045751
C77   C     C_3   0.857961 0.278414 0.542082 -0.254330
C78   C     C_3   0.118148 0.336998 0.445986 -0.247473
C79   C     C_3   0.365274 0.793097 0.544376 -0.247945
C80   C     C_3   0.636574 0.804507 0.461360 -0.257280
C81   C     C_R   0.758374 0.425146 0.581263 0.037962
C82   C     C_R   0.241346 0.430632 0.417863 0.042678
C83   C     C_R   0.262774 0.931239 0.583069 0.038211
C84   C     C_R   0.767397 0.843737 0.436238 0.012209
C85   C     C_R   0.724320 0.315247 0.860214 0.551709
C86   C     C_R   0.275810 0.314942 0.139865 0.555529
C87   C     C_R   0.224319 0.815245 0.860214 0.557167
C88   C     C_R   0.775812 0.814934 0.139867 0.556416
C89   C     C_R   0.728066 0.954457 0.648019 0.555321
C90   C     C_R   0.291323 0.002407 0.359724 0.583422
C91   C     C_R   0.208702 0.502992 0.640200 0.570411
C92   C     C_R   0.788950 0.497109 0.360115 0.546803
C93   C     C_R   0.533992 0.176641 0.642722 0.567668
C94   C     C_R   0.471349 0.176239 0.353787 0.551080
C95   C     C_R   0.031546 0.677254 0.644355 0.573263
C96   C     C_R   0.969509 0.675713 0.354719 0.549941
C97   C     C_R   0.740444 0.363490 0.647319 0.566199
C98   C     C_R   0.259268 0.364257 0.352719 0.540871
C99   C     C_R   0.241257 0.864500 0.647447 0.546522
C100  C     C_R   0.773472 0.815020 0.361031 0.539463
C101  C     C_2   0.499275 0.165000 0.921556 -0.099570
C102  C     C_2   0.500588 0.166081 0.078385 -0.096774
C103  C     C_2   0.999294 0.664993 0.921567 -0.099534
C104  C     C_2   0.000606 0.666087 0.078396 -0.096990
C105  C     C_2   0.493050 0.066180 0.038925 -0.163218
C106  C     C_2   0.508373 0.066074 0.961811 -0.163709
C107  C     C_2   0.993096 0.566177 0.038941 -0.163504
C108  C     C_2   0.008418 0.566076 0.961827 -0.164089
C109  C     C_R   0.750336 0.406660 0.079241 0.014228
C110  C     C_R   0.249802 0.406151 0.920676 0.014915
C111  C     C_R   0.250339 0.906649 0.079246 0.015166
C112  C     C_R   0.749806 0.906153 0.920681 0.015097
Cr1   Cr    Cr6+3 0.769260 0.163750 0.750730 1.009259
Cr2   Cr    Cr6+3 0.230740 0.163750 0.249270 1.013880
Cr3   Cr    Cr6+3 0.269260 0.663750 0.750730 1.009403
Cr4   Cr    Cr6+3 0.730740 0.663750 0.249270 1.028217
Cr5   Cr    Cr6+3 0.612640 0.009910 0.748780 1.062458
Cr6   Cr    Cr6+3 0.387360 0.009910 0.251220 1.042819
Cr7   Cr    Cr6+3 0.112640 0.509910 0.748780 1.044500
Cr8   Cr    Cr6+3 0.887360 0.509910 0.251220 1.041033
Cr9   Cr    Cr6+3 0.614190 0.322400 0.747710 1.084818
Cr10  Cr    Cr6+3 0.385810 0.322400 0.252290 1.056782
Cr11  Cr    Cr6+3 0.114190 0.822400 0.747710 1.043485
Cr12  Cr    Cr6+3 0.885810 0.822400 0.252290 1.054817
H1    H     H_    0.474170 0.983212 0.062730 0.175282
H2    H     H_    0.528714 0.983915 0.938706 0.175921
H3    H     H_    0.974236 0.483198 0.062749 0.175253
H4    H     H_    0.028777 0.483930 0.938722 0.175160
H5    H     H_    0.963946 0.910118 0.435295 0.127711
H6    H     H_    0.084098 0.939150 0.539622 0.108191
H7    H     H_    0.436615 0.379490 0.443151 0.135729
H8    H     H_    0.545747 0.460534 0.552862 0.139581
H9    H     H_    0.659351 0.516761 0.569125 0.163774
H10   H     H_    0.347375 0.485382 0.439242 0.155611
H11   H     H_    0.169081 0.030391 0.574088 0.150795
H12   H     H_    0.856581 0.963127 0.441451 0.160968
H13   H     H_    0.676279 0.559947 0.442063 0.169897
H14   H     H_    0.328549 0.528617 0.563899 0.154846
H15   H     H_    0.184880 0.078928 0.446543 0.147541
H16   H     H_    0.839435 0.013989 0.566261 0.156951
H17   H     H_    0.918073 0.302222 0.443295 0.130557
H18   H     H_    0.055207 0.387871 0.538045 0.121061
H19   H     H_    0.428324 0.823205 0.448489 0.152471
H20   H     H_    0.610958 0.922080 0.550562 0.119706
H21   H     H_    0.823443 0.203378 0.558091 0.169634
H22   H     H_    0.138853 0.247988 0.433360 0.166804
H23   H     H_    0.331171 0.717358 0.558054 0.156895
H24   H     H_    0.612191 0.720222 0.443092 0.172921
H25   H     H_    0.909686 0.282336 0.569291 0.156357
H26   H     H_    0.071779 0.363288 0.413544 0.141706
H27   H     H_    0.414687 0.798716 0.575116 0.169824
H28   H     H_    0.624010 0.883541 0.427314 0.155036
H29   H     H_    0.520117 0.246555 0.053831 0.164011
H30   H     H_    0.478386 0.244650 0.945455 0.165330
H31   H     H_    0.020118 0.746573 0.053843 0.163968
H32   H     H_    0.978389 0.744630 0.945468 0.165322
H33   H     H_    0.811811 0.217020 0.953875 0.179163
H34   H     H_    0.188707 0.215497 0.046497 0.178090
H35   H     H_    0.311821 0.717026 0.953872 0.178832
H36   H     H_    0.688738 0.715446 0.046485 0.177766
H37   H     H_    0.831115 0.269287 0.077105 0.161644
H38   H     H_    0.169206 0.267964 0.923098 0.159496
H39   H     H_    0.331128 0.769292 0.077103 0.160525
H40   H     H_    0.669237 0.767923 0.923084 0.162610
H41   H     H_    0.589168 0.338861 0.969426 0.110180
H42   H     H_    0.411184 0.340149 0.030399 0.109826
H43   H     H_    0.089172 0.838806 0.969467 0.111287
H44   H     H_    0.911192 0.840219 0.030450 0.109496
H45   H     H_    0.583729 0.500620 0.943758 0.175982
H46   H     H_    0.416333 0.501839 0.055834 0.174364
H47   H     H_    0.083703 0.000561 0.943802 0.173359
H48   H     H_    0.916298 0.001919 0.055880 0.174950
H49   H     H_    0.498578 0.979971 0.562654 0.138199
H50   H     H_    0.495634 0.975582 0.431616 0.130449
H51   H     H_    0.963559 0.500221 0.573063 0.130086
H52   H     H_    0.957373 0.486276 0.442394 0.132186
O1    O     O_R   0.784290 0.290360 0.830540 -0.510786
O2    O     O_R   0.215710 0.290360 0.169460 -0.510303
O3    O     O_R   0.284290 0.790360 0.830540 -0.506255
O4    O     O_R   0.715710 0.790360 0.169460 -0.504688
O5    O     O_R   0.554690 0.080440 0.673480 -0.514786
O6    O     O_R   0.445310 0.080440 0.326520 -0.529633
O7    O     O_R   0.054690 0.580440 0.673480 -0.531555
O8    O     O_R   0.945310 0.580440 0.326520 -0.527590
O9    O     O_R   0.543980 0.282110 0.666770 -0.481097
O10   O     O_R   0.456020 0.282110 0.333230 -0.501174
O11   O     O_R   0.043980 0.782110 0.666770 -0.478475
O12   O     O_R   0.956020 0.782110 0.333230 -0.515435
O13   O     O_R   0.679070 0.374030 0.674430 -0.487536
O14   O     O_R   0.320930 0.374030 0.325570 -0.505931
O15   O     O_R   0.179070 0.874030 0.674430 -0.511018
O16   O     O_R   0.820930 0.874030 0.325570 -0.498079
O17   O     O_3   0.665360 0.165350 0.749070 -0.294941
O18   O     O_3   0.334640 0.165350 0.250930 -0.313524
O19   O     O_3   0.165360 0.665350 0.749070 -0.311528
O20   O     O_3   0.834640 0.665350 0.250930 -0.329045
O21   O     O_R   0.762610 0.041070 0.825230 -0.540451
O22   O     O_R   0.237390 0.041070 0.174770 -0.534671
O23   O     O_R   0.262610 0.541070 0.825230 -0.537208
O24   O     O_R   0.737390 0.541070 0.174770 -0.533308
O25   O     O_R   0.667390 0.924160 0.829970 -0.506652
O26   O     O_R   0.332610 0.924160 0.170030 -0.508380
O27   O     O_R   0.167390 0.424160 0.829970 -0.510729
O28   O     O_R   0.832610 0.424160 0.170030 -0.505384
O29   O     O_R   0.553980 0.081420 0.821780 -0.499943
O30   O     O_R   0.446020 0.081420 0.178220 -0.501458
O31   O     O_R   0.053980 0.581420 0.821780 -0.500170
O32   O     O_R   0.946020 0.581420 0.178220 -0.498967
O33   O     O_R   0.543210 0.283170 0.826740 -0.491453
O34   O     O_R   0.456790 0.283170 0.173260 -0.490206
O35   O     O_R   0.043210 0.783170 0.826740 -0.494055
O36   O     O_R   0.956790 0.783170 0.173260 -0.490156
O37   O     O_R   0.678350 0.375000 0.822720 -0.488132
O38   O     O_R   0.321650 0.375000 0.177280 -0.491287
O39   O     O_R   0.178350 0.875000 0.822720 -0.492043
O40   O     O_R   0.821650 0.875000 0.177280 -0.484773
O41   O     O_R   0.785060 0.289300 0.670580 -0.524711
O42   O     O_R   0.214940 0.289300 0.329420 -0.536041
O43   O     O_R   0.285060 0.789300 0.670580 -0.521869
O44   O     O_R   0.714940 0.789300 0.329420 -0.507898
O45   O     O_R   0.763330 0.040090 0.676940 -0.511644
O46   O     O_R   0.236670 0.040090 0.323060 -0.474089
O47   O     O_R   0.263330 0.540090 0.676940 -0.517912
O48   O     O_R   0.736670 0.540090 0.323060 -0.481165
O49   O     O_R   0.668160 0.923110 0.670000 -0.484195
O50   O     O_R   0.331840 0.923110 0.330000 -0.472932
O51   O     O_R   0.168160 0.423110 0.670000 -0.459586
O52   O     O_R   0.831840 0.423110 0.330000 -0.475977
C113  C     C_2   0.526892 0.487663 0.412638 0.573628
O53   O     O_2   0.576642 0.464766 0.373758 -0.503350
O54   O     O_R   0.497296 0.602018 0.412134 -0.662408
H53   H     H_    0.519160 0.656582 0.374863 0.336630
C114  C     C_2   0.440364 0.393490 0.581829 0.550539
O55   O     O_2   0.392498 0.323070 0.569431 -0.516476
O56   O     O_R   0.437362 0.467242 0.641960 -0.702472
H54   H     H_    0.393616 0.453032 0.671577 0.353240
C115  C     C_2   0.069210 0.955840 0.400027 0.572160
O57   O     O_2   0.117470 0.902578 0.371016 -0.471179
O58   O     O_R   0.056961 0.076603 0.384593 -0.705145
H55   H     H_    0.090700 0.109445 0.347487 0.334862
C116  C     C_2   0.975960 0.948014 0.572239 0.565599
O59   O     O_2   0.935528 0.882717 0.604959 -0.523973
O60   O     O_R   0.971162 0.072081 0.579325 -0.681407
H56   H     H_    0.937721 0.096126 0.618833 0.327824
C117  C     C_2   0.818637 0.211299 0.419027 0.602626
O61   O     O_2   0.757735 0.190217 0.435834 -0.515464
O62   O     O_R   0.847347 0.159171 0.357938 -0.666411
H57   H     H_    0.811920 0.108798 0.330930 0.357077
C118  C     C_2   0.132972 0.260242 0.572663 0.596285
O63   O     O_2   0.195623 0.238239 0.577819 -0.506474
O64   O     O_R   0.084721 0.204496 0.618068 -0.663456
H58   H     H_    0.107630 0.148002 0.653555 0.335397
C119  C     C_2   0.330361 0.732814 0.418682 0.609484
O65   O     O_2   0.267006 0.722026 0.427847 -0.509072
O66   O     O_R   0.362972 0.675563 0.361317 -0.658779
H59   H     H_    0.328729 0.628030 0.331066 0.342616
C120  C     C_2   0.586902 0.736128 0.579921 0.553402
O67   O     O_2   0.606975 0.699841 0.638130 -0.490426
O68   O     O_R   0.523770 0.695311 0.551548 -0.725012
H60   H     H_    0.497273 0.642522 0.586257 0.360622
O69   O     O_3   0.093224 0.079271 0.068985 -0.695247
H61   H     H_    0.109206 0.101024 0.117682 0.333964
O70   O     O_3   0.906537 0.081041 0.930561 -0.695941
H62   H     H_    0.890404 0.102832 0.881867 0.333508
O71   O     O_3   0.593220 0.579311 0.068943 -0.694971
H63   H     H_    0.609197 0.601063 0.117641 0.335042
O72   O     O_3   0.406539 0.581009 0.930525 -0.693663
H64   H     H_    0.390395 0.602821 0.881837 0.335572
O73   O     O_3   0.601158 0.377812 0.103084 -0.701789
H65   H     H_    0.617270 0.404512 0.150843 0.344861
O74   O     O_3   0.399191 0.379579 0.896756 -0.703179
H66   H     H_    0.382955 0.406195 0.848953 0.337877
O75   O     O_3   0.101181 0.877774 0.103133 -0.701462
H67   H     H_    0.117295 0.904493 0.150890 0.344849
O76   O     O_3   0.899213 0.879603 0.896817 -0.704459
H68   H     H_    0.882913 0.906134 0.849022 0.338567

loop_
_geom_bond_atom_site_label_1
_geom_bond_atom_site_label_2
_ccdc_geom_bond_type
C22   O74   S    
C58   C62   A    
Cr1   O1    S    
C4    C109  S    
C117  O62   S    
C67   C83   A    
O69   H61   S    
C100  O44   A    
Cr11  O39   S    
C16   H36   S    
C3    O27   A    
C41   C42   A    
C14   C18   A    
C105  C106  S    
C39   C51   S    
O58   H55   S    
C2    O26   A    
C34   C93   S    
C98   O14   A    
C53   C69   A    
C33   C94   S    
C51   H5    S    
C9    C25   S    
O64   H58   S    
C63   C79   S    
C35   C96   S    
Cr6   O50   S    
C15   C19   A    
C60   C64   A    
C49   H7    S    
Cr5   O49   S    
C118  O63   D    
Cr8   O20   S    
C81   C97   S    
C14   H34   S    
C33   C42   A    
C92   O48   A    
C13   C29   A    
Cr6   O30   S    
C96   O8    A    
C120  O67   D    
C55   C90   S    
C47   O35   A    
C8    C112  A    
C1    C112  S    
Cr9   O13   S    
C119  O65   D    
Cr4   O24   S    
Cr5   O5    S    
Cr10  O10   S    
C73   C117  S    
C23   O69   S    
C3    C110  S    
O60   H56   S    
C20   H40   S    
Cr6   O26   S    
C65   C69   A    
C86   O2    A    
O73   H65   S    
C102  C105  D    
C46   O30   A    
C116  O59   D    
C57   C73   S    
C57   C61   A    
C65   H9    S    
O62   H57   S    
C96   O12   A    
C64   C84   A    
C89   O45   A    
C41   H49   S    
C67   H11   S    
C20   C112  A    
C43   H51   S    
C22   O72   S    
C28   H48   S    
C48   O36   A    
C61   C77   S    
C56   C72   A    
Cr11  O35   S    
C3    O23   A    
O56   H54   S    
Cr10  O34   S    
Cr10  O14   S    
C103  C108  D    
C116  O60   S    
Cr9   O33   S    
Cr4   O48   S    
Cr4   O44   S    
C24   C28   S    
O71   H63   S    
Cr8   O52   S    
C29   C85   S    
C23   O75   S    
C21   O73   S    
C21   O71   S    
C17   H37   S    
C52   H6    S    
C10   C26   S    
C6    C22   S    
C97   O13   A    
O70   H62   S    
C74   H18   S    
C1    O25   A    
C83   C99   S    
C117  O61   D    
C12   C32   A    
C48   C104  S    
Cr11  O11   S    
C64   C80   S    
C5    C9    A    
Cr11  O19   S    
C100  O16   A    
C34   C41   A    
C93   O5    A    
C14   C30   A    
Cr5   O25   S    
Cr9   O17   S    
C94   O10   A    
C34   C38   A    
C113  O53   D    
C90   O50   A    
C11   C27   S    
C7    C11   A    
Cr2   O18   S    
Cr6   O6    S    
C69   H13   S    
C8    C12   A    
C2    C111  S    
C118  O64   S    
C47   C103  S    
C38   C50   S    
C82   C98   S    
Cr7   O51   S    
C51   C52   S    
C68   C84   A    
C18   C110  A    
C36   C40   A    
C31   C87   S    
C42   H50   S    
C77   H25   S    
C39   C40   A    
Cr12  O12   S    
C53   C57   A    
C45   C101  S    
C73   H17   S    
Cr12  O36   S    
Cr2   O2    S    
C46   O34   A    
Cr3   O23   S    
C60   C76   S    
C33   C37   A    
C56   C60   A    
C63   C83   A    
C68   C72   A    
C120  O68   S    
Cr9   O9    S    
Cr8   O32   S    
C6    C110  A    
C50   C114  S    
C35   C39   A    
C43   C44   A    
C86   O38   A    
C15   H35   S    
C37   C38   A    
C88   O4    A    
C85   O37   A    
O66   H59   S    
C66   C82   A    
C13   H33   S    
C37   C49   S    
C10   C30   A    
C65   C81   A    
C36   C95   S    
C54   C70   A    
C85   O1    A    
C4    O24   A    
C16   C20   A    
Cr1   O45   S    
C48   O32   A    
C53   C92   S    
C54   C58   A    
O75   H67   S    
Cr7   O27   S    
C51   C115  S    
C78   H26   S    
Cr7   O7    S    
C50   H8    S    
C68   H12   S    
C15   C31   A    
C35   C44   A    
C114  O56   S    
C102  H29   S    
C26   H46   S    
C75   H19   S    
C79   H23   S    
C76   H20   S    
Cr2   O46   S    
C56   C89   S    
O76   H68   S    
C99   O43   A    
C80   H24   S    
C95   O11   A    
C23   C27   S    
C98   O42   A    
C74   C78   S    
Cr8   O28   S    
C97   O41   A    
C59   C63   A    
Cr7   O19   S    
C32   C88   S    
C30   C86   S    
C107  C108  S    
Cr11  O15   S    
O68   H60   S    
Cr5   O17   S    
C59   C75   S    
Cr12  O16   S    
C74   C118  S    
C55   C59   A    
C58   C74   S    
Cr3   O43   S    
C119  O66   S    
Cr12  O40   S    
C79   H27   S    
C25   H45   S    
C101  C106  D    
C80   H28   S    
Cr4   O4    S    
C21   C25   S    
C19   H39   S    
C26   H42   S    
C45   O29   A    
C88   O40   A    
C91   O51   A    
C2    O22   A    
Cr1   O17   S    
Cr2   O22   S    
C62   C78   S    
C1    O21   A    
C44   H52   S    
C89   O49   A    
C75   C119  S    
C17   C109  A    
Cr10  O18   S    
C84   C100  S    
C71   H15   S    
C76   C80   S    
C90   O46   A    
C62   C82   A    
C19   C111  A    
C16   C32   A    
C76   C120  S    
C106  H2    S    
C28   H44   S    
Cr5   O29   S    
C87   O39   A    
C47   O31   A    
Cr3   O19   S    
O72   H64   S    
C25   H41   S    
C105  H1    S    
C115  O58   S    
C107  H3    S    
C54   C91   S    
Cr1   O41   S    
C40   C52   S    
C52   C116  S    
C87   O3    A    
C99   O15   A    
C9    C29   A    
C18   H38   S    
C70   H14   S    
C95   O7    A    
C66   C70   A    
C77   H21   S    
C5    C109  A    
C101  H30   S    
C7    C23   S    
C24   O70   S    
C8    C24   S    
C7    C111  A    
C67   C71   A    
C104  H31   S    
C49   C113  S    
Cr12  O20   S    
Cr3   O47   S    
Cr3   O3    S    
C4    O28   A    
C6    C10   A    
C78   H22   S    
C11   C31   A    
C13   C17   A    
Cr4   O20   S    
Cr10  O38   S    
C103  H32   S    
C72   H16   S    
Cr2   O42   S    
C5    C21   S    
C92   O52   A    
C73   C77   S    
C113  O54   S    
C49   C50   S    
C22   C26   S    
Cr6   O18   S    
C27   H43   S    
O54   H53   S    
Cr8   O8    S    
C45   O33   A    
Cr1   O21   S    
C91   O47   A    
C36   C43   A    
C61   C81   A    
Cr7   O31   S    
C94   O6    A    
C12   C28   S    
C66   H10   S    
C115  O57   D    
C27   H47   S    
C75   C79   S    
C104  C107  D    
C55   C71   A    
C108  H4    S    
O74   H66   S    
C114  O55   D    
Cr9   O37   S    
C46   C102  S    
C24   O76   S    
C93   O9    A    
