data_mof_unit_7425.cif
_audit_creation_date              2012-12-10T18:26:30-0500
_audit_creation_method            fapswitch 2.2
_symmetry_space_group_name_H-M    P1
_symmetry_Int_Tables_number       1
_space_group_crystal_system       triclinic
_cell_length_a                    14.999873
_cell_length_b                    13.973563
_cell_length_c                    23.408403
_cell_angle_alpha                 90.129156
_cell_angle_beta                  89.958246
_cell_angle_gamma                 90.48138
_cell_volume                      4906.25350093

loop_
_atom_site_label
_atom_site_type_symbol
_atom_type_description
_atom_site_fract_x
_atom_site_fract_y
_atom_site_fract_z
_atom_type_partial_charge
C1    C     C_R   0.326399 0.499701 0.499494 0.885124
C2    C     C_R   0.538216 0.577344 0.707779 0.117556
C3    C     C_R   0.494874 0.580867 0.234662 0.188060
C4    C     C_R   0.536877 0.567647 0.768393 0.177925
C5    C     C_R   0.518870 0.493397 0.208282 0.287146
C6    C     C_R   0.507447 0.480019 0.792453 0.267535
C7    C     C_R   0.815417 0.587708 0.505228 -0.273480
C8    C     C_R   0.184466 0.415000 0.484241 -0.266584
C9    C     C_R   0.769248 0.501786 0.496746 -0.060073
C10   C     C_R   0.230564 0.499663 0.496610 -0.063047
C11   C     C_R   0.814010 0.417502 0.484476 -0.232809
C12   C     C_R   0.673529 0.500460 0.499464 0.887576
C13   C     C_R   0.185625 0.585300 0.504978 -0.239164
C14   C     C_R   0.905934 0.417562 0.481879 0.077278
C15   C     C_R   0.093738 0.586933 0.502576 0.076524
C16   C     C_R   0.498426 0.500044 0.389116 0.895362
C17   C     C_R   0.502021 0.500378 0.611027 0.896876
C18   C     C_R   0.953562 0.503364 0.491768 0.038110
C19   C     C_R   0.046201 0.501477 0.491552 0.038680
C20   C     C_R   0.908235 0.590430 0.502764 0.055348
C21   C     C_R   0.091541 0.414128 0.481307 0.054834
C22   C     C_R   0.949929 0.332249 0.469909 -0.213859
C23   C     C_R   0.536904 0.412732 0.240964 -0.149096
C24   C     C_R   0.049661 0.673293 0.511649 -0.216328
C25   C     C_R   0.043151 0.328626 0.469017 0.156042
C26   C     C_R   0.956415 0.677199 0.511514 0.157921
C27   C     C_R   0.553485 0.797466 0.462906 -0.060749
C28   C     C_R   0.448106 0.202251 0.537893 -0.047895
C29   C     C_R   0.448474 0.797027 0.538083 -0.057815
C30   C     C_R   0.552701 0.203090 0.462460 -0.046745
C31   C     C_R   0.448923 0.898192 0.540962 -0.030615
C32   C     C_R   0.555261 0.101797 0.461008 -0.028871
C33   C     C_R   0.556795 0.898736 0.461884 -0.028615
C34   C     C_R   0.476825 0.405351 0.758447 -0.133658
C35   C     C_R   0.445826 0.100955 0.539347 -0.019752
C36   C     C_R   0.501964 0.949377 0.500910 -0.000056
C37   C     C_R   0.501410 0.050507 0.500632 -0.005521
C38   C     C_R   0.397511 0.948294 0.582342 0.128255
C39   C     C_R   0.610170 0.051588 0.421420 0.134432
C40   C     C_R   0.613312 0.949508 0.423266 0.132341
C41   C     C_R   0.390649 0.050012 0.578809 0.135371
C42   C     C_R   0.583533 0.442631 0.879911 0.485571
C43   C     C_R   0.436190 0.490689 0.120322 0.495619
C44   C     C_R   0.428491 0.481548 0.881682 0.508035
C45   C     C_R   0.531999 0.417353 0.299639 -0.275107
C46   C     C_R   0.592840 0.460042 0.118685 0.486538
C47   C     C_R   0.427556 0.478301 0.941250 -0.017866
C48   C     C_R   0.591197 0.449833 0.059292 -0.016171
C49   C     C_R   0.507918 0.460261 0.970305 -0.022597
C50   C     C_R   0.510184 0.464097 0.030248 -0.020470
C51   C     C_R   0.586427 0.440586 0.939524 -0.017754
C52   C     C_R   0.431704 0.483831 0.060948 -0.013134
C53   C     C_R   0.349254 0.495583 0.972286 -0.165507
C54   C     C_R   0.668595 0.427928 0.028315 -0.164261
C55   C     C_R   0.351208 0.497771 0.031697 -0.164373
C56   C     C_R   0.474672 0.415149 0.700063 -0.262581
C57   C     C_R   0.666126 0.422870 0.968905 -0.162913
C58   C     C_3   0.091532 0.235373 0.455708 -0.402371
C59   C     C_3   0.032949 0.148185 0.441651 -0.885428
C60   C     C_3   0.907664 0.771731 0.520774 -0.400498
C61   C     C_3   0.966065 0.861709 0.526194 -0.887406
C62   C     C_3   0.354716 0.893419 0.631814 -0.415006
C63   C     C_3   0.259593 0.861193 0.617695 -0.857249
C64   C     C_3   0.663615 0.106930 0.376492 -0.403666
C65   C     C_3   0.752171 0.143790 0.400721 -0.899579
C66   C     C_3   0.679052 0.894771 0.385679 -0.416926
C67   C     C_R   0.499658 0.499638 0.326586 -0.084015
C68   C     C_3   0.634897 0.858534 0.330754 -0.873347
C69   C     C_3   0.322445 0.104352 0.615029 -0.408953
C70   C     C_3   0.245274 0.140315 0.578447 -0.877975
C71   C     C_3   0.409286 0.654784 0.318688 -0.415151
C72   C     C_3   0.322535 0.610251 0.341325 -0.786688
C73   C     C_3   0.578268 0.667097 0.680039 -0.405228
C74   C     C_3   0.669042 0.646836 0.653000 -0.811193
C75   C     C_3   0.499497 0.673769 0.200404 -0.445153
C76   C     C_3   0.594102 0.695049 0.179298 -0.836128
C77   C     C_3   0.564726 0.649404 0.808001 -0.412104
C78   C     C_R   0.505039 0.499429 0.673836 -0.102561
C79   C     C_3   0.490802 0.723514 0.813357 -0.862729
C80   C     C_R   0.471688 0.579382 0.293472 0.098017
H1    H     H_    0.592023 0.754122 0.434062 0.152681
H2    H     H_    0.731448 0.415920 0.049778 0.192008
H3    H     H_    0.990105 0.129030 0.478701 0.258414
H4    H     H_    0.991218 0.162245 0.403441 0.264163
H5    H     H_    0.076131 0.085981 0.432088 0.254660
H6    H     H_    0.136528 0.247509 0.418631 0.212285
H7    H     H_    0.132733 0.216283 0.493177 0.210855
H8    H     H_    0.009231 0.857482 0.564629 0.261192
H9    H     H_    0.007465 0.871676 0.487255 0.259882
H10   H     H_    0.922784 0.925354 0.530923 0.252845
H11   H     H_    0.862030 0.783340 0.484071 0.201809
H12   H     H_    0.409686 0.245328 0.566960 0.148869
H13   H     H_    0.866821 0.766063 0.560283 0.206480
H14   H     H_    0.216147 0.923720 0.610190 0.264570
H15   H     H_    0.258686 0.815246 0.578946 0.246383
H16   H     H_    0.231847 0.819437 0.653973 0.254697
H17   H     H_    0.395018 0.830466 0.643893 0.184702
H18   H     H_    0.356261 0.935354 0.672011 0.194369
H19   H     H_    0.741097 0.190212 0.438496 0.251494
H20   H     H_    0.794926 0.083204 0.413771 0.257815
H21   H     H_    0.788040 0.186062 0.367681 0.258463
H22   H     H_    0.676825 0.063637 0.337817 0.218823
H23   H     H_    0.406430 0.753554 0.565111 0.148447
H24   H     H_    0.624333 0.166991 0.358975 0.187245
H25   H     H_    0.578185 0.809714 0.340318 0.251171
H26   H     H_    0.609753 0.919313 0.305123 0.256200
H27   H     H_    0.684369 0.818858 0.304772 0.256988
H28   H     H_    0.738473 0.938368 0.374579 0.218765
H29   H     H_    0.708949 0.834377 0.409403 0.188378
H30   H     H_    0.268610 0.190405 0.544907 0.249671
H31   H     H_    0.210612 0.079061 0.557534 0.264234
H32   H     H_    0.196646 0.178456 0.605894 0.255059
H33   H     H_    0.291354 0.061245 0.649096 0.222516
H34   H     H_    0.593065 0.246921 0.434650 0.148163
H35   H     H_    0.355045 0.164417 0.638271 0.185328
H36   H     H_    0.555874 0.346247 0.220606 0.163707
H37   H     H_    0.453606 0.339283 0.777739 0.151349
H38   H     H_    0.288543 0.569237 0.306822 0.266572
H39   H     H_    0.334238 0.561960 0.377902 0.247409
H40   H     H_    0.277325 0.667824 0.356070 0.241167
H41   H     H_    0.443147 0.697355 0.352399 0.224597
H42   H     H_    0.386600 0.706841 0.286567 0.201532
H43   H     H_    0.717215 0.625582 0.686581 0.254785
H44   H     H_    0.664825 0.588814 0.620751 0.259460
H45   H     H_    0.289980 0.512535 0.054512 0.191879
H46   H     H_    0.694636 0.712445 0.631653 0.237661
H47   H     H_    0.531729 0.698685 0.648833 0.219848
H48   H     H_    0.588555 0.726866 0.710202 0.206392
H49   H     H_    0.642328 0.690451 0.215178 0.266222
H50   H     H_    0.613896 0.645023 0.144971 0.274886
H51   H     H_    0.597287 0.768593 0.161459 0.247420
H52   H     H_    0.452947 0.670926 0.163643 0.236616
H53   H     H_    0.481826 0.737265 0.226010 0.203360
H54   H     H_    0.470832 0.751665 0.771024 0.249508
H55   H     H_    0.431339 0.690754 0.834063 0.288210
H56   H     H_    0.727170 0.407283 0.946089 0.191868
H57   H     H_    0.514378 0.784208 0.840219 0.252875
H58   H     H_    0.579797 0.624351 0.851732 0.214497
H59   H     H_    0.628282 0.682779 0.793794 0.209516
H60   H     H_    0.778042 0.651692 0.514537 0.156493
H61   H     H_    0.221982 0.350353 0.477072 0.155745
H62   H     H_    0.777218 0.351532 0.477017 0.152075
H63   H     H_    0.222187 0.650900 0.514120 0.154412
H64   H     H_    0.910173 0.268736 0.461866 0.164401
H65   H     H_    0.089323 0.737028 0.519297 0.160427
H66   H     H_    0.551574 0.355041 0.323929 0.171682
H67   H     H_    0.448847 0.355559 0.675203 0.169205
H68   H     H_    0.286635 0.508841 0.950814 0.191450
N1    N     N_R   0.506228 0.466479 0.852722 -0.351441
N2    N     N_R   0.516487 0.482729 0.147587 -0.342722
N3    N     N_R   0.500000 0.750030 0.500000 -0.109326
N4    N     N_R   0.500000 0.249970 0.500000 -0.112007
O1    O     O_R   0.367850 0.580280 0.500010 -0.626798
O2    O     O_2   0.361040 0.505497 0.150770 -0.574779
O3    O     O_2   0.353059 0.501455 0.852793 -0.565724
O4    O     O_2   0.670189 0.449451 0.147319 -0.566563
O5    O     O_R   0.632150 0.419720 0.499990 -0.624330
O6    O     O_R   0.632150 0.580280 0.499990 -0.630042
O7    O     O_R   0.367850 0.419720 0.500010 -0.626455
O8    O     O_R   0.499970 0.580290 0.416160 -0.622215
O9    O     O_R   0.500030 0.419710 0.583840 -0.621794
O10   O     O_R   0.500030 0.580290 0.583840 -0.623085
O11   O     O_R   0.499970 0.419710 0.416160 -0.627347
O12   O     O_2   0.657627 0.424036 0.849223 -0.560772
Zn1   Zn    Zn3+2 0.500000 0.607200 0.500000 0.931794
Zn2   Zn    Zn3+2 0.500000 0.392800 0.500000 0.941500

loop_
_geom_bond_atom_site_label_1
_geom_bond_atom_site_label_2
_ccdc_geom_bond_type
C74   H44   S    
C34   C56   A    
C23   C45   A    
C16   O8    A    
C73   C74   S    
C14   C18   A    
C71   H42   S    
C66   C68   S    
C65   H21   S    
C58   H7    S    
C47   C49   A    
C27   C33   A    
C64   H22   S    
C39   C64   S    
C63   H14   S    
C69   H33   S    
C36   C37   A    
C19   C21   A    
C59   H3    S    
C24   H65   S    
C7    H60   S    
C76   H51   S    
C42   O12   S    
C43   C52   A    
C62   H17   S    
C63   H15   S    
C33   C36   A    
C56   C78   A    
C29   H23   S    
C64   H24   S    
C18   C19   A    
C32   C39   A    
C49   C50   A    
C42   N1    A    
C70   H30   S    
C23   H36   S    
C62   H18   S    
C6    N1    S    
C76   H50   S    
C55   H45   S    
C28   C35   A    
C49   C51   A    
C22   C25   A    
C45   C67   A    
C50   C52   A    
C57   H56   S    
C8    H61   S    
C51   C57   A    
C68   H27   S    
C12   O5    A    
C43   O2    S    
C3    C75   S    
O9    Zn2   S    
C52   C55   A    
C42   C51   A    
C47   C53   A    
O1    Zn1   S    
C60   H13   S    
C34   H37   S    
C48   C50   A    
C74   H43   S    
C40   C66   S    
C61   H10   S    
C68   H26   S    
C3    C80   A    
C58   H6    S    
C71   C80   S    
C9    C12   S    
C61   H9    S    
C77   C79   S    
C16   O11   A    
C46   C48   A    
C33   C40   A    
C1    C10   S    
C45   H66   S    
C1    O7    A    
O11   Zn2   S    
C77   H58   S    
C65   H19   S    
C38   C41   A    
C4    C6    A    
C70   H31   S    
C39   C40   A    
C58   C59   S    
C73   H47   S    
C63   H16   S    
C53   H68   S    
C5    N2    S    
C6    C34   A    
C60   C61   S    
C48   C54   A    
C15   C19   A    
C75   C76   S    
C59   H5    S    
C62   C63   S    
C2    C78   A    
C61   H8    S    
C29   N3    A    
O10   Zn1   S    
C76   H49   S    
C30   N4    A    
C5    C23   A    
C27   H1    S    
C72   H40   S    
C75   H53   S    
C8    C21   A    
C28   H12   S    
C16   C67   S    
C32   C37   A    
C59   H4    S    
C1    O1    A    
C9    C11   A    
C43   N2    A    
C17   O9    A    
C70   H32   S    
C15   C24   A    
C46   N2    A    
C28   N4    A    
C13   C15   A    
C25   C58   S    
C53   C55   A    
C72   H38   S    
C54   H2    S    
C46   O4    S    
C75   H52   S    
C41   C69   S    
C30   H34   S    
C60   H11   S    
C7    C9    A    
C79   H54   S    
C21   C25   A    
C69   H35   S    
C27   N3    A    
C35   C37   A    
C44   O3    S    
C71   H41   S    
C67   C80   A    
C77   H59   S    
C65   H20   S    
C66   H28   S    
C3    C5    A    
C10   C13   A    
O5    Zn2   S    
N4    Zn2   S    
C44   C47   A    
C31   C38   A    
C73   H48   S    
C79   H55   S    
C44   N1    A    
O7    Zn2   S    
C64   C65   S    
C14   C22   A    
C56   H67   S    
O8    Zn1   S    
C4    C77   S    
C29   C31   A    
N3    Zn1   S    
C30   C32   A    
C24   C26   A    
C74   H46   S    
C20   C26   A    
C2    C4    A    
C72   H39   S    
C2    C73   S    
C17   C78   S    
C11   C14   A    
C18   C20   A    
C13   H63   S    
C66   H29   S    
C69   C70   S    
C35   C41   A    
C11   H62   S    
C17   O10   A    
C71   C72   S    
C8    C10   A    
C7    C20   A    
C68   H25   S    
C22   H64   S    
C31   C36   A    
C12   O6    A    
C26   C60   S    
C79   H57   S    
O6    Zn1   S    
C38   C62   S    
C54   C57   A    
