data_mof_unit_28612.cif
_audit_creation_date              2013-03-05T16:32:50-0500
_audit_creation_method            fapswitch 2.2
_symmetry_space_group_name_H-M    P1
_symmetry_Int_Tables_number       1
_space_group_crystal_system       triclinic
_cell_length_a                    19.363646
_cell_length_b                    10.879426
_cell_length_c                    9.559671
_cell_angle_alpha                 88.981494
_cell_angle_beta                  90.607732
_cell_angle_gamma                 91.253777
_cell_volume                      2012.98604144

loop_
_atom_site_label
_atom_site_type_symbol
_atom_site_description
_atom_site_fract_x
_atom_site_fract_y
_atom_site_fract_z
_atom_type_partial_charge
O1    O     O_R   0.500000 0.319640 0.618810 -0.568612
O2    O     O_R   0.500010 0.319680 0.381230 -0.533899
C1    C     C_R   0.504111 0.263041 0.500836 0.870774
O3    O     O_R   0.400140 0.499970 0.618830 -0.590652
O4    O     O_R   0.400150 0.500010 0.381250 -0.553015
C2    C     C_R   0.367650 0.502769 0.499544 0.868516
Cu1   Cu    Cu3+1 0.500000 0.499980 0.640670 0.960849
Cu2   Cu    Cu3+1 0.500000 0.500020 0.359330 1.015126
O5    O     O_R   0.499990 0.680320 0.618770 -0.579773
O6    O     O_R   0.500000 0.680360 0.381190 -0.543831
O7    O     O_R   0.599850 0.499990 0.618750 -0.596321
O8    O     O_R   0.599860 0.500030 0.381170 -0.581808
C3    C     C_R   0.500469 0.738027 0.498368 0.880748
C4    C     C_R   0.632476 0.497492 0.500502 0.796413
C5    C     C_R   0.258032 0.438904 0.608688 -0.260148
H1    H     H_    0.287941 0.392566 0.689269 0.156965
C6    C     C_R   0.186038 0.432929 0.616066 0.270452
C7    C     C_R   0.146023 0.490009 0.509666 -0.001667
C8    C     C_R   0.180121 0.556121 0.401851 -0.260555
H2    H     H_    0.150278 0.603884 0.322204 0.201753
C9    C     C_R   0.252247 0.566775 0.397827 -0.020302
C10   C     C_R   0.291724 0.503812 0.500522 -0.134872
N1    N     N_R   0.033757 0.533326 0.397915 -0.245452
N2    N     N_R   0.965134 0.529243 0.394568 -0.187904
C11   C     C_R   0.929113 0.474823 0.500437 0.408050
N3    N     N_R   0.964353 0.425258 0.610270 -0.247725
N4    N     N_R   0.033070 0.429217 0.613272 -0.189443
C12   C     C_R   0.069338 0.483566 0.507372 0.424429
C13   C     C_R   0.817622 0.478402 0.625293 -0.212460
H3    H     H_    0.845554 0.479348 0.724072 0.163041
C14   C     C_R   0.745924 0.486162 0.626523 -0.194960
H4    H     H_    0.720170 0.490375 0.726113 0.149919
C15   C     C_R   0.708228 0.488940 0.500602 -0.045224
C16   C     C_R   0.743254 0.479803 0.373604 -0.227698
H5    H     H_    0.714800 0.476799 0.275692 0.146027
C17   C     C_R   0.815178 0.471251 0.370964 0.269073
C18   C     C_R   0.853065 0.473189 0.498205 0.033683
C19   C     C_R   0.507978 0.060801 0.622956 -0.024646
C20   C     C_R   0.515081 0.131199 0.500598 -0.181683
C21   C     C_R   0.531584 0.069922 0.375673 -0.057198
C22   C     C_R   0.521838 0.940856 0.370145 0.148747
C23   C     C_R   0.506983 0.872141 0.494895 -0.111803
C24   C     C_R   0.506132 0.935072 0.620517 -0.051401
C25   C     C_3   0.461805 0.923432 0.747637 0.058263
C26   C     C_3   0.463574 0.065496 0.750267 0.055572
H6    H     H_    0.490358 0.879930 0.836429 0.119964
H7    H     H_    0.492560 0.103912 0.841235 0.167029
C27   C     C_R   0.559665 0.522628 0.074089 0.239654
N5    N     N_R   0.500440 0.500930 0.147930 -0.223570
C28   C     C_R   0.444349 0.454964 0.071547 0.065161
C29   C     C_R   0.444224 0.458950 0.923390 -0.130242
H8    H     H_    0.399568 0.425162 0.865744 0.174443
N6    N     N_R   0.500440 0.500890 0.852020 -0.200182
C30   C     C_R   0.559367 0.523924 0.927147 0.263908
C31   C     C_3   0.604111 0.636745 0.919681 -0.502094
C32   C     C_3   0.605988 0.633388 0.078567 -0.515818
H9    H     H_    0.655137 0.619562 0.872929 0.192357
H10   H     H_    0.576712 0.717264 0.874835 0.208038
H11   H     H_    0.657889 0.612819 0.122111 0.189537
H12   H     H_    0.580964 0.711671 0.125826 0.234858
N7    N     N_2   0.524599 0.882017 0.238815 -0.428918
H13   H     H_    0.565521 0.909204 0.176555 0.242544
C33   C     C_3   0.459342 0.871506 0.163517 -0.551156
H14   H     H_    0.458657 0.936922 0.073180 0.216711
H15   H     H_    0.414797 0.891425 0.231261 0.258016
H16   H     H_    0.452760 0.776771 0.123563 0.229745
N8    N     N_2   0.395537 0.863810 0.716305 -0.391649
H17   H     H_    0.361929 0.905358 0.646985 0.267763
C34   C     C_3   0.365158 0.788761 0.826751 -0.637148
H18   H     H_    0.317771 0.741241 0.786901 0.231798
H19   H     H_    0.351550 0.846408 0.916441 0.203217
H20   H     H_    0.401994 0.717762 0.862746 0.242591
N9    N     N_2   0.398533 0.126155 0.722383 -0.402749
H21   H     H_    0.373420 0.107816 0.629154 0.255574
C35   C     C_3   0.354423 0.140910 0.841673 -0.648349
H22   H     H_    0.313258 0.206662 0.814435 0.208852
H23   H     H_    0.384542 0.177740 0.931774 0.247221
H24   H     H_    0.329646 0.051825 0.871884 0.232260
C36   C     C_2   0.384248 0.391299 0.135240 0.855666
O9    O     O_2   0.392303 0.303169 0.214116 -0.572732
O10   O     O_R   0.317659 0.425210 0.094778 -0.789569
H25   H     H_    0.280435 0.373144 0.142448 0.330918
N10   N     N_2   0.154943 0.368605 0.730722 -0.424161
H26   H     H_    0.177945 0.285967 0.754110 0.246937
C37   C     C_3   0.147978 0.442558 0.853914 -0.599926
H27   H     H_    0.199741 0.469585 0.896104 0.245560
H28   H     H_    0.119684 0.388628 0.935593 0.232434
H29   H     H_    0.118354 0.526570 0.828578 0.240350
C38   C     C_2   0.283439 0.650920 0.290843 0.873443
O11   O     O_2   0.335815 0.710823 0.318085 -0.632673
O12   O     O_R   0.250965 0.665973 0.160466 -0.751016
H30   H     H_    0.276724 0.726454 0.097022 0.325838
N11   N     N_2   0.848622 0.459145 0.240130 -0.421150
H31   H     H_    0.823431 0.501629 0.157445 0.244008
C39   C     C_3   0.866727 0.334456 0.208432 -0.641053
H32   H     H_    0.819265 0.275910 0.197464 0.221757
H33   H     H_    0.900377 0.295345 0.292070 0.238523
H34   H     H_    0.895411 0.334039 0.108478 0.232718
C40   C     C_2   0.559506 0.138992 0.252132 0.884312
O13   O     O_2   0.530242 0.133186 0.138429 -0.622438
O14   O     O_R   0.618535 0.213983 0.268223 -0.771663
H35   H     H_    0.631991 0.258672 0.178266 0.319204

loop_
_geom_bond_atom_site_label_1
_geom_bond_atom_site_label_2
_geom_bond_distance
_ccdc_geom_bond_type
C31   C32   1.518751 S    
C33   H15   1.111481 S    
N11   H31   1.032029 S    
N9    H21   1.031238 S    
C39   H32   1.111778 S    
C22   N7    1.421391 S    
C24   C25   1.497146 S    
C28   C36   1.472963 S    
C21   C40   1.488612 S    
O10   H25   1.013912 S    
C39   H34   1.110438 S    
Cu1   Cu2   2.689510 S    
C9    C38   1.484732 S    
N6    C30   1.362740 A    
Cu1   O7    1.946988 S    
N3    N4    1.330388 A    
O14   H35   1.013984 S    
N10   H26   1.031965 S    
C17   C18   1.414051 A    
C8    C9    1.399776 A    
C7    C8    1.408156 A    
O1    C1    1.298519 A    
C19   C20   1.393074 A    
O7    C4    1.301794 A    
C5    H1    1.082806 S    
C2    C10   1.470642 S    
C26   N9    1.454562 S    
C16   H5    1.081709 S    
C22   C23   1.424781 A    
C34   H19   1.108630 S    
O5    C3    1.301282 A    
C19   C26   1.499819 S    
C11   C18   1.472229 S    
C17   N11   1.424021 S    
C5    C10   1.400607 A    
C40   O13   1.222451 D    
N1    N2    1.328631 A    
C14   C15   1.401349 A    
C38   O12   1.398661 S    
C37   H28   1.110324 S    
C33   H16   1.109788 S    
C1    C20   1.454640 S    
N11   C39   1.446588 S    
C9    C10   1.414368 A    
N9    C35   1.445312 S    
N7    H13   1.031077 S    
C4    C15   1.471800 S    
O3    Cu1   1.942687 S    
C3    C23   1.461591 S    
C25   H6    1.112377 S    
C15   C16   1.403055 A    
Cu1   O5    1.969433 S    
C26   H7    1.112771 S    
C29   H8    1.081530 S    
C7    C12   1.484968 S    
N2    C11   1.355332 A    
O3    C2    1.296715 A    
O12   H30   1.013637 S    
C36   O10   1.397654 S    
C28   C29   1.416205 A    
C11   N3    1.356319 A    
C37   H27   1.111988 S    
N8    H17   1.029585 S    
C29   N6    1.357054 A    
C34   H20   1.110526 S    
C27   C30   1.404493 A    
C35   H22   1.108523 S    
C13   H3    1.083324 S    
C14   H4    1.081578 S    
Cu2   O8    1.942685 S    
N7    C33   1.450942 S    
C6    C7    1.415098 A    
N1    C12   1.357769 A    
C35   H23   1.110852 S    
C27   N5    1.366969 A    
C40   O14   1.398453 S    
O8    C4    1.298220 A    
C31   H9    1.109680 S    
C23   C24   1.393329 A    
Cu1   N6    2.020563 S    
C20   C21   1.420740 A    
C25   C26   1.545851 S    
C37   H29   1.111411 S    
C27   C32   1.487334 S    
C30   C31   1.487944 S    
C21   C22   1.414538 A    
N10   C37   1.447148 S    
O1    Cu1   1.976784 S    
O2    Cu2   1.969433 S    
C33   H14   1.109404 S    
O6    C3    1.293451 A    
O4    Cu2   1.946988 S    
C39   H33   1.110805 S    
C5    C6    1.396620 A    
C32   H11   1.109519 S    
C8    H2    1.083245 S    
O2    C1    1.291718 A    
C6    N10   1.421949 S    
C19   C24   1.368143 A    
C13   C14   1.392933 A    
O4    C2    1.301107 A    
C16   C17   1.398356 A    
C34   H18   1.110492 S    
C35   H24   1.107043 S    
C36   O9    1.220878 D    
C32   H12   1.095727 S    
Cu2   O6    1.976785 S    
N5    C28   1.391161 A    
C31   H10   1.111223 S    
C13   C18   1.404312 A    
N4    C12   1.357697 A    
C25   N8    1.455797 S    
N8    C34   1.445330 S    
C38   O11   1.221737 D    
Cu2   N5    2.020870 S    
