data_mof_unit_38939.cif
_audit_creation_date              2012-12-10T20:26:26-0500
_audit_creation_method            fapswitch 2.2
_symmetry_space_group_name_H-M    P1
_symmetry_Int_Tables_number       1
_space_group_crystal_system       triclinic
_cell_length_a                    10.722236
_cell_length_b                    10.681532
_cell_length_c                    9.905991
_cell_angle_alpha                 89.499765
_cell_angle_beta                  89.383896
_cell_angle_gamma                 90.652197
_cell_volume                      1134.34867281

loop_
_atom_site_label
_atom_site_type_symbol
_atom_type_description
_atom_site_fract_x
_atom_site_fract_y
_atom_site_fract_z
_atom_type_partial_charge
C1    C     C_R   0.503794 0.260091 0.500335 0.882513
C2    C     C_R   0.523827 0.128850 0.500588 -0.104055
C3    C     C_R   0.546672 0.066375 0.378824 -0.220143
C4    C     C_R   0.546504 0.936921 0.378324 -0.208591
C5    C     C_R   0.523800 0.871601 0.499582 -0.106825
C6    C     C_R   0.524801 0.935127 0.621778 0.126568
C7    C     C_3   0.436973 0.925525 0.739773 -0.445621
C8    C     C_3   0.436433 0.067353 0.739877 -0.495692
C9    C     C_R   0.451050 0.400891 0.073232 0.136718
C10   C     C_R   0.562111 0.590869 0.068328 0.457070
C11   C     C_R   0.560020 0.591020 0.925278 -0.075357
C12   C     C_R   0.262802 0.505635 0.500386 0.943875
C13   C     C_R   0.448498 0.402099 0.931271 0.110470
C14   C     C_3   0.315926 0.354112 0.933294 -0.256907
C15   C     C_3   0.322151 0.349637 0.086773 -0.523451
C16   C     C_R   0.503988 0.739947 0.499546 0.873115
C17   C     C_R   0.737332 0.499084 0.499334 0.922758
C18   C     C_2   0.933781 0.530738 0.388529 -0.158075
C19   C     C_2   0.869301 0.493468 0.497885 -0.316999
C20   C     C_2   0.068046 0.524621 0.386441 -0.158738
C21   C     C_2   0.131855 0.525459 0.501447 -0.310053
C22   C     C_R   0.524676 0.062897 0.622273 0.143377
H1    H     H_    0.887724 0.562083 0.297245 0.180197
H2    H     H_    0.480739 0.108204 0.830651 0.208334
H3    H     H_    0.607484 0.665011 0.869048 0.158665
H4    H     H_    0.306324 0.259488 0.888867 0.142071
H5    H     H_    0.258368 0.414619 0.139673 0.221156
H6    H     H_    0.321389 0.252681 0.128498 0.195943
H7    H     H_    0.912209 0.456095 0.588040 0.176878
H8    H     H_    0.113844 0.517073 0.288663 0.178955
H9    H     H_    0.088697 0.544093 0.598522 0.182060
H10   H     H_    0.555743 0.116277 0.283469 0.177760
H11   H     H_    0.555256 0.889163 0.282796 0.212701
H12   H     H_    0.345321 0.883023 0.713403 0.210373
H13   H     H_    0.481932 0.884436 0.830277 0.217393
H14   H     H_    0.344564 0.107149 0.712671 0.206664
N1    N     N_R   0.499170 0.499140 0.142800 -0.150832
N2    N     N_R   0.499170 0.499180 0.857150 -0.132843
O1    O     O_R   0.500020 0.316790 0.614690 -0.619054
O2    O     O_R   0.500000 0.316760 0.385350 -0.621590
O3    O     O_R   0.319080 0.500020 0.614640 -0.600935
O4    O     O_R   0.319070 0.499980 0.385300 -0.617903
O5    O     O_R   0.500000 0.683240 0.614650 -0.622194
O6    O     O_R   0.499980 0.683210 0.385310 -0.621517
O7    O     O_R   0.680930 0.500020 0.614700 -0.615967
O8    O     O_R   0.680920 0.499980 0.385360 -0.646618
Zn1   Zn    Zn3+2 0.500010 0.500020 0.653130 0.967438
Zn2   Zn    Zn3+2 0.499990 0.499980 0.346870 0.953620
O9    O     O_3   0.628702 0.685302 0.128357 -0.799086
H15   H     H_    0.653595 0.655258 0.218021 0.372547
C23   C     C_2   0.220375 0.445549 0.883921 1.010552
O10   O     O_2   0.131846 0.407176 0.818850 -0.664716
O11   O     O_R   0.231142 0.572767 0.914719 -0.805959
H16   H     H_    0.160970 0.623945 0.875512 0.329948

loop_
_geom_bond_atom_site_label_1
_geom_bond_atom_site_label_2
_ccdc_geom_bond_type
C2    C22   A    
C11   N2    A    
C8    C22   S    
O11   H16   S    
C12   O3    A    
C23   O10   D    
C16   O6    A    
C15   H5    S    
C14   C23   S    
C1    O2    A    
C20   C21   D    
C9    N1    A    
C2    C3    A    
N2    Zn1   S    
C7    C8    S    
C20   H8    S    
C13   C14   S    
C14   H4    S    
N1    Zn2   S    
C21   H9    S    
C16   O5    A    
C15   H6    S    
C6    C7    S    
O5    Zn1   S    
C10   N1    A    
C12   C21   S    
C17   C19   S    
C13   N2    A    
C18   C19   D    
O4    Zn2   S    
C18   C20   S    
O7    Zn1   S    
O3    Zn1   S    
C5    C6    A    
C7    H12   S    
O8    Zn2   S    
C10   C11   A    
C1    O1    A    
C18   H1    S    
C6    C22   A    
O6    Zn2   S    
C9    C13   A    
C17   O8    A    
O1    Zn1   S    
C1    C2    S    
C8    H14   S    
O9    H15   S    
C11   H3    S    
C4    H11   S    
C5    C16   S    
C12   O4    A    
C3    H10   S    
C8    H2    S    
C14   C15   S    
C10   O9    S    
C7    H13   S    
O2    Zn2   S    
C3    C4    A    
C9    C15   S    
C17   O7    A    
C4    C5    A    
C23   O11   S    
C19   H7    S    
