data_mof_unit_52112.cif
_audit_creation_date              2012-12-10T18:47:40-0500
_audit_creation_method            fapswitch 2.2
_symmetry_space_group_name_H-M    P1
_symmetry_Int_Tables_number       1
_space_group_crystal_system       triclinic
_cell_length_a                    9.943882
_cell_length_b                    10.81385
_cell_length_c                    15.667382
_cell_angle_alpha                 91.130297
_cell_angle_beta                  67.760638
_cell_angle_gamma                 90.760929
_cell_volume                      1559.07877726

loop_
_atom_site_label
_atom_site_type_symbol
_atom_type_description
_atom_site_fract_x
_atom_site_fract_y
_atom_site_fract_z
_atom_type_partial_charge
C1    C     C_R   0.500704 0.739623 0.499566 0.883901
C2    C     C_R   0.499401 0.260462 0.500580 0.900045
C3    C     C_R   0.331852 0.538397 0.101002 -0.246334
C4    C     C_R   0.668758 0.457415 0.899115 -0.259214
C5    C     C_R   0.232046 0.555470 0.060099 -0.248349
C6    C     C_R   0.767329 0.437389 0.940366 -0.256549
C7    C     C_R   0.570185 0.938246 0.549912 0.039591
C8    C     C_R   0.432503 0.062752 0.449524 0.047685
C9    C     C_R   0.570834 0.066003 0.550181 -0.057741
C10   C     C_R   0.429187 0.934446 0.450375 -0.072296
C11   C     C_R   0.500087 0.127916 0.500783 -0.133509
C12   C     C_R   0.500612 0.872301 0.499530 -0.153697
C13   C     C_R   0.967783 0.439935 0.432243 0.119847
C14   C     C_R   0.033409 0.560316 0.568189 0.101356
C15   C     C_R   0.109131 0.438368 0.432771 0.120960
C16   C     C_R   0.888887 0.560590 0.568302 0.100621
C17   C     C_R   0.408845 0.500013 0.675357 0.865326
C18   C     C_R   0.591197 0.499278 0.324584 0.866318
C19   C     C_R   0.353284 0.504542 0.775886 -0.056036
C20   C     C_R   0.646945 0.492618 0.223996 -0.048421
C21   C     C_R   0.172152 0.559447 0.924446 -0.225138
C22   C     C_R   0.825115 0.429491 0.076367 -0.220540
C23   C     C_R   0.212624 0.543588 0.829541 -0.208440
C24   C     C_R   0.784454 0.445940 0.171107 -0.215285
C25   C     C_R   0.450613 0.478518 0.817548 -0.273747
C26   C     C_R   0.551950 0.522928 0.181550 -0.282735
C27   C     C_R   0.416797 0.501488 0.911206 0.090902
C28   C     C_R   0.584148 0.496209 0.088506 0.096346
C29   C     C_R   0.273266 0.539209 0.965538 0.186534
C30   C     C_R   0.725985 0.454158 0.034773 0.188145
C31   C     C_R   0.521896 0.488594 0.951720 0.075543
C32   C     C_R   0.479074 0.509150 0.048035 0.071597
H1    H     H_    0.121397 0.580398 0.103043 0.145782
H2    H     H_    0.877106 0.409569 0.897815 0.145446
H3    H     H_    0.452055 0.566448 0.223470 0.159018
H4    H     H_    0.553739 0.441429 0.774283 0.167265
H5    H     H_    0.858891 0.419141 0.202431 0.148333
H6    H     H_    0.135660 0.564240 0.798279 0.157734
H7    H     H_    0.063195 0.590592 0.965337 0.147075
H8    H     H_    0.932212 0.393746 0.036119 0.147614
H9    H     H_    0.288533 0.547414 0.174853 0.143994
H10   H     H_    0.712777 0.447000 0.825475 0.138829
N1    N     N_R   0.142780 0.500030 0.500020 -0.111244
N2    N     N_R   0.857220 0.499970 0.499980 -0.111584
O1    O     O_R   0.385370 0.683250 0.500010 -0.589554
O2    O     O_R   0.614630 0.316750 0.499990 -0.636863
O3    O     O_R   0.614700 0.683220 0.500000 -0.618236
O4    O     O_R   0.385300 0.316780 0.500000 -0.615700
O5    O     O_R   0.319830 0.500020 0.632250 -0.599596
O6    O     O_R   0.680170 0.499980 0.367750 -0.640150
O7    O     O_R   0.549160 0.499990 0.632240 -0.589449
O8    O     O_R   0.450840 0.500010 0.367760 -0.632129
Zn1   Zn    Zn3+2 0.346870 0.500020 0.500000 0.956219
Zn2   Zn    Zn3+2 0.653130 0.499980 0.500000 0.940310
N3    N     N_3   0.639914 0.877774 0.602698 -0.456288
H11   H     H_    0.735295 0.837333 0.556865 0.209609
H12   H     H_    0.569619 0.811999 0.645384 0.205213
N4    N     N_3   0.372344 0.127777 0.393419 -0.463046
H13   H     H_    0.425948 0.100653 0.324487 0.190406
H14   H     H_    0.261915 0.105787 0.414355 0.195810
C33   C     C_R   0.650288 0.131027 0.601383 0.194076
C34   C     C_R   0.799848 0.155035 0.557232 -0.100100
C35   C     C_R   0.878271 0.206066 0.607019 -0.143756
C36   C     C_R   0.808693 0.230643 0.701417 -0.127754
C37   C     C_R   0.660407 0.204903 0.745999 -0.159034
C38   C     C_R   0.580843 0.156367 0.696063 -0.141969
H15   H     H_    0.855461 0.133350 0.484566 0.119106
H16   H     H_    0.993313 0.224953 0.572711 0.136987
H17   H     H_    0.870024 0.268585 0.740110 0.126934
H18   H     H_    0.607016 0.222303 0.819372 0.146904
H19   H     H_    0.466360 0.135786 0.731362 0.122225
C39   C     C_R   0.349481 0.869225 0.399343 0.162622
C40   C     C_R   0.419021 0.842021 0.304925 -0.173387
C41   C     C_R   0.338992 0.794062 0.255092 -0.156890
C42   C     C_R   0.190546 0.769175 0.299717 -0.121459
C43   C     C_R   0.120999 0.795012 0.393931 -0.145479
C44   C     C_R   0.199652 0.846499 0.443420 -0.101941
H20   H     H_    0.533793 0.861430 0.269623 0.124546
H21   H     H_    0.392258 0.776027 0.181788 0.145104
H22   H     H_    0.129118 0.730985 0.261159 0.124820
H23   H     H_    0.005782 0.776969 0.428273 0.126303
H24   H     H_    0.143954 0.870131 0.515695 0.112814
N5    N     N_3   0.945937 0.383604 0.355462 -0.452874
H25   H     H_    0.934704 0.455271 0.315298 0.190676
H26   H     H_    0.852800 0.328513 0.378549 0.227172
N6    N     N_3   0.066038 0.622655 0.639459 -0.400468
H27   H     H_    0.044891 0.716797 0.638369 0.157654
H28   H     H_    0.997805 0.587455 0.702928 0.149272
N7    N     N_3   0.215968 0.371903 0.359342 -0.445263
H29   H     H_    0.289488 0.333520 0.383102 0.259290
H30   H     H_    0.268822 0.433982 0.307126 0.195973
N8    N     N_3   0.775908 0.624689 0.640078 -0.400953
H31   H     H_    0.760594 0.582263 0.702331 0.166262
H32   H     H_    0.810797 0.715036 0.644786 0.151085

loop_
_geom_bond_atom_site_label_1
_geom_bond_atom_site_label_2
_ccdc_geom_bond_type
N3    H11   S    
C27   C29   A    
C40   C41   A    
C7    N3    S    
C17   O7    A    
C18   O8    A    
C2    O2    A    
C34   C35   A    
C20   C26   A    
C34   H15   S    
C9    C33   S    
C22   C24   A    
N6    H28   S    
N4    H14   S    
C37   H18   S    
C8    N4    S    
C33   C38   A    
N1    Zn1   S    
C38   H19   S    
C5    H1    S    
C40   H20   S    
N7    H30   S    
C42   H22   S    
C16   N2    A    
O1    Zn1   S    
C7    C12   A    
C1    C12   S    
C2    C11   S    
C5    C29   A    
C21   C23   A    
O4    Zn1   S    
C41   C42   A    
C27   C31   A    
C20   C24   A    
C28   C32   A    
C43   C44   A    
C14   N6    S    
C4    C6    A    
C17   O5    A    
N6    H27   S    
C1    O3    A    
C2    O4    A    
N4    H13   S    
C21   C29   A    
C6    H2    S    
C19   C23   A    
C42   C43   A    
C39   C44   A    
C15   N7    S    
N5    H25   S    
C21   H7    S    
C13   C15   A    
C22   H8    S    
O2    Zn2   S    
N8    H32   S    
C24   H5    S    
C3    C32   A    
O6    Zn2   S    
C36   H17   S    
C9    C11   A    
C10   C12   A    
O3    Zn2   S    
N5    H26   S    
C16   N8    S    
C41   H21   S    
N3    H12   S    
C14   C16   A    
O8    Zn1   S    
C18   O6    A    
C7    C9    A    
C35   H16   S    
C3    H9    S    
C22   C30   A    
C6    C30   A    
C31   C32   A    
C39   C40   A    
C3    C5    A    
C43   H23   S    
C25   C27   A    
C23   H6    S    
C13   N5    S    
C26   C28   A    
O7    Zn2   S    
C36   C37   A    
C28   C30   A    
C15   N1    A    
C1    O1    A    
C4    H10   S    
C44   H24   S    
C8    C11   A    
O5    Zn1   S    
N8    H31   S    
C17   C19   S    
C18   C20   S    
C33   C34   A    
C19   C25   A    
C4    C31   A    
C25   H4    S    
C35   C36   A    
N2    Zn2   S    
C26   H3    S    
C8    C10   A    
C37   C38   A    
N7    H29   S    
C13   N2    A    
C14   N1    A    
C10   C39   S    
