data_mof_unit_33390.cif
_audit_creation_date              2012-12-11T17:43:55-0500
_audit_creation_method            fapswitch 2.2
_symmetry_space_group_name_H-M    P1
_symmetry_Int_Tables_number       1
_space_group_crystal_system       monoclinic
_cell_length_a                    20.222834
_cell_length_b                    22.629865
_cell_length_c                    6.944177
_cell_angle_alpha                 90.0
_cell_angle_beta                  86.61948
_cell_angle_gamma                 90.0
_cell_volume                      3172.40337137

loop_
_atom_site_label
_atom_site_type_symbol
_atom_type_description
_atom_site_fract_x
_atom_site_fract_y
_atom_site_fract_z
_atom_type_partial_charge
O1    O     O_R   0.751270 0.447300 0.600030 -0.548923
O2    O     O_R   0.248730 0.947300 0.399970 -0.548923
O3    O     O_R   0.613530 0.440160 0.952150 -0.523474
O4    O     O_R   0.386470 0.940160 0.047850 -0.523474
O5    O     O_R   0.613050 0.552700 0.122560 -0.527015
O6    O     O_R   0.386950 0.052700 0.877440 -0.527015
C1    C     C_R   0.591280 0.425357 0.787962 0.818437
C2    C     C_R   0.408720 0.925357 0.212038 0.818437
O7    O     O_R   0.750780 0.440350 0.929820 -0.547033
O8    O     O_R   0.249220 0.940350 0.070180 -0.547033
O9    O     O_R   0.751280 0.552900 0.100070 -0.551211
O10   O     O_R   0.248720 0.052900 0.899930 -0.551211
C3    C     C_R   0.773584 0.425779 0.757283 0.692178
C4    C     C_R   0.226416 0.925779 0.242717 0.692178
O11   O     O_R   0.613040 0.447100 0.622520 -0.521903
O12   O     O_R   0.386960 0.947100 0.377480 -0.521903
O13   O     O_3   0.682160 0.536920 0.777780 -0.374992
O14   O     O_3   0.317840 0.036920 0.222220 -0.374992
V1    V     V_3+5 0.682160 0.493150 0.052630 1.513685
V2    V     V_3+5 0.317840 0.993150 0.947370 1.513685
O15   O     O_R   0.750790 0.559840 0.429870 -0.545689
O16   O     O_R   0.249210 0.059840 0.570130 -0.545689
C5    C     C_R   0.773542 0.574266 0.257339 0.695017
C6    C     C_R   0.226458 0.074266 0.742661 0.695017
O17   O     O_R   0.613540 0.559650 0.452200 -0.523014
O18   O     O_R   0.386460 0.059650 0.547800 -0.523014
C7    C     C_R   0.591210 0.574408 0.287542 0.853965
C8    C     C_R   0.408789 0.074408 0.712458 0.853966
V3    V     V_3+5 0.682160 0.506850 0.552630 1.523719
V4    V     V_3+5 0.317840 0.006850 0.447370 1.523718
O19   O     O_3   0.682150 0.463080 0.277610 -0.366783
O20   O     O_3   0.317850 0.963080 0.722390 -0.366784
C9    C     C_R   0.574960 0.856157 0.084112 0.668108
C10   C     C_R   0.425040 0.356157 0.915888 0.668108
H1    H     H_    0.532699 0.942430 0.061051 0.221858
H2    H     H_    0.467301 0.442431 0.938949 0.221858
H3    H     H_    0.664655 0.769354 0.058658 0.206786
H4    H     H_    0.335345 0.269354 0.941342 0.206786
C11   C     C_R   0.463489 0.881862 0.203501 -0.198025
C12   C     C_R   0.536511 0.381862 0.796499 -0.198025
C13   C     C_R   0.470938 0.596998 0.366300 0.282317
C14   C     C_R   0.529061 0.096998 0.633700 0.282317
C15   C     C_R   0.417462 0.637778 0.377759 0.307177
C16   C     C_R   0.582538 0.137778 0.622241 0.307177
C17   C     C_R   0.424461 0.692894 0.284565 0.286312
C18   C     C_R   0.575538 0.192894 0.715435 0.286312
C19   C     C_R   0.488835 0.716463 0.245877 -0.049228
C20   C     C_R   0.511165 0.216463 0.754123 -0.049228
C21   C     C_R   0.543476 0.676373 0.236331 -0.037194
C22   C     C_R   0.456524 0.176373 0.763669 -0.037194
C23   C     C_R   0.500758 0.778273 0.212424 0.086655
C24   C     C_R   0.499242 0.278272 0.787575 0.086655
C25   C     C_R   0.564048 0.796715 0.136113 -0.040367
C26   C     C_R   0.435952 0.296715 0.863887 -0.040367
C27   C     C_R   0.615779 0.755784 0.114046 -0.075790
C28   C     C_R   0.384221 0.255784 0.885954 -0.075790
C29   C     C_R   0.606312 0.697185 0.169149 -0.121059
C30   C     C_R   0.393688 0.197185 0.830851 -0.121059
C31   C     C_R   0.452797 0.822758 0.259620 -0.153267
C32   C     C_R   0.547203 0.322758 0.740380 -0.153267
C33   C     C_R   0.524269 0.897609 0.111275 -0.131313
C34   C     C_R   0.475731 0.397609 0.888725 -0.131313
C35   C     C_R   0.534157 0.616170 0.291220 -0.282996
C36   C     C_R   0.465843 0.116170 0.708780 -0.282996
H5    H     H_    0.406723 0.811996 0.337358 0.192329
H6    H     H_    0.593277 0.311996 0.662642 0.192329
H7    H     H_    0.648841 0.668126 0.155590 0.097231
H8    H     H_    0.351159 0.168126 0.844410 0.097231
C37   C     C_R   0.172330 0.881112 0.260475 -0.053983
C38   C     C_R   0.827669 0.381112 0.739524 -0.053983
C39   C     C_R   0.137799 0.864623 0.098614 -0.213121
C40   C     C_R   0.862201 0.364623 0.901386 -0.213121
C41   C     C_R   0.086614 0.822886 0.115156 -0.102568
C42   C     C_R   0.913386 0.322886 0.884844 -0.102569
C43   C     C_R   0.068960 0.796165 0.294737 0.430431
C44   C     C_R   0.931040 0.296165 0.705263 0.430432
C45   C     C_R   0.104161 0.811978 0.454944 -0.158676
C46   C     C_R   0.895839 0.311978 0.545056 -0.158676
C47   C     C_R   0.154834 0.854197 0.438891 -0.170969
C48   C     C_R   0.845166 0.354197 0.561109 -0.170968
C49   C     C_R   0.924056 0.665971 0.365205 -0.113577
C50   C     C_R   0.075944 0.165971 0.634795 -0.113576
C51   C     C_R   0.873006 0.624235 0.382729 -0.154340
C52   C     C_R   0.126994 0.124235 0.617271 -0.154340
C53   C     C_R   0.929727 0.704669 0.205243 0.323129
C54   C     C_R   0.070273 0.204669 0.794756 0.323129
N1    N     N_2   0.017577 0.752919 0.320363 -0.276009
N2    N     N_2   0.982422 0.252919 0.679636 -0.276008
N3    N     N_2   0.981190 0.748086 0.181779 -0.210760
N4    N     N_2   0.018810 0.248086 0.818221 -0.210761
C55   C     C_R   0.827302 0.618888 0.239300 -0.112698
C56   C     C_R   0.172698 0.118888 0.760699 -0.112697
H9    H     H_    0.869876 0.595435 0.507546 0.146986
H10   H     H_    0.130124 0.095435 0.492454 0.146986
H11   H     H_    0.958912 0.667762 0.477432 0.200332
H12   H     H_    0.041088 0.167762 0.522568 0.200333
H13   H     H_    0.092019 0.791654 0.593721 0.146535
H14   H     H_    0.907981 0.291653 0.406279 0.146534
H15   H     H_    0.180671 0.865356 0.566204 0.142882
H16   H     H_    0.819329 0.365356 0.433796 0.142882
C57   C     C_R   0.832916 0.656867 0.079331 -0.286366
C58   C     C_R   0.167084 0.156866 0.920669 -0.286366
C59   C     C_R   0.883058 0.699916 0.062543 0.431662
C60   C     C_R   0.116942 0.199916 0.937457 0.431661
H17   H     H_    0.797141 0.653805 0.969697 0.179411
H18   H     H_    0.202858 0.153805 0.030303 0.179412
H19   H     H_    0.061355 0.811458 0.987141 0.166520
H20   H     H_    0.938645 0.311458 0.012859 0.166520
H21   H     H_    0.149990 0.884280 0.958810 0.137470
H22   H     H_    0.850010 0.384280 0.041190 0.137470
S1    S     S_3+6 0.885135 0.749618 0.866027 0.045817
O21   O     O_2   0.838155 0.730489 0.718152 -0.323212
O22   O     O_2   0.865406 0.809846 0.940445 -0.268498
O23   O     O_3   0.962483 0.752826 0.763758 -0.517552
H23   H     H_    0.963769 0.789798 0.687316 0.370956
S2    S     S_3+6 0.114865 0.249618 0.133973 0.045818
O24   O     O_2   0.161845 0.230489 0.281848 -0.323211
O25   O     O_2   0.134594 0.309846 0.059555 -0.268499
O26   O     O_3   0.037517 0.252826 0.236243 -0.517552
H24   H     H_    0.036230 0.289798 0.312681 0.370956
F1    F     F_    0.634348 0.874029 0.002782 -0.591743
F2    F     F_    0.365652 0.374029 0.997218 -0.591744
S3    S     S_3+6 0.458670 0.521463 0.436149 0.104715
O27   O     O_2   0.473313 0.515899 0.644842 -0.329129
O28   O     O_2   0.388666 0.502170 0.410333 -0.210912
O29   O     O_3   0.509089 0.475780 0.304843 -0.521548
H25   H     H_    0.501239 0.436145 0.362309 0.352950
S4    S     S_3+6 0.541330 0.021463 0.563851 0.104715
O30   O     O_2   0.526687 0.015899 0.355158 -0.329129
O31   O     O_2   0.611334 0.002170 0.589667 -0.210912
O32   O     O_3   0.490911 0.975780 0.695157 -0.521548
H26   H     H_    0.498760 0.936145 0.637691 0.352950
S5    S     S_3+6 0.357170 0.717437 0.148555 0.077986
O33   O     O_2   0.382906 0.752545 0.976170 -0.327396
O34   O     O_2   0.320504 0.664638 0.078221 -0.239913
O35   O     O_3   0.303847 0.759371 0.284129 -0.492704
H27   H     H_    0.269601 0.771572 0.195895 0.359566
S6    S     S_3+6 0.642830 0.217437 0.851445 0.077986
O36   O     O_2   0.617094 0.252545 0.023830 -0.327396
O37   O     O_2   0.679495 0.164638 0.921779 -0.239913
O38   O     O_3   0.696153 0.259371 0.715871 -0.492703
H28   H     H_    0.730398 0.271572 0.804105 0.359566
S7    S     S_3+6 0.343712 0.624856 0.525102 0.222814
O39   O     O_2   0.294050 0.592786 0.410851 -0.218358
O40   O     O_2   0.358307 0.588820 0.699347 -0.221589
O41   O     O_3   0.311177 0.689630 0.602103 -0.444628
H29   H     H_    0.269200 0.679107 0.674721 0.393589
S8    S     S_3+6 0.656287 0.124856 0.474898 0.222814
O42   O     O_2   0.705950 0.092786 0.589149 -0.218357
O43   O     O_2   0.641693 0.088820 0.300653 -0.221589
O44   O     O_3   0.688823 0.189630 0.397897 -0.444629
H30   H     H_    0.730800 0.179107 0.325279 0.393589

loop_
_geom_bond_atom_site_label_1
_geom_bond_atom_site_label_2
_ccdc_geom_bond_type
S7    O41   S    
O29   H25   S    
C21   C35   A    
C5    C55   S    
C9    C25   A    
C22   C36   A    
C25   C27   A    
C15   S7    S    
S1    O21   D    
S8    O44   S    
O4    C2    A    
C54   C60   A    
S4    O30   D    
O23   H23   S    
C21   C29   A    
S3    O27   D    
C19   C21   A    
O9    V1    S    
C42   C44   A    
C12   C32   A    
C47   H15   S    
C55   C57   A    
O3    C1    A    
V2    O20   S    
C49   H11   S    
C46   C48   A    
S3    O28   D    
C3    C38   S    
O12   V4    S    
S7    O39   D    
C51   H9    S    
C10   C34   A    
C12   C34   A    
S2    O24   D    
C59   S1    S    
C37   C39   A    
O7    C3    A    
C24   C32   A    
O13   V1    S    
O5    C7    A    
O7    V1    S    
O6    C8    A    
O8    V2    S    
C46   H14   S    
S5    O35   S    
O44   H30   S    
C32   H6    S    
O3    V1    S    
O14   V4    S    
C2    C11   S    
C28   C30   A    
C44   N2    S    
C53   C59   A    
C56   C58   A    
C18   S6    S    
C45   C47   A    
V1    O19   S    
C2    O12   A    
C60   S2    S    
C48   H16   S    
C9    F1    S    
C41   C43   A    
C14   C16   A    
C29   H7    S    
H2    C34   S    
C6    C56   S    
C49   C51   A    
C24   C26   A    
O11   V3    S    
C23   C31   A    
C18   C20   A    
C17   C19   A    
O17   V3    S    
C11   C33   A    
C40   H22   S    
C57   H17   S    
C50   H12   S    
C38   C48   A    
C22   C30   A    
S8    O42   D    
C40   C42   A    
C54   N4    S    
C39   C41   A    
C53   N3    S    
S3    O29   S    
C19   C23   A    
C1    O11   A    
C16   C18   A    
C50   C54   A    
O15   V3    S    
C23   C25   A    
H3    C27   S    
C43   C45   A    
C1    C12   S    
C11   C31   A    
S8    O43   D    
O10   V2    S    
O1    V3    S    
S1    O22   D    
C52   H10   S    
C58   C60   A    
C20   C22   A    
C15   C17   A    
C7    C35   S    
C8    C36   S    
C30   H8    S    
N2    N4    D    
C10   C26   A    
C50   C52   A    
C27   C29   A    
O8    C4    A    
S5    O33   D    
C4    C37   S    
O16   C6    A    
C37   C47   A    
O1    C3    A    
C13   C35   A    
O32   H26   S    
S6    O37   D    
S4    O32   S    
C14   C36   A    
C51   C55   A    
O41   H29   S    
C57   C59   A    
C43   N1    S    
S7    O40   D    
O16   V4    S    
O18   C8    A    
C13   C15   A    
C44   C46   A    
O35   H27   S    
S6    O38   S    
S4    O31   D    
O26   H24   S    
C26   C28   A    
O18   V4    S    
O5    V1    S    
C14   S4    S    
O17   C7    A    
O6    V2    S    
O10   C6    A    
C17   S5    S    
S2    O26   S    
O2    V4    S    
C13   S3    S    
O15   C5    A    
V3    O19   S    
O13   V3    S    
C31   H5    S    
V4    O20   S    
H1    C33   S    
C9    C33   A    
C39   H21   S    
O9    C5    A    
C16   S8    S    
S2    O25   D    
C58   H18   S    
S1    O23   S    
O14   V2    S    
O2    C4    A    
C41   H19   S    
S6    O36   D    
C42   H20   S    
O4    V2    S    
C20   C24   A    
H4    C28   S    
C10   F2    S    
S5    O34   D    
N1    N3    D    
C38   C40   A    
C45   H13   S    
C52   C56   A    
O38   H28   S    
C49   C53   A    
