data_mof_unit_24504.cif
_audit_creation_date              2012-12-10T18:55:12-0500
_audit_creation_method            fapswitch 2.2
_symmetry_space_group_name_H-M    P1
_symmetry_Int_Tables_number       1
_space_group_crystal_system       triclinic
_cell_length_a                    10.717604
_cell_length_b                    9.985643
_cell_length_c                    27.728848
_cell_angle_alpha                 89.974048
_cell_angle_beta                  93.714417
_cell_angle_gamma                 90.003377
_cell_volume                      2961.36721078

loop_
_atom_site_label
_atom_site_type_symbol
_atom_type_description
_atom_site_fract_x
_atom_site_fract_y
_atom_site_fract_z
_atom_type_partial_charge
C1    C     C_R   0.260284 0.499999 0.499835 0.863426
C2    C     C_R   0.739716 0.500003 0.500165 0.863450
C3    C     C_R   0.498208 0.500238 0.101793 -0.051640
C4    C     C_R   0.501413 0.499886 0.898210 -0.051641
C5    C     C_R   0.384342 0.491689 0.124297 -0.020986
C6    C     C_R   0.615206 0.490220 0.875713 -0.020927
C7    C     C_R   0.272021 0.482584 0.096141 -0.137239
C8    C     C_R   0.727449 0.480164 0.903875 -0.137270
C9    C     C_R   0.611279 0.508933 0.130482 -0.023768
C10   C     C_R   0.388422 0.509556 0.869516 -0.023704
C11   C     C_R   0.498023 0.500178 0.353436 -0.035868
C12   C     C_R   0.501872 0.499994 0.646560 -0.035854
C13   C     C_R   0.384723 0.504265 0.971346 0.045834
C14   C     C_R   0.614924 0.503318 0.028655 0.045848
C15   C     C_R   0.615697 0.495591 0.977663 0.047219
C16   C     C_R   0.383889 0.496730 0.022343 0.047227
C17   C     C_R   0.500608 0.499905 0.949279 0.070876
C18   C     C_R   0.499009 0.500090 0.050725 0.070873
C19   C     C_R   0.273304 0.517255 0.941437 -0.214298
C20   C     C_R   0.726443 0.515401 0.058556 -0.214246
C21   C     C_R   0.275389 0.519582 0.891509 -0.132959
C22   C     C_R   0.724383 0.517885 0.108483 -0.132942
C23   C     C_R   0.499376 0.500038 0.406184 0.865291
C24   C     C_R   0.500608 0.499982 0.593816 0.865276
C25   C     C_R   0.271526 0.484780 0.046137 -0.214676
C26   C     C_R   0.727960 0.482523 0.953878 -0.214739
C27   C     C_R   0.063845 0.377877 0.499766 -0.187595
C28   C     C_R   0.936155 0.622134 0.500237 -0.187731
C29   C     C_R   0.936089 0.377878 0.499935 -0.187533
C30   C     C_R   0.063911 0.622133 0.500062 -0.187676
C31   C     C_R   0.872423 0.500006 0.500156 -0.007746
C32   C     C_R   0.127577 0.500002 0.499844 -0.007739
C33   C     C_R   0.580626 0.071686 0.531168 0.201109
C34   C     C_R   0.419453 0.928303 0.468801 0.199667
C35   C     C_R   0.419380 0.071754 0.468828 0.201108
C36   C     C_R   0.580548 0.928235 0.531199 0.199724
C37   C     C_R   0.385776 0.491596 0.174778 0.504468
C38   C     C_R   0.613783 0.490049 0.825232 0.504403
C39   C     C_R   0.608306 0.509279 0.180832 0.506030
C40   C     C_R   0.391406 0.509795 0.819165 0.505962
C41   C     C_R   0.490455 0.379050 0.277731 -0.103576
C42   C     C_R   0.495778 0.621284 0.721907 -0.104125
C43   C     C_R   0.491571 0.378689 0.327858 -0.212825
C44   C     C_R   0.495139 0.621496 0.671793 -0.212891
C45   C     C_R   0.502978 0.621844 0.328156 -0.212689
C46   C     C_R   0.509985 0.378552 0.672179 -0.212998
C47   C     C_R   0.502199 0.621750 0.278037 -0.104253
C48   C     C_R   0.511024 0.378804 0.722305 -0.103042
C49   C     C_R   0.496053 0.500456 0.252947 0.327626
C50   C     C_R   0.503624 0.500041 0.747049 0.326940
H1    H     H_    0.507880 0.716867 0.346998 0.165162
H2    H     H_    0.515520 0.283579 0.653606 0.163515
H3    H     H_    0.506510 0.715599 0.258630 0.136156
H4    H     H_    0.516992 0.285073 0.741978 0.136388
H5    H     H_    0.183483 0.473633 0.112652 0.188423
H6    H     H_    0.815914 0.470353 0.887371 0.188499
H7    H     H_    0.488896 0.716468 0.652913 0.165353
H8    H     H_    0.487452 0.283577 0.346463 0.163730
H9    H     H_    0.490080 0.715004 0.741277 0.136513
H10   H     H_    0.485810 0.285283 0.258090 0.136042
H11   H     H_    0.187515 0.529379 0.870176 0.193685
H12   H     H_    0.812334 0.526939 0.129810 0.193663
H13   H     H_    0.182535 0.529010 0.955416 0.139899
H14   H     H_    0.817299 0.526301 0.044570 0.139794
H15   H     H_    0.181184 0.473782 0.027204 0.138192
H16   H     H_    0.818210 0.470761 0.972818 0.138285
H17   H     H_    0.112131 0.282579 0.499615 0.161456
H18   H     H_    0.887866 0.717432 0.500396 0.161482
H19   H     H_    0.887750 0.282579 0.499843 0.161533
H20   H     H_    0.112253 0.717432 0.500147 0.161557
N1    N     N_R   0.496681 0.500497 0.201664 -0.359608
N2    N     N_R   0.502962 0.499967 0.798335 -0.359495
N3    N     N_R   0.500000 0.857200 0.500000 -0.117566
N4    N     N_R   0.500000 0.142800 0.500000 -0.117305
O1    O     O_R   0.316770 0.614620 0.500000 -0.631327
O2    O     O_R   0.683230 0.385380 0.500000 -0.630941
O3    O     O_R   0.683230 0.614620 0.500000 -0.631269
O4    O     O_R   0.316770 0.385380 0.500000 -0.630905
O5    O     O_R   0.500030 0.614650 0.428760 -0.626523
O6    O     O_R   0.499970 0.385350 0.571240 -0.625836
O7    O     O_R   0.499970 0.614650 0.571240 -0.626570
O8    O     O_R   0.500030 0.385350 0.428760 -0.625919
O9    O     O_2   0.277535 0.483189 0.196931 -0.550288
O10   O     O_2   0.721971 0.480658 0.803090 -0.550474
O11   O     O_2   0.283966 0.519179 0.791139 -0.547197
O12   O     O_2   0.715811 0.517769 0.208855 -0.546996
Zn1   Zn    Zn3+2 0.500000 0.653120 0.500000 0.938207
Zn2   Zn    Zn3+2 0.500000 0.346880 0.500000 0.939048
C51   C     C_3   0.672003 0.142579 0.566353 -0.825764
H21   H     H_    0.667841 0.250937 0.564961 0.288222
H22   H     H_    0.653831 0.114736 0.603997 0.214590
H23   H     H_    0.769306 0.115396 0.558966 0.212275
C52   C     C_3   0.328510 0.857382 0.433454 -0.823614
H24   H     H_    0.332141 0.749031 0.435065 0.288569
H25   H     H_    0.231080 0.885066 0.440462 0.211958
H26   H     H_    0.347701 0.884624 0.395850 0.215735
C53   C     C_3   0.328065 0.142717 0.433615 -0.825493
H27   H     H_    0.332041 0.251074 0.435064 0.288219
H28   H     H_    0.346473 0.115148 0.395977 0.214752
H29   H     H_    0.230747 0.115324 0.440913 0.212111
C54   C     C_3   0.671451 0.857244 0.566566 -0.823361
H30   H     H_    0.667982 0.748896 0.564909 0.288547
H31   H     H_    0.768887 0.885115 0.559631 0.211779
H32   H     H_    0.652070 0.884236 0.604166 0.215934

loop_
_geom_bond_atom_site_label_1
_geom_bond_atom_site_label_2
_ccdc_geom_bond_type
C35   N4    A    
C52   H24   S    
C23   O8    A    
C5    C37   A    
C27   C29   A    
C8    C26   A    
C14   C18   A    
C34   C52   S    
C7    H5    S    
C8    H6    S    
O5    Zn1   S    
C53   H27   S    
C47   C49   A    
C48   H4    S    
C54   H30   S    
C28   H18   S    
C9    C22   A    
C45   H1    S    
C46   H2    S    
C9    C39   A    
C33   C36   A    
C3    C18   A    
C10   C40   A    
C34   C35   A    
C12   C44   A    
C50   N2    S    
N3    Zn1   S    
C43   H8    S    
C53   H28   S    
C24   O6    A    
C19   H13   S    
C6    C38   A    
C11   C43   A    
C51   H22   S    
O2    Zn2   S    
C21   H11   S    
C47   H3    S    
C48   C50   A    
C54   H31   S    
C1    O4    A    
C41   C43   A    
C42   C44   A    
C41   C49   A    
C30   H20   S    
C29   H19   S    
C45   C47   A    
C10   C21   A    
C38   N2    A    
C13   C19   A    
C26   H16   S    
C14   C20   A    
C25   H15   S    
C4    C6    A    
C5    C7    A    
C15   C26   A    
C6    C8    A    
C1    C32   S    
C36   C54   S    
C12   C46   A    
C1    O1    A    
C40   O11   S    
C20   H14   S    
C24   O7    A    
C3    C9    A    
C33   C51   S    
C22   H12   S    
C44   H7    S    
C29   C31   A    
C16   C18   A    
C51   H23   S    
O7    Zn1   S    
C42   C50   A    
C4    C17   A    
O1    Zn1   S    
C20   C22   A    
C52   H26   S    
C37   N1    A    
C11   C45   A    
C4    C10   A    
C53   H29   S    
C2    O2    A    
O4    Zn2   S    
C16   C25   A    
C15   C17   A    
C40   N2    A    
C38   O10   S    
C27   C32   A    
C28   C31   A    
C37   O9    S    
C41   H10   S    
C3    C5    A    
C42   H9    S    
C54   H32   S    
C12   C24   S    
C7    C25   A    
C13   C17   A    
C23   O5    A    
C28   C30   A    
O6    Zn2   S    
C2    O3    A    
C30   C32   A    
O8    Zn2   S    
C11   C23   S    
C27   H17   S    
C36   N3    A    
C34   N3    A    
C46   C48   A    
C33   N4    A    
O3    Zn1   S    
C52   H25   S    
C49   N1    S    
C13   C16   A    
C39   N1    A    
C14   C15   A    
C2    C31   S    
C39   O12   S    
N4    Zn2   S    
C51   H21   S    
C35   C53   S    
C19   C21   A    
