data_mof_unit_26601.cif
_audit_creation_date              2012-12-11T14:39:38-0500
_audit_creation_method            fapswitch 2.2
_symmetry_space_group_name_H-M    P1
_symmetry_Int_Tables_number       1
_space_group_crystal_system       triclinic
_cell_length_a                    7.222215
_cell_length_b                    14.108013
_cell_length_c                    16.290362
_cell_angle_alpha                 89.999965
_cell_angle_beta                  97.410451
_cell_angle_gamma                 90.000034
_cell_volume                      1645.97936991

loop_
_atom_site_label
_atom_site_type_symbol
_atom_type_description
_atom_site_fract_x
_atom_site_fract_y
_atom_site_fract_z
_atom_type_partial_charge
O1    O     O_R   0.525340 0.338340 0.164530 -0.551030
O2    O     O_R   0.474660 0.661660 0.835470 -0.551030
O3    O     O_R   0.974660 0.838340 0.835470 -0.551030
O4    O     O_R   0.025340 0.161660 0.164530 -0.551030
O5    O     O_R   0.253520 0.352000 0.336710 -0.545500
O6    O     O_R   0.746480 0.648000 0.663290 -0.545499
O7    O     O_R   0.246480 0.852000 0.663290 -0.545500
O8    O     O_R   0.753520 0.148000 0.336710 -0.545500
O9    O     O_R   0.083330 0.168380 0.337300 -0.538703
O10   O     O_R   0.916670 0.831620 0.662700 -0.538703
O11   O     O_R   0.416670 0.668380 0.662700 -0.538703
O12   O     O_R   0.583330 0.331620 0.337300 -0.538703
C1    C     C_R   0.432358 0.368631 0.363708 0.669071
C2    C     C_R   0.567642 0.631369 0.636292 0.669071
C3    C     C_R   0.067642 0.868631 0.636292 0.669071
C4    C     C_R   0.932357 0.131369 0.363708 0.669071
O13   O     O_R   0.195840 0.349670 0.165140 -0.508988
O14   O     O_R   0.804160 0.650330 0.834860 -0.508988
O15   O     O_R   0.304160 0.849670 0.834860 -0.508988
O16   O     O_R   0.695840 0.150330 0.165140 -0.508988
C5    C     C_R   0.357712 0.373614 0.139069 0.697338
C6    C     C_R   0.642288 0.626386 0.860931 0.697338
C7    C     C_R   0.142288 0.873614 0.860931 0.697338
C8    C     C_R   0.857712 0.126386 0.139069 0.697338
O17   O     O_3   0.387830 0.193120 0.250910 -0.372049
O18   O     O_3   0.612170 0.806880 0.749090 -0.372049
O19   O     O_3   0.112170 0.693120 0.749090 -0.372049
O20   O     O_3   0.887830 0.306880 0.250910 -0.372049
V1    V     V_3+5 0.113010 0.264540 0.250910 1.489601
V2    V     V_3+5 0.886990 0.735460 0.749090 1.489601
V3    V     V_3+5 0.386990 0.764540 0.749090 1.489602
V4    V     V_3+5 0.613010 0.235460 0.250910 1.489602
H1    H     H_    0.768886 0.809217 0.266935 0.161103
H2    H     H_    0.231114 0.190783 0.733065 0.161103
H3    H     H_    0.731121 0.309217 0.733065 0.161103
H4    H     H_    0.268879 0.690782 0.266935 0.161103
C9    C     C_R   0.077228 0.195401 0.527446 -0.147684
C10   C     C_R   0.922772 0.804599 0.472554 -0.147684
C11   C     C_R   0.422769 0.695400 0.472554 -0.147683
C12   C     C_R   0.577231 0.304600 0.527446 -0.147683
C13   C     C_R   0.146524 0.228100 0.606135 -0.119187
C14   C     C_R   0.853476 0.771900 0.393865 -0.119187
C15   C     C_R   0.353471 0.728100 0.393866 -0.119187
C16   C     C_R   0.646529 0.271900 0.606134 -0.119187
C17   C     C_R   0.178176 0.165012 0.671931 -0.103090
C18   C     C_R   0.821824 0.834988 0.328069 -0.103090
C19   C     C_R   0.321819 0.665012 0.328070 -0.103089
C20   C     C_R   0.678181 0.334988 0.671930 -0.103089
C21   C     C_R   0.140740 0.068805 0.659465 -0.128805
C22   C     C_R   0.859260 0.931195 0.340535 -0.128805
C23   C     C_R   0.359257 0.568805 0.340535 -0.128806
C24   C     C_R   0.640743 0.431195 0.659465 -0.128806
C25   C     C_R   0.071937 0.033447 0.579987 0.052111
C26   C     C_R   0.928063 0.966553 0.420013 0.052111
C27   C     C_R   0.428061 0.533447 0.420013 0.052111
C28   C     C_R   0.571939 0.466553 0.579987 0.052111
C29   C     C_R   0.039574 0.097836 0.512768 0.056834
C30   C     C_R   0.960426 0.902164 0.487232 0.056834
C31   C     C_R   0.460425 0.597836 0.487232 0.056834
C32   C     C_R   0.539575 0.402164 0.512768 0.056834
C33   C     C_R   0.032258 0.935875 0.566983 -0.166726
C34   C     C_R   0.967742 0.064125 0.433017 -0.166726
C35   C     C_R   0.467742 0.435875 0.433017 -0.166727
C36   C     C_R   0.532258 0.564125 0.566983 -0.166727
H5    H     H_    0.052561 0.247635 0.478658 0.117547
H6    H     H_    0.947439 0.752365 0.521342 0.117547
H7    H     H_    0.447436 0.747635 0.521342 0.117547
H8    H     H_    0.552564 0.252365 0.478658 0.117547
H9    H     H_    0.174934 0.302859 0.616144 0.137934
H10   H     H_    0.825066 0.697141 0.383856 0.137934
H11   H     H_    0.325060 0.802859 0.383857 0.137934
H12   H     H_    0.674940 0.197141 0.616143 0.137934
H13   H     H_    0.165300 0.022794 0.712875 0.128007
H14   H     H_    0.834700 0.977206 0.287124 0.128007
H15   H     H_    0.334696 0.522794 0.287125 0.128008
H16   H     H_    0.665303 0.477206 0.712875 0.128008
C37   C     C_2   0.145258 0.952133 0.921764 0.122648
C38   C     C_2   0.854742 0.047866 0.078236 0.122648
C39   C     C_2   0.354742 0.452133 0.078236 0.122648
C40   C     C_2   0.645258 0.547866 0.921764 0.122648
C41   C     C_2   0.008127 0.959764 0.971086 -0.106553
C42   C     C_2   0.991873 0.040236 0.028913 -0.106552
C43   C     C_2   0.491873 0.459764 0.028913 -0.106553
C44   C     C_2   0.508127 0.540236 0.971086 -0.106553
H17   H     H_    0.096109 0.095887 0.031664 0.177453
H18   H     H_    0.903891 0.904112 0.968336 0.177452
H19   H     H_    0.403891 0.595887 0.968336 0.177453
H20   H     H_    0.596109 0.404112 0.031664 0.177453
Br1   Br    Br    0.665563 0.952091 0.080809 -0.521333
Br2   Br    Br    0.334437 0.047909 0.919191 -0.521332
Br3   Br    Br    0.834437 0.452091 0.919191 -0.521333
Br4   Br    Br    0.165563 0.547909 0.080809 -0.521333

loop_
_geom_bond_atom_site_label_1
_geom_bond_atom_site_label_2
_ccdc_geom_bond_type
O1    C5    A    
C12   C32   A    
C27   C31   A    
O13   V1    S    
O3    C7    A    
C44   H19   S    
C40   C44   D    
O15   V3    S    
C41   C42   S    
C29   C34   A    
C31   C36   A    
C22   C26   A    
C32   C35   A    
O20   V1    S    
O9    C4    A    
C23   H15   S    
C10   C14   A    
O10   C3    A    
C22   H14   S    
C26   C30   A    
O4    C8    A    
O11   C2    A    
C14   H10   S    
H4    C19   S    
C14   C18   A    
O10   V2    S    
C10   C30   A    
C25   C33   A    
O16   C8    A    
C27   C35   A    
O2    C6    A    
C28   C36   A    
O14   V2    S    
C37   C41   D    
C12   C16   A    
O5    C1    A    
C41   H18   S    
O9    V1    S    
C30   C33   A    
O7    C3    A    
C43   H20   S    
O11   V3    S    
O18   V3    S    
O8    C4    A    
O12   V4    S    
O19   V2    S    
H1    C18   S    
C4    C34   S    
H3    C20   S    
O5    V1    S    
C38   Br1   S    
C37   Br2   S    
O7    V3    S    
O8    V4    S    
C10   H6    S    
C25   C29   A    
C19   C23   A    
C26   C34   A    
O1    V4    S    
O13   C5    A    
C28   C32   A    
C9    H5    S    
O2    V3    S    
O3    V2    S    
O15   C7    A    
O6    C2    A    
C38   C42   D    
C43   C44   S    
C1    C35   S    
C17   C21   A    
C11   C31   A    
C5    C39   S    
C3    C33   S    
H2    C17   S    
C7    C37   S    
C39   Br4   S    
C2    C36   S    
C8    C38   S    
O6    V2    S    
C21   H13   S    
C13   H9    S    
O16   V4    S    
C15   H11   S    
O14   C6    A    
C11   H7    S    
O4    V1    S    
C24   H16   S    
C11   C15   A    
C42   H17   S    
C18   C22   A    
C40   Br3   S    
C6    C40   S    
C39   C43   D    
O17   V4    S    
C21   C25   A    
C16   H12   S    
C23   C27   A    
C9    C13   A    
C16   C20   A    
C20   C24   A    
O12   C1    A    
C12   H8    S    
C13   C17   A    
C15   C19   A    
C9    C29   A    
C24   C28   A    
