data_mof_unit_65601.cif
_audit_creation_date              2012-12-10T18:27:55-0500
_audit_creation_method            fapswitch 2.2
_symmetry_space_group_name_H-M    P1
_symmetry_Int_Tables_number       1
_space_group_crystal_system       triclinic
_cell_length_a                    18.209985
_cell_length_b                    18.255673
_cell_length_c                    18.163875
_cell_angle_alpha                 90.227365
_cell_angle_beta                  119.615601
_cell_angle_gamma                 119.975156
_cell_volume                      4287.57799895

loop_
_atom_site_label
_atom_site_type_symbol
_atom_type_description
_atom_site_fract_x
_atom_site_fract_y
_atom_site_fract_z
_atom_type_partial_charge
C1    C     C_R   0.782362 0.640866 0.640573 0.950575
C2    C     C_3   0.059820 0.244420 0.356748 0.169267
C3    C     C_3   0.102364 0.300149 0.305029 -0.068122
C4    C     C_R   0.217736 0.358769 0.360548 0.852046
C5    C     C_3   0.898133 0.197319 0.201132 -0.097904
C6    C     C_3   0.943714 0.187184 0.150589 0.239789
C7    C     C_3   0.939177 0.174179 0.291120 0.281018
C8    C     C_3   0.613529 0.329732 0.770049 -0.162410
C9    C     C_3   0.611848 0.267817 0.828295 -0.416330
C10   C     C_3   0.456347 0.310564 0.749031 -0.425256
C11   C     C_3   0.432251 0.200511 0.641020 -0.355726
C12   C     C_3   0.594850 0.828772 0.801551 -0.275105
C13   C     C_3   0.501109 0.300951 0.698762 0.072398
C14   C     C_3   0.499936 0.199521 0.801281 0.082198
C15   C     C_3   0.454731 0.250552 0.809329 -0.172185
C16   C     C_R   0.500846 0.641232 0.359160 0.962846
C17   C     C_3   0.432424 0.141507 0.700997 -0.364168
C18   C     C_3   0.937706 0.779225 0.771415 0.121496
C19   C     C_3   0.057245 0.844843 0.827414 0.131702
C20   C     C_3   0.942248 0.645219 0.743634 0.607362
C21   C     C_3   0.942092 0.743232 0.639827 -0.382985
C22   C     C_3   0.897918 0.699491 0.696367 -0.269032
C23   C     C_3   0.524923 0.791868 0.697684 0.330314
C24   C     C_3   0.102185 0.804359 0.799780 -0.235106
C25   C     C_3   0.061820 0.709601 0.808903 -0.437803
C26   C     C_3   0.061768 0.795171 0.698106 0.587691
C27   C     C_3   0.573017 0.358459 0.272435 0.185584
C28   C     C_R   0.500386 0.358781 0.641073 0.762825
C29   C     C_3   0.561983 0.297272 0.204077 -0.499594
C30   C     C_3   0.536756 0.242862 0.355673 -0.173998
C31   C     C_3   0.389205 0.236188 0.211246 0.108615
C32   C     C_3   0.500162 0.299967 0.302153 -0.155910
C33   C     C_3   0.500884 0.197883 0.200715 -0.125353
C34   C     C_3   0.430387 0.765838 0.697205 0.438491
C35   C     C_3   0.553722 0.193484 0.299416 0.200648
C36   C     C_3   0.387211 0.165660 0.161513 -0.231971
C37   C     C_3   0.579373 0.714894 0.274663 0.614361
C38   C     C_3   0.583797 0.780978 0.220700 0.219945
C39   C     C_3   0.388231 0.650486 0.213063 0.167190
C40   C     C_R   0.498835 0.358593 0.357341 0.841768
C41   C     C_3   0.535718 0.788471 0.350276 -0.578647
C42   C     C_3   0.501191 0.696722 0.299602 -0.256711
C43   C     C_3   0.496621 0.796562 0.194827 -0.336078
C44   C     C_3   0.387846 0.701560 0.143962 0.199242
C45   C     C_3   0.405657 0.671920 0.698698 -0.322583
C46   C     C_3   0.524271 0.844967 0.287016 0.188860
C47   C     C_R   0.499626 0.141182 0.858722 0.757398
C48   C     C_R   0.497682 0.856417 0.138738 0.927153
C49   C     C_R   0.782340 0.140956 0.140877 0.822664
C50   C     C_R   0.217605 0.860914 0.858734 0.896920
C51   C     C_R   0.500582 0.141163 0.142116 0.862099
C52   C     C_R   0.500227 0.641544 0.641716 0.895710
C53   C     C_R   0.499782 0.858503 0.858260 0.872016
C54   C     C_3   0.569744 0.734725 0.802794 0.461969
C55   C     C_3   0.475102 0.708153 0.803134 -0.209465
C56   C     C_3   0.501021 0.698920 0.699644 -0.206883
C57   C     C_3   0.499272 0.801443 0.800364 -0.183735
C58   C     C_1   0.891104 0.177793 0.335727 0.176198
C59   C     C_1   0.665870 0.329967 0.728538 0.225340
C60   C     C_1   0.509702 0.304981 0.902835 0.232444
C61   C     C_1   0.894381 0.683808 0.550929 0.526583
C62   C     C_1   0.630900 0.299712 0.448407 0.219360
C63   C     C_1   0.665096 0.235491 0.339785 0.311884
C64   C     C_1   0.324764 0.148007 0.063475 0.262838
C65   C     C_1   0.458529 0.177487 0.370362 0.375220
C66   C     C_1   0.445169 0.857586 0.274555 0.340315
C67   C     C_3   0.059304 0.358162 0.279212 -0.459037
C68   C     C_1   0.298997 0.707967 0.105539 0.210820
C69   C     C_3   0.940740 0.298654 0.226878 -0.537235
C70   C     C_3   0.061543 0.235765 0.217430 -0.343904
Cl1   Cl    Cl    0.126093 0.195594 0.419006 -0.475020
Cl2   Cl    Cl    0.103913 0.740797 0.660177 -0.440338
Cl3   Cl    Cl    0.906236 0.555364 0.663003 -0.496089
Cl4   Cl    Cl    0.707262 0.436699 0.362538 -0.513670
Cl5   Cl    Cl    0.278911 0.180478 0.217037 -0.491915
Cl6   Cl    Cl    0.336231 0.785199 0.624594 -0.417998
Cl7   Cl    Cl    0.505526 0.079606 0.299924 -0.552463
Cl8   Cl    Cl    0.543171 0.610435 0.214660 -0.355485
Cl9   Cl    Cl    0.709770 0.766314 0.373005 -0.485103
Cl10  Cl    Cl    0.596939 0.754481 0.133168 -0.330106
Cl11  Cl    Cl    0.316813 0.530633 0.165005 -0.471088
Cl12  Cl    Cl    0.902454 0.060425 0.268641 -0.337231
Cl13  Cl    Cl    0.361578 0.639478 0.046694 -0.415229
Cl14  Cl    Cl    0.642618 0.956208 0.342899 -0.505404
Cl15  Cl    Cl    0.885405 0.075094 0.087706 -0.440885
Cl16  Cl    Cl    0.663573 0.715189 0.875556 -0.418892
Cl17  Cl    Cl    0.879922 0.838896 0.728575 -0.497810
Cl18  Cl    Cl    0.106451 0.871354 0.944666 -0.471095
Cl19  Cl    Cl    0.892308 0.591894 0.806800 -0.530158
Cl20  Cl    Cl    0.114206 0.903463 0.683230 -0.527652
Cl21  Cl    Cl    0.558155 0.846955 0.627359 -0.474480
H1    H     H_    0.455304 0.674573 0.847700 0.223780
H2    H     H_    0.502595 0.382447 0.789063 0.201638
H3    H     H_    0.351295 0.178570 0.591342 0.234764
H4    H     H_    0.460523 0.190666 0.602375 0.194497
H5    H     H_    0.462521 0.104388 0.692314 0.209522
H6    H     H_    0.351390 0.090802 0.678736 0.232742
H7    H     H_    0.376082 0.290315 0.699501 0.190740
H8    H     H_    0.672363 0.893415 0.844194 0.231829
H9    H     H_    0.372999 0.200161 0.785358 0.160277
H10   H     H_    0.913657 0.751421 0.815946 0.246533
H11   H     H_    0.080029 0.909655 0.814553 0.207506
H12   H     H_    0.908240 0.316587 0.165650 0.232884
H13   H     H_    0.087182 0.715724 0.879637 0.254124
H14   H     H_    0.922224 0.791895 0.621844 0.235015
H15   H     H_    0.098773 0.681840 0.797203 0.238173
H16   H     H_    0.548514 0.400550 0.238672 0.178115
H17   H     H_    0.520246 0.302265 0.136521 0.193162
H18   H     H_    0.639551 0.321066 0.220848 0.256174
H19   H     H_    0.375842 0.278907 0.169937 0.143891
H20   H     H_    0.348151 0.101089 0.172373 0.253496
H21   H     H_    0.658742 0.847334 0.264884 0.207325
H22   H     H_    0.328111 0.607365 0.655781 0.210101
H23   H     H_    0.100428 0.273663 0.185382 0.177755
H24   H     H_    0.489946 0.777622 0.378195 0.222429
H25   H     H_    0.616920 0.825099 0.410284 0.288648
H26   H     H_    0.343995 0.655759 0.236145 0.120356
H27   H     H_    0.082082 0.394757 0.237206 0.235216
H28   H     H_    0.092078 0.409248 0.340345 0.223280
H29   H     H_    0.917472 0.313386 0.268089 0.224180
H30   H     H_    0.930237 0.220725 0.099002 0.125167
H31   H     H_    0.078320 0.293580 0.410694 0.095103
H32   H     H_    0.080466 0.186242 0.234100 0.285352
H33   H     H_    0.660191 0.399636 0.814981 0.192621
H34   H     H_    0.642588 0.230489 0.821436 0.176456
H35   H     H_    0.663793 0.309887 0.900289 0.198764
N1    N     N_1   0.853535 0.180197 0.370847 -0.089342
N2    N     N_1   0.229085 0.712414 0.074947 -0.097760
N3    N     N_1   0.706973 0.330214 0.696136 -0.105970
N4    N     N_1   0.552636 0.347544 0.976018 -0.136363
N5    N     N_1   0.857678 0.638551 0.481171 0.007834
N6    N     N_1   0.704099 0.343759 0.520748 -0.056260
N7    N     N_1   0.751863 0.268579 0.371280 -0.118506
N8    N     N_1   0.276007 0.134102 0.986883 -0.130282
N9    N     N_1   0.398243 0.126626 0.382611 -0.071651
N10   N     N_1   0.383247 0.867098 0.265408 -0.068826
O1    O     O_3   0.500000 0.500000 0.500000 -0.545196
O2    O     O_R   0.266230 0.883210 0.944500 -0.601231
O3    O     O_R   0.561150 0.178510 0.117240 -0.657455
O4    O     O_R   0.733670 0.616970 0.678220 -0.586223
O5    O     O_R   0.438720 0.882700 0.821420 -0.593780
O6    O     O_R   0.438610 0.055960 0.117240 -0.580424
O7    O     O_R   0.561250 0.882700 0.943960 -0.594771
O8    O     O_R   0.733630 0.055440 0.116700 -0.545140
O9    O     O_R   0.266260 0.883000 0.821740 -0.566255
O10   O     O_R   0.561190 0.178210 0.944500 -0.644831
O11   O     O_R   0.438650 0.883210 0.116920 -0.643184
O12   O     O_R   0.438720 0.616970 0.383270 -0.636481
O13   O     O_R   0.266300 0.444520 0.383270 -0.652253
O14   O     O_R   0.561280 0.616750 0.383040 -0.576158
O15   O     O_R   0.438750 0.321760 0.555460 -0.629997
O16   O     O_R   0.561320 0.444010 0.382720 -0.596698
O17   O     O_R   0.561210 0.617270 0.678540 -0.597060
O18   O     O_R   0.438790 0.321460 0.382720 -0.606926
O19   O     O_R   0.438680 0.617270 0.556010 -0.622171
O20   O     O_R   0.561250 0.444520 0.678220 -0.628995
O21   O     O_R   0.733700 0.616750 0.555460 -0.641257
O22   O     O_R   0.266330 0.321760 0.383040 -0.569909
O23   O     O_3   0.499930 0.999970 0.999970 -0.547970
O24   O     O_R   0.438680 0.055440 0.821740 -0.616985
O25   O     O_R   0.561210 0.883000 0.116700 -0.570424
O26   O     O_R   0.733610 0.178210 0.116920 -0.660620
Zn1   Zn    Zn3+2 0.412450 0.543930 0.456390 1.031102
Zn2   Zn    Zn3+2 0.587550 0.543620 0.456070 1.098269
Zn3   Zn    Zn3+2 0.412480 0.368530 0.456070 1.059029
Zn4   Zn    Zn3+2 0.587520 0.543930 0.631470 1.076261
Zn5   Zn    Zn3+2 0.587490 0.956040 0.043570 1.123114
Zn6   Zn    Zn3+2 0.587450 0.131440 0.043900 0.979566
Zn7   Zn    Zn3+2 0.412380 0.956350 0.043900 1.071138
Zn8   Zn    Zn3+2 0.412420 0.956040 0.868500 1.077616

loop_
_geom_bond_atom_site_label_1
_geom_bond_atom_site_label_2
_ccdc_geom_bond_type
C21   C26   S    
C49   O8    A    
C8    C13   S    
O23   Zn8   S    
O17   Zn4   S    
C27   C29   S    
O18   Zn3   S    
C26   Cl2   S    
C15   C60   S    
C2    C7    S    
C15   H9    S    
C43   C44   S    
C44   Cl13  S    
C40   O18   A    
O1    Zn3   S    
C23   C56   S    
C70   H23   S    
C52   O19   A    
C4    O13   A    
C37   Cl9   S    
C12   C23   S    
C37   C38   S    
C6    Cl15  S    
C30   C35   S    
C63   N7    T    
C29   H18   S    
C24   C26   S    
C46   C66   S    
C10   C15   S    
O26   Zn6   S    
C8    C59   S    
C5    C6    S    
C19   H11   S    
C20   C25   S    
C48   O11   A    
C29   C33   S    
C33   C36   S    
O23   Zn6   S    
C40   O16   A    
C18   C19   S    
C41   C42   S    
C37   C42   S    
C10   H7    S    
C12   H8    S    
C5    C69   S    
C54   C55   S    
C70   H32   S    
C4    O22   A    
C45   C56   S    
C8    C9    S    
C34   C57   S    
C41   C46   S    
C29   H17   S    
O13   Zn1   S    
C27   H16   S    
C27   Cl4   S    
C43   C48   S    
C68   N2    T    
C7    C58   S    
C21   C61   S    
C2    H31   S    
C47   O10   A    
C1    C22   S    
C21   C22   S    
O2    Zn7   S    
C24   C50   S    
C14   C17   S    
C5    C49   S    
C41   H24   S    
O1    Zn4   S    
C67   H27   S    
C25   H15   S    
C39   C42   S    
C54   C56   S    
C47   O24   A    
C69   H12   S    
O4    Zn4   S    
C64   N8    T    
O8    Zn5   S    
C52   C56   S    
C62   N6    T    
C3    C70   S    
C24   C25   S    
C39   Cl11  S    
C19   Cl18  S    
C60   N4    T    
C54   Cl16  S    
C53   C57   S    
C8    H33   S    
C48   O25   A    
C10   H2    S    
O19   Zn1   S    
C52   O17   A    
O15   Zn3   S    
C35   Cl7   S    
C9    H34   S    
C3    C4    S    
C53   O7    A    
C18   H10   S    
C9    C14   S    
C55   H1    S    
C31   C36   S    
C5    C7    S    
C31   Cl5   S    
C31   C32   S    
O20   Zn4   S    
C23   C34   S    
C36   H20   S    
C67   H28   S    
C13   C28   S    
C17   H5    S    
O16   Zn2   S    
O21   Zn2   S    
O7    Zn5   S    
C49   O26   A    
C65   N9    T    
C1    O4    A    
C34   C45   S    
O6    Zn7   S    
C66   N10   T    
C12   C57   S    
C11   H3    S    
C53   O5    A    
C20   C22   S    
C55   C57   S    
C39   C44   S    
C46   Cl14  S    
C44   C68   S    
C33   C51   S    
C41   H25   S    
C38   H21   S    
C2    Cl1   S    
C16   C42   S    
C50   O9    A    
O1    Zn1   S    
C37   Cl8   S    
C51   O6    A    
C11   H4    S    
C6    C70   S    
O10   Zn6   S    
O9    Zn8   S    
C59   N3    T    
O23   Zn7   S    
C27   C32   S    
C18   C22   S    
O12   Zn1   S    
C3    C67   S    
C18   Cl17  S    
C10   C13   S    
C11   C17   S    
O1    Zn2   S    
C35   C63   S    
C50   O2    A    
C25   H13   S    
C14   C47   S    
C26   Cl20  S    
O14   Zn2   S    
C20   Cl19  S    
C69   H29   S    
C9    H35   S    
C16   O12   A    
C30   C62   S    
C2    C3    S    
C38   C43   S    
C39   H26   S    
C30   C32   S    
C11   C13   S    
C38   Cl10  S    
C1    O21   A    
O5    Zn8   S    
C33   C35   S    
C31   H19   S    
O23   Zn5   S    
C20   Cl3   S    
C19   C24   S    
C23   Cl21  S    
C32   C40   S    
O3    Zn6   S    
C43   C46   S    
C12   C54   S    
C30   C65   S    
C61   N5    T    
C45   H22   S    
C58   N1    T    
C7    Cl12  S    
C45   C55   S    
C28   O15   A    
C28   O20   A    
O25   Zn5   S    
O24   Zn8   S    
C14   C15   S    
C16   O14   A    
C6    H30   S    
C67   C69   S    
C36   C64   S    
C17   H6    S    
C21   H14   S    
O11   Zn7   S    
O22   Zn3   S    
C34   Cl6   S    
C51   O3    A    
