data_mof_unit_68454.cif
_audit_creation_date              2012-12-10T19:42:12-0500
_audit_creation_method            fapswitch 2.2
_symmetry_space_group_name_H-M    P1
_symmetry_Int_Tables_number       1
_space_group_crystal_system       triclinic
_cell_length_a                    10.979699
_cell_length_b                    11.158349
_cell_length_c                    9.780405
_cell_angle_alpha                 92.352381
_cell_angle_beta                  91.642498
_cell_angle_gamma                 91.033653
_cell_volume                      1196.52616313

loop_
_atom_site_label
_atom_site_type_symbol
_atom_type_description
_atom_site_fract_x
_atom_site_fract_y
_atom_site_fract_z
_atom_type_partial_charge
C1    C     C_R   0.504735 0.266293 0.498067 0.811719
C2    C     C_R   0.186595 0.586918 0.983408 -0.214544
C3    C     C_R   0.930177 0.521907 0.385185 -0.175258
C4    C     C_R   0.871593 0.501398 0.506472 -0.104759
C5    C     C_R   0.942879 0.485366 0.626787 0.072048
C6    C     C_R   0.069357 0.483725 0.620132 -0.203427
C7    C     C_R   0.128105 0.502911 0.497807 -0.135974
C8    C     C_R   0.056491 0.525730 0.380251 0.057579
C9    C     C_R   0.894321 0.578777 0.853838 0.512958
C10   C     C_R   0.839924 0.568834 0.982640 -0.356820
C11   C     C_R   0.778263 0.463420 0.014067 -0.264628
C12   C     C_R   0.262350 0.501224 0.498573 0.805915
C13   C     C_R   0.769607 0.365509 0.919042 0.541092
C14   C     C_R   0.829020 0.372164 0.795818 -0.239752
C15   C     C_R   0.890051 0.477609 0.762713 -0.032778
C16   C     C_2   0.525892 0.928882 0.404189 -0.329291
C17   C     C_2   0.496027 0.866606 0.514099 0.250552
C18   C     C_2   0.509849 0.059450 0.390695 0.499107
C19   C     C_2   0.519755 0.136444 0.499876 -0.365966
C20   C     C_2   0.422055 0.436981 0.915401 0.548978
C21   C     C_2   0.429124 0.430639 0.071771 -0.153201
C22   C     C_R   0.500445 0.734331 0.503471 0.778555
C23   C     C_R   0.737565 0.500279 0.502292 0.778983
C24   C     C_R   0.214651 0.671047 0.089031 -0.234965
C25   C     C_R   0.170171 0.657944 0.220410 0.491225
C26   C     C_R   0.107218 0.549344 0.247136 -0.097730
C27   C     C_R   0.087448 0.460171 0.142137 0.397921
C28   C     C_R   0.123779 0.481251 0.010321 -0.181459
Cu1   Cu    Cu3+1 0.500020 0.500020 0.638630 0.978393
Cu2   Cu    Cu3+1 0.499980 0.499980 0.361370 0.947577
H1    H     H_    0.217428 0.602371 0.881473 0.205386
H2    H     H_    0.731956 0.460935 0.109666 0.171796
H3    H     H_    0.820469 0.297697 0.721194 0.143801
H4    H     H_    0.557723 0.880782 0.313610 0.140137
H5    H     H_    0.544183 0.104317 0.598811 0.183210
H6    H     H_    0.570642 0.540963 0.898846 0.148089
H7    H     H_    0.367838 0.368650 0.118747 0.131834
H8    H     H_    0.271780 0.746905 0.067749 0.174189
H9    H     H_    0.547245 0.566447 0.110636 0.180918
H10   H     H_    0.104232 0.413869 0.930004 0.173497
H11   H     H_    0.877543 0.537960 0.292643 0.163217
H12   H     H_    0.122142 0.468249 0.711962 0.189736
H13   H     H_    0.842096 0.641792 0.058806 0.127104
N1    N     N_2   0.498640 0.498660 0.846910 -0.308595
N2    N     N_2   0.498610 0.498630 0.153040 -0.308016
O1    O     O_R   0.500020 0.321960 0.617040 -0.554228
O2    O     O_R   0.499980 0.321920 0.382900 -0.549774
O3    O     O_R   0.319660 0.500030 0.617070 -0.532757
O4    O     O_R   0.319620 0.499990 0.382930 -0.578569
O5    O     O_R   0.500020 0.678080 0.617100 -0.607928
O6    O     O_R   0.499980 0.678040 0.382960 -0.577016
O7    O     O_R   0.680380 0.500010 0.617070 -0.577937
O8    O     O_R   0.680340 0.499970 0.382930 -0.595633
O9    O     O_3   0.683692 0.274769 0.929440 -0.656309
C29   C     C_3   0.704413 0.208840 0.047222 0.064246
H14   H     H_    0.614928 0.170727 0.072188 0.230359
H15   H     H_    0.737861 0.263208 0.139100 0.167270
C30   C     C_3   0.790569 0.105831 0.016725 -0.371168
H16   H     H_    0.765792 0.060653 0.916257 0.226659
H17   H     H_    0.884768 0.142580 0.010624 0.225480
C31   C     C_3   0.784954 0.013694 0.127424 -0.921548
H18   H     H_    0.803833 0.057299 0.230056 0.278362
H19   H     H_    0.853189 0.943905 0.107511 0.236828
H20   H     H_    0.693791 0.969387 0.127221 0.265425
O10   O     O_3   0.446612 0.924500 0.628439 -0.595237
C32   C     C_3   0.507539 0.892919 0.751398 0.079905
H21   H     H_    0.604481 0.867875 0.736601 0.137956
H22   H     H_    0.456763 0.818176 0.797225 0.185266
C33   C     C_3   0.507825 0.996847 0.855567 -0.887369
H23   H     H_    0.413766 0.026571 0.870236 0.260511
H24   H     H_    0.545509 0.967481 0.954553 0.220754
H25   H     H_    0.564549 0.072319 0.821675 0.266057
O11   O     O_3   0.506033 0.101381 0.260031 -0.631065
C34   C     C_3   0.384526 0.104390 0.209751 0.034209
H26   H     H_    0.386752 0.157371 0.117225 0.150423
H27   H     H_    0.325261 0.151538 0.284046 0.122917
C35   C     C_3   0.332257 0.978866 0.169933 -0.333520
H28   H     H_    0.405300 0.921305 0.128895 0.218663
H29   H     H_    0.299782 0.938943 0.264321 0.250399
C36   C     C_3   0.226357 0.979789 0.063962 -0.950581
H30   H     H_    0.192938 0.070355 0.045369 0.251066
H31   H     H_    0.148799 0.925300 0.098120 0.261221
H32   H     H_    0.254132 0.939089 0.964753 0.253852
O12   O     O_3   0.322879 0.385936 0.842650 -0.575587
C37   C     C_3   0.321394 0.260744 0.850820 0.056442
H33   H     H_    0.284381 0.236109 0.949476 0.101578
H34   H     H_    0.413922 0.224226 0.837891 0.187333
C38   C     C_3   0.236548 0.205648 0.738340 -0.767537
H35   H     H_    0.267172 0.231261 0.636207 0.246917
H36   H     H_    0.235906 0.106347 0.742414 0.218630
H37   H     H_    0.142260 0.237397 0.752453 0.223275
O13   O     O_3   0.204825 0.746045 0.319854 -0.633446
C39   C     C_3   0.109805 0.790864 0.402432 0.057118
H38   H     H_    0.145436 0.875364 0.454223 0.169756
H39   H     H_    0.091938 0.732077 0.487985 0.181043
C40   C     C_3   0.991555 0.822379 0.324383 -0.416157
H40   H     H_    0.010501 0.898114 0.258435 0.215240
H41   H     H_    0.955875 0.745794 0.258640 0.199624
C41   C     C_3   0.892552 0.858669 0.423589 -0.903728
H42   H     H_    0.877053 0.787266 0.497428 0.269570
H43   H     H_    0.805604 0.871944 0.366146 0.254917
H44   H     H_    0.919196 0.943869 0.480171 0.252684
O14   O     O_3   0.027672 0.353403 0.167234 -0.586737
C42   C     C_3   0.112711 0.276312 0.227018 0.084355
H45   H     H_    0.165639 0.319787 0.314295 0.140916
H46   H     H_    0.177817 0.246776 0.149310 0.113241
C43   C     C_3   0.047371 0.168016 0.281661 -0.820394
H47   H     H_    0.014253 0.108305 0.195184 0.251550
H48   H     H_    0.111154 0.116777 0.346088 0.204335
H49   H     H_    0.969779 0.197009 0.344669 0.259221
O15   O     O_3   0.955827 0.680748 0.810960 -0.588739
C44   C     C_3   0.936928 0.785677 0.892030 0.056272
H50   H     H_    0.983525 0.779393 0.993820 0.148049
H51   H     H_    0.837857 0.801995 0.903363 0.142882
C45   C     C_3   0.992472 0.891929 0.821859 -0.819662
H52   H     H_    0.939694 0.908541 0.726376 0.241256
H53   H     H_    0.990754 0.973494 0.890402 0.208705
H54   H     H_    0.088425 0.873542 0.796250 0.261535

loop_
_geom_bond_atom_site_label_1
_geom_bond_atom_site_label_2
_ccdc_geom_bond_type
C9    O15   S    
C32   H22   S    
Cu2   O6    S    
C39   H38   S    
C33   H25   S    
C8    C26   S    
O11   C34   S    
Cu2   N2    S    
O15   C44   S    
C12   O3    A    
C14   H3    S    
C44   H51   S    
C12   O4    A    
C7    C8    A    
C37   H33   S    
C26   C27   A    
C34   H27   S    
C5    C6    A    
C1    O1    A    
C35   C36   S    
C32   C33   S    
C28   H10   S    
C30   H17   S    
C45   H52   S    
C40   C41   S    
C31   H19   S    
C18   C19   D    
C33   H24   S    
C42   H45   S    
C16   H4    S    
C16   C17   D    
C45   H53   S    
C34   C35   S    
C40   H41   S    
C24   H8    S    
C43   H47   S    
C9    C10   A    
C22   O5    A    
C38   H35   S    
C30   C31   S    
C37   H34   S    
C32   H21   S    
C39   H39   S    
C13   C14   A    
C43   H48   S    
C33   H23   S    
C36   H32   S    
C42   H46   S    
C44   H50   S    
C20   N1    D    
C23   O8    A    
C21   N2    D    
Cu1   O5    S    
C35   H29   S    
C7    C12   S    
Cu2   O8    S    
C1    C19   S    
C34   H26   S    
Cu1   O3    S    
Cu2   O2    S    
O12   C37   S    
C36   H31   S    
C3    C8    A    
C4    C23   S    
C1    O2    A    
C30   H16   S    
C35   H28   S    
C2    H1    S    
C31   H20   S    
Cu1   Cu2   S    
C41   H42   S    
C38   H37   S    
C45   H54   S    
C40   H40   S    
C29   H14   S    
C24   C25   A    
C41   H43   S    
Cu2   O4    S    
C38   H36   S    
C11   H2    S    
C39   C40   S    
C29   H15   S    
Cu1   N1    S    
C2    C24   A    
C43   H49   S    
H6    N1    S    
C3    C4    A    
O14   C42   S    
C13   O9    S    
C37   C38   S    
O9    C29   S    
C3    H11   S    
C25   O13   S    
C10   H13   S    
C36   H30   S    
C6    C7    A    
C18   O11   S    
C17   O10   S    
C17   C22   S    
H9    N2    S    
Cu1   O1    S    
C20   O12   S    
C25   C26   A    
C19   H5    S    
C11   C13   A    
C23   O7    A    
C27   O14   S    
O13   C39   S    
C42   C43   S    
C9    C15   A    
C31   H18   S    
C5    C15   S    
C10   C11   A    
C4    C5    A    
C41   H44   S    
C21   H7    S    
C20   C21   S    
C16   C18   S    
O10   C32   S    
C6    H12   S    
C29   C30   S    
C27   C28   A    
C14   C15   A    
C2    C28   A    
C44   C45   S    
C22   O6    A    
Cu1   O7    S    
