data_mof_unit_57458.cif
_audit_creation_date              2012-12-10T19:04:15-0500
_audit_creation_method            fapswitch 2.2
_symmetry_space_group_name_H-M    P1
_symmetry_Int_Tables_number       1
_space_group_crystal_system       triclinic
_cell_length_a                    10.621602
_cell_length_b                    10.79438
_cell_length_c                    9.544586
_cell_angle_alpha                 90.101475
_cell_angle_beta                  90.439751
_cell_angle_gamma                 90.137381
_cell_volume                      1094.28409427

loop_
_atom_site_label
_atom_site_type_symbol
_atom_type_description
_atom_site_fract_x
_atom_site_fract_y
_atom_site_fract_z
_atom_type_partial_charge
C1    C     C_R   0.502345 0.262475 0.499677 0.848583
C2    C     C_3   0.957317 0.603745 0.438754 -0.183047
C3    C     C_3   0.039106 0.504544 0.366362 -0.143203
C4    C     C_3   0.122351 0.500040 0.498276 0.038837
C5    C     C_R   0.424009 0.064144 0.588707 0.042654
C6    C     C_R   0.500851 0.129015 0.496332 -0.179041
C7    C     C_R   0.565711 0.063956 0.390605 0.412756
C8    C     C_R   0.564408 0.933996 0.392900 -0.325673
C9    C     C_R   0.497846 0.870517 0.497049 -0.135704
C10   C     C_R   0.422447 0.936813 0.589104 0.103040
C11   C     C_3   0.411610 0.930774 0.744809 -0.436057
C12   C     C_R   0.259265 0.500039 0.499412 0.770311
C13   C     C_3   0.413611 0.071496 0.744438 -0.471676
C14   C     C_R   0.553275 0.595809 0.074217 0.197095
C15   C     C_R   0.435398 0.412834 0.073724 -0.082120
C16   C     C_R   0.435797 0.412532 0.924808 -0.095746
C17   C     C_R   0.552740 0.596051 0.927066 0.246282
C18   C     C_3   0.685695 0.639798 0.921136 0.228217
C19   C     C_3   0.687021 0.638244 0.080707 -0.555556
C20   C     C_R   0.500382 0.737443 0.499934 0.828965
C21   C     C_R   0.740719 0.499779 0.500549 0.785482
C22   C     C_3   0.042614 0.395835 0.560878 -0.161464
C23   C     C_3   0.957046 0.400350 0.429160 -0.160815
C24   C     C_3   0.877596 0.499569 0.501470 0.021302
C25   C     C_3   0.960894 0.494995 0.633275 -0.153376
C26   C     C_3   0.042850 0.599243 0.570502 -0.179084
Cu1   Cu    Cu3+1 0.499990 0.499980 0.640670 0.942221
Cu2   Cu    Cu3+1 0.500010 0.500020 0.359330 0.947223
H1    H     H_    0.918586 0.319053 0.371487 0.151303
H2    H     H_    0.495640 0.889665 0.796281 0.254676
H3    H     H_    0.323040 0.113191 0.777772 0.184018
H4    H     H_    0.499120 0.111352 0.795105 0.205995
H5    H     H_    0.385073 0.340958 0.128932 0.134836
H6    H     H_    0.385826 0.340387 0.868549 0.142010
H7    H     H_    0.749183 0.570071 0.872386 0.080476
H8    H     H_    0.751381 0.566921 0.124722 0.181023
H9    H     H_    0.696495 0.731575 0.129128 0.205219
H10   H     H_    0.080729 0.310800 0.610691 0.121634
H11   H     H_    0.927212 0.490512 0.742862 0.119007
H12   H     H_    0.080823 0.680703 0.628260 0.122141
H13   H     H_    0.918999 0.688746 0.389050 0.127850
H14   H     H_    0.073697 0.508475 0.256983 0.134822
H15   H     H_    0.622203 0.882897 0.319950 0.156464
H16   H     H_    0.319837 0.891342 0.778101 0.182985
N1    N     N_R   0.500800 0.500930 0.147930 -0.182082
N2    N     N_R   0.500800 0.500890 0.852020 -0.215148
O1    O     O_R   0.500000 0.319640 0.618810 -0.592729
O2    O     O_R   0.500010 0.319680 0.381230 -0.559291
O3    O     O_R   0.316850 0.499950 0.618770 -0.583477
O4    O     O_R   0.316860 0.499990 0.381190 -0.589987
O5    O     O_R   0.499990 0.680320 0.618770 -0.560932
O6    O     O_R   0.500000 0.680360 0.381190 -0.584176
O7    O     O_R   0.683140 0.500010 0.618810 -0.599954
O8    O     O_R   0.683150 0.500050 0.381230 -0.574496
O9    O     O_3   0.690032 0.761723 0.867669 -0.574717
C27   C     C_3   0.804787 0.782015 0.798233 0.079779
H17   H     H_    0.811005 0.721633 0.703974 0.152146
H18   H     H_    0.886326 0.764006 0.869417 0.134947
C28   C     C_3   0.810598 0.916198 0.750269 -0.807795
H19   H     H_    0.804930 0.979231 0.842121 0.246458
H20   H     H_    0.900530 0.933371 0.694916 0.197985
H21   H     H_    0.730989 0.936151 0.677664 0.257721
O10   O     O_3   0.647367 0.126874 0.303069 -0.576832
C29   C     C_3   0.610003 0.110446 0.161915 0.097817
H22   H     H_    0.509445 0.136572 0.146101 0.131925
H23   H     H_    0.624056 0.013009 0.127379 0.146418
C30   C     C_3   0.690700 0.193425 0.070036 -0.787582
H24   H     H_    0.791081 0.165744 0.078921 0.235547
H25   H     H_    0.660333 0.184926 0.958938 0.193288
H26   H     H_    0.681447 0.291580 0.103370 0.260300

loop_
_geom_bond_atom_site_label_1
_geom_bond_atom_site_label_2
_ccdc_geom_bond_type
C8    C9    A    
C12   O4    A    
C23   C24   S    
Cu1   O7    S    
C1    O2    A    
C6    C7    A    
C27   H18   S    
C4    C12   S    
C4    C22   S    
C18   H7    S    
C25   H11   S    
C9    C20   S    
C4    C26   S    
C8    H15   S    
O9    C27   S    
C30   H26   S    
C7    O10   S    
C29   H22   S    
C16   H6    S    
C12   O3    A    
C24   C25   S    
C5    C10   A    
C2    C26   S    
C27   H17   S    
C21   O7    A    
C13   H3    S    
Cu2   O6    S    
C14   C17   A    
C26   H12   S    
C21   O8    A    
C18   O9    S    
C23   H1    S    
Cu1   N2    S    
Cu1   O5    S    
C17   C18   S    
C20   O5    A    
C2    C3    S    
C19   H8    S    
C11   H16   S    
C2    C24   S    
C5    C6    A    
C5    C13   S    
Cu2   N1    S    
C28   H20   S    
C11   C13   S    
C7    C8    A    
C15   C16   A    
C15   N1    A    
C2    H13   S    
Cu1   O1    S    
C1    C6    S    
C22   H10   S    
C29   C30   S    
Cu1   O3    S    
C28   H19   S    
C3    H14   S    
C17   N2    A    
C20   O6    A    
C18   C19   S    
C10   C11   S    
C21   C24   S    
C16   N2    A    
Cu1   Cu2   S    
C27   C28   S    
Cu2   O8    S    
C22   C23   S    
Cu2   O2    S    
C28   H21   S    
C3    C23   S    
C19   H9    S    
C14   N1    A    
C25   C26   S    
C13   H4    S    
Cu2   O4    S    
C14   C19   S    
C15   H5    S    
C1    O1    A    
C3    C4    S    
C30   H24   S    
C11   H2    S    
C9    C10   A    
O10   C29   S    
C30   H25   S    
C22   C25   S    
C29   H23   S    
