data_mof_unit_15942.cif
_audit_creation_date              2012-12-10T19:43:06-0500
_audit_creation_method            fapswitch 2.2
_symmetry_space_group_name_H-M    P1
_symmetry_Int_Tables_number       1
_space_group_crystal_system       triclinic
_cell_length_a                    18.352929
_cell_length_b                    18.351942
_cell_length_c                    18.334184
_cell_angle_alpha                 119.531358
_cell_angle_beta                  90.012484
_cell_angle_gamma                 59.643487
_cell_volume                      4374.14161416

loop_
_atom_site_label
_atom_site_type_symbol
_atom_type_description
_atom_site_fract_x
_atom_site_fract_y
_atom_site_fract_z
_atom_type_partial_charge
C1    C     C_R   0.859288 0.780353 0.642737 0.805572
C2    C     C_R   0.402525 0.227084 0.649850 -0.097431
C3    C     C_R   0.322735 0.236626 0.646391 -0.127611
C4    C     C_R   0.136454 0.220209 0.360168 0.809064
C5    C     C_R   0.243678 0.331882 0.675607 0.225934
C6    C     C_R   0.222557 0.051441 0.338328 0.003977
C7    C     C_R   0.180284 0.109303 0.304378 -0.108400
C8    C     C_R   0.180883 0.056654 0.215391 0.112122
C9    C     C_R   0.243056 0.947945 0.158258 -0.045050
C10   C     C_R   0.293903 0.891973 0.193854 -0.188263
C11   C     C_R   0.275002 0.946389 0.285687 -0.017086
C12   C     C_R   0.182745 0.697159 0.923514 0.026654
C13   C     C_3   0.329272 0.938216 0.346586 0.073719
C14   C     C_3   0.270342 0.058443 0.405522 -0.081253
C15   C     C_R   0.205718 0.578127 0.335247 0.040909
C16   C     C_R   0.859872 0.503563 0.643528 0.816064
C17   C     C_R   0.196900 0.497970 0.303774 -0.066075
C18   C     C_R   0.246217 0.413687 0.214065 -0.205766
C19   C     C_R   0.300713 0.413374 0.159820 -0.209734
C20   C     C_R   0.306889 0.497188 0.194659 -0.059001
C21   C     C_R   0.258660 0.577479 0.283409 0.083195
C22   C     C_3   0.230894 0.683684 0.353276 -0.059291
C23   C     C_R   0.216511 0.602373 0.839263 0.085566
C24   C     C_3   0.168799 0.684963 0.412428 -0.008402
C25   C     C_R   0.839754 0.946390 0.729585 -0.118935
C26   C     C_R   0.802493 0.891875 0.710916 -0.119160
C27   C     C_R   0.712510 0.947200 0.765220 0.153588
C28   C     C_R   0.139632 0.500154 0.360111 0.803207
C29   C     C_R   0.661857 0.056594 0.826716 0.171258
C30   C     C_R   0.696083 0.109174 0.821788 -0.117146
C31   C     C_R   0.787403 0.051343 0.779017 0.051925
C32   C     C_3   0.848756 0.055659 0.729468 0.278087
C33   C     C_3   0.909228 0.936551 0.675437 -0.188820
C34   C     C_R   0.165072 0.603388 0.781346 0.053982
C35   C     C_R   0.726409 0.508517 0.326404 0.000887
C36   C     C_R   0.806349 0.495119 0.302816 -0.092552
C37   C     C_R   0.837769 0.471378 0.219102 -0.208776
C38   C     C_R   0.784470 0.474083 0.164411 0.167451
C39   C     C_R   0.698000 0.500050 0.194334 -0.106225
C40   C     C_R   0.860105 0.499372 0.360213 0.819550
C41   C     C_R   0.671989 0.514445 0.274780 0.131409
C42   C     C_3   0.588738 0.597348 0.355867 0.098802
C43   C     C_3   0.650331 0.585547 0.411622 -0.450094
C44   C     C_R   0.712128 0.569052 0.728488 -0.015567
C45   C     C_R   0.299137 0.506579 0.809316 -0.152533
C46   C     C_R   0.803805 0.518619 0.713180 -0.136956
C47   C     C_R   0.838425 0.487143 0.769337 0.188474
C48   C     C_R   0.788258 0.474376 0.815434 0.148748
C49   C     C_R   0.698240 0.510129 0.815815 -0.125601
C50   C     C_R   0.660691 0.565657 0.779084 0.077936
C51   C     C_3   0.600421 0.566348 0.724116 -0.528641
C52   C     C_R   0.136340 0.502708 0.644203 0.803650
C53   C     C_3   0.656870 0.572421 0.668981 -0.177272
C54   C     C_R   0.360513 0.499622 0.139629 0.850360
C55   C     C_R   0.640840 0.500880 0.861083 0.825451
C56   C     C_R   0.318506 0.413509 0.734621 -0.089008
C57   C     C_R   0.358658 0.780141 0.139438 0.802603
C58   C     C_R   0.640209 0.219978 0.863234 0.860816
C59   C     C_R   0.640413 0.501357 0.139658 0.846734
C60   C     C_R   0.359533 0.501149 0.860755 0.854944
C61   C     C_R   0.092940 0.699106 0.800558 -0.151277
C62   C     C_R   0.071294 0.791068 0.875494 -0.139661
C63   C     C_R   0.114337 0.790271 0.937559 -0.217970
C64   C     C_2   0.258274 0.896834 0.061632 0.485491
C65   C     C_3   0.315261 0.888448 0.387693 -0.846299
C66   C     C_2   0.427383 0.886048 0.303291 0.498050
C67   C     C_R   0.247071 0.417489 0.705160 0.076471
C68   C     C_2   0.211082 0.109376 0.496889 0.451309
C69   C     C_2   0.318492 0.106440 0.408712 0.357655
C70   C     C_3   0.185690 0.758719 0.326014 -0.813341
C71   C     C_3   0.067538 0.758689 0.435892 -0.772653
C72   C     C_3   0.670577 0.891275 0.756771 -0.801275
C73   C     C_3   0.575750 0.114521 0.899099 -0.847599
C74   C     C_3   0.808490 0.094686 0.672216 -0.815279
C75   C     C_3   0.887673 0.111274 0.788810 -0.828504
C76   C     C_2   0.996612 0.888648 0.692039 0.486086
C77   C     C_3   0.818184 0.458624 0.079574 -0.865061
C78   C     C_R   0.182029 0.508700 0.711472 -0.177528
C79   C     C_3   0.538531 0.704241 0.373369 -0.830884
C80   C     C_2   0.527645 0.567309 0.363194 0.443019
C81   C     C_3   0.924647 0.472755 0.783826 -0.858319
C82   C     C_3   0.831255 0.420854 0.860848 -0.832078
C83   C     C_2   0.607781 0.674420 0.680728 0.485765
C84   C     C_2   0.203863 0.703996 0.003816 0.391796
C85   C     C_2   0.488594 0.302667 0.693938 0.418355
C86   C     C_3   0.157226 0.345250 0.699216 -0.842933
C87   C     C_3   0.117924 0.114929 0.180645 -0.813532
C88   C     C_R   0.401891 0.315282 0.695037 -0.004105
H1    H     H_    0.322244 0.170059 0.623000 0.160336
H2    H     H_    0.649659 0.654687 0.455932 0.252530
H3    H     H_    0.646941 0.548796 0.443670 0.208715
H4    H     H_    0.607060 0.492555 0.686577 0.198627
H5    H     H_    0.530432 0.636256 0.763184 0.218910
H6    H     H_    0.694282 0.503931 0.598874 0.172935
H7    H     H_    0.089500 0.862879 0.999886 0.122258
H8    H     H_    0.463765 0.151419 0.621548 0.196343
H9    H     H_    0.209203 0.886477 0.034643 0.007729
H10   H     H_    0.350559 0.804674 0.338050 0.257217
H11   H     H_    0.341409 0.900642 0.444176 0.239910
H12   H     H_    0.242708 0.348429 0.185763 0.174679
H13   H     H_    0.243230 0.921842 0.412248 0.245117
H14   H     H_    0.453387 0.855492 0.234188 0.020728
H15   H     H_    0.241173 0.105760 0.546947 0.059908
H16   H     H_    0.307631 0.142943 0.374064 0.055212
H17   H     H_    0.141344 0.745627 0.288235 0.250041
H18   H     H_    0.146197 0.839084 0.386059 0.244576
H19   H     H_    0.237494 0.748633 0.283312 0.257316
H20   H     H_    0.048198 0.747838 0.375845 0.228587
H21   H     H_    0.032106 0.743929 0.469875 0.251678
H22   H     H_    0.045488 0.839463 0.481427 0.251442
H23   H     H_    0.337580 0.347991 0.091146 0.172631
H24   H     H_    0.664857 0.855962 0.689560 0.271073
H25   H     H_    0.711781 0.831381 0.769011 0.232091
H26   H     H_    0.601656 0.941229 0.802989 0.225946
H27   H     H_    0.558070 0.189667 0.956243 0.236465
H28   H     H_    0.519934 0.126051 0.871672 0.254149
H29   H     H_    0.584073 0.071681 0.928614 0.226629
H30   H     H_    0.776029 0.057890 0.634429 0.241538
H31   H     H_    0.757560 0.179276 0.714393 0.256517
H32   H     H_    0.862200 0.076341 0.624178 0.233442
H33   H     H_    0.839401 0.195831 0.824630 0.267317
H34   H     H_    0.286662 0.683328 0.377311 0.163473
H35   H     H_    0.903475 0.093893 0.839143 0.208995
H36   H     H_    0.949650 0.087225 0.747120 0.234149
H37   H     H_    0.997446 0.909782 0.758594 0.052052
H38   H     H_    0.831951 0.386337 0.021182 0.264373
H39   H     H_    0.767524 0.525526 0.078988 0.229146
H40   H     H_    0.881420 0.452801 0.073366 0.228300
H41   H     H_    0.586068 0.721504 0.363066 0.274077
H42   H     H_    0.499018 0.708946 0.328435 0.270958
H43   H     H_    0.491955 0.763799 0.442928 0.233998
H44   H     H_    0.477663 0.611156 0.426777 0.059953
H45   H     H_    0.189180 0.686552 0.469980 0.205461
H46   H     H_    0.941738 0.513446 0.766475 0.231906
H47   H     H_    0.917045 0.508628 0.855453 0.229197
H48   H     H_    0.980139 0.389560 0.744628 0.265924
H49   H     H_    0.791057 0.473221 0.932206 0.241830
H50   H     H_    0.835723 0.348639 0.828986 0.255356
H51   H     H_    0.900672 0.396824 0.856478 0.233145
H52   H     H_    0.568110 0.745641 0.746618 0.067161
H53   H     H_    0.203699 0.768800 0.053682 0.028377
H54   H     H_    0.492899 0.365289 0.709542 0.028481
H55   H     H_    0.162203 0.309883 0.735410 0.215612
H56   H     H_    0.049600 0.705418 0.761002 0.157695
H57   H     H_    0.101045 0.427861 0.744410 0.243848
H58   H     H_    0.142358 0.307441 0.638476 0.282842
H59   H     H_    0.051000 0.178904 0.232482 0.240505
H60   H     H_    0.146169 0.145159 0.159386 0.264594
H61   H     H_    0.105412 0.066321 0.123668 0.199446
H62   H     H_    0.915274 0.897051 0.604015 0.157751
H63   H     H_    0.901994 0.456242 0.198429 0.170598
H64   H     H_    0.016044 0.863576 0.888934 0.136544
O1    O     O_3   0.000000 0.500000 0.500000 -0.491557
O2    O     O_R   0.676550 0.268320 0.884150 -0.658028
O3    O     O_R   0.555150 0.560600 0.176460 -0.632033
O4    O     O_R   0.944950 0.731580 0.615800 -0.641031
O5    O     O_R   0.384220 0.439220 0.884170 -0.597699
O6    O     O_R   0.676580 0.439170 0.055020 -0.651308
O7    O     O_R   0.384230 0.560650 0.884170 -0.661265
O8    O     O_R   0.384260 0.731500 0.055040 -0.613151
O9    O     O_R   0.555100 0.268330 0.884160 -0.625635
O10   O     O_R   0.384250 0.560620 0.176470 -0.633012
O11   O     O_R   0.676570 0.439190 0.884150 -0.657962
O12   O     O_R   0.944910 0.439280 0.615800 -0.620803
O13   O     O_R   0.115780 0.268410 0.444920 -0.613784
O14   O     O_R   0.823470 0.560720 0.615800 -0.631713
O15   O     O_R   0.115800 0.439290 0.323490 -0.648458
O16   O     O_R   0.823460 0.560740 0.444930 -0.623625
O17   O     O_R   0.115830 0.560690 0.615790 -0.633772
O18   O     O_R   0.944900 0.439310 0.323490 -0.652700
O19   O     O_R   0.115810 0.439260 0.615790 -0.648599
O20   O     O_2   0.324432 0.869957 0.012324 -0.543120
O21   O     O_2   0.478110 0.880033 0.346518 -0.549789
O22   O     O_2   0.130168 0.152968 0.515109 -0.562753
O23   O     O_R   0.115820 0.560710 0.444920 -0.628848
O24   O     O_2   0.371267 0.103524 0.449521 -0.549203
O25   O     O_2   0.067263 0.824799 0.630695 -0.587674
O26   O     O_2   0.532741 0.495212 0.298620 -0.578698
O27   O     O_2   0.612773 0.678068 0.616455 -0.598036
O28   O     O_2   0.214464 0.641887 0.018594 -0.587081
O29   O     O_2   0.556511 0.221715 0.674338 -0.589850
O30   O     O_R   0.823500 0.731590 0.615800 -0.641361
O31   O     O_R   0.115770 0.268420 0.323490 -0.643272
O32   O     O_3   0.500040 0.499910 0.999960 -0.492689
O33   O     O_R   0.384230 0.439200 0.055040 -0.640103
O34   O     O_R   0.555130 0.560630 0.884160 -0.624878
O35   O     O_R   0.384270 0.731490 0.176470 -0.664826
Zn1   Zn    Zn3+2 0.043370 0.413240 0.543370 0.977249
Zn2   Zn    Zn3+2 0.869870 0.586760 0.543380 0.980484
Zn3   Zn    Zn3+2 0.043360 0.413260 0.369880 0.958464
Zn4   Zn    Zn3+2 0.043390 0.586740 0.543370 0.978287
Zn5   Zn    Zn3+2 0.456670 0.586670 0.956580 1.006419
Zn6   Zn    Zn3+2 0.456680 0.586650 0.130080 0.977559
Zn7   Zn    Zn3+2 0.630180 0.413150 0.956570 0.940627
Zn8   Zn    Zn3+2 0.456650 0.413170 0.956580 1.023198

loop_
_geom_bond_atom_site_label_1
_geom_bond_atom_site_label_2
_ccdc_geom_bond_type
C24   H45   S    
C25   C31   A    
C72   H24   S    
C45   C60   S    
C42   C80   S    
C23   C45   A    
C72   H26   S    
C27   C29   A    
C9    C64   S    
C41   C42   S    
C66   H14   S    
C35   C36   A    
C60   O7    A    
C65   H13   S    
C5    C67   A    
C32   C75   S    
C40   O18   A    
C7    C8    A    
C39   C41   A    
O1    Zn2   S    
C16   O12   A    
C61   H56   S    
C74   H31   S    
C12   C23   A    
C12   C84   S    
C26   C27   A    
C29   C30   A    
C73   H28   S    
C62   H64   S    
O19   Zn1   S    
C80   H44   S    
C36   C37   A    
C37   C38   A    
C37   H63   S    
C65   H10   S    
C82   H49   S    
C33   H62   S    
C32   C74   S    
C30   C31   A    
C59   O6    A    
C56   C88   A    
C29   C73   S    
O32   Zn6   S    
C79   H41   S    
C71   H22   S    
C63   H7    S    
C4    O13   A    
O9    Zn8   S    
C18   C19   A    
C55   O34   A    
C84   O28   D    
C58   O2    A    
C28   O15   A    
C30   C58   S    
C44   C53   S    
C47   C48   A    
C45   C56   A    
C16   O14   A    
C8    C9    A    
C54   O33   A    
C85   O29   D    
C68   H15   S    
C66   O21   D    
C2    C88   A    
C69   O24   D    
C35   C43   S    
C9    C10   A    
C77   H39   S    
C13   C66   S    
C39   C59   S    
C42   C79   S    
C75   H33   S    
C21   C22   S    
O35   Zn6   S    
C76   H37   S    
C67   C78   A    
C18   H12   S    
O33   Zn8   S    
C4    C7    S    
C52   C78   S    
C86   H58   S    
C52   O19   A    
C83   H52   S    
C44   C46   A    
C86   H55   S    
C81   H47   S    
O1    Zn3   S    
C74   H30   S    
C3    H1    S    
O13   Zn1   S    
C73   H29   S    
C87   H60   S    
C75   H36   S    
C43   H2    S    
C81   H46   S    
C10   C57   S    
C60   O5    A    
O8    Zn5   S    
C20   C54   S    
C76   O25   D    
C70   H18   S    
C16   C46   S    
C6    C11   A    
C12   C63   A    
C68   O22   D    
C13   C65   S    
O11   Zn7   S    
C50   C51   S    
C25   C26   A    
C49   C55   S    
C79   H42   S    
C72   H25   S    
C34   C61   A    
C43   H3    S    
O16   Zn2   S    
C51   C53   S    
C80   O26   D    
C64   O20   D    
C1    O4    A    
C82   H51   S    
O3    Zn6   S    
C51   H4    S    
C6    C14   S    
C33   C76   S    
C31   C32   S    
C36   C40   S    
C23   C34   A    
C79   H43   S    
C62   C63   A    
O32   Zn5   S    
C17   C18   A    
O6    Zn7   S    
C54   O10   A    
C65   H11   S    
C77   H40   S    
C87   H59   S    
C51   H5    S    
C5    C86   S    
C48   C49   A    
C38   C77   S    
C57   O8    A    
C1    C26   S    
C14   C69   S    
C75   H35   S    
C42   C43   S    
O17   Zn4   S    
O32   Zn8   S    
O31   Zn3   S    
C3    C5    A    
C81   H48   S    
O1    Zn4   S    
C85   C88   S    
C44   C50   A    
C15   C17   A    
O15   Zn3   S    
C46   C47   A    
C64   H9    S    
C59   O3    A    
C53   H6    S    
O5    Zn8   S    
C17   C28   S    
O7    Zn5   S    
O12   Zn1   S    
C70   H17   S    
C52   O17   A    
C1    O30   A    
C28   O23   A    
C6    C7    A    
O1    Zn1   S    
C19   H23   S    
C56   C67   A    
C74   H32   S    
O18   Zn3   S    
C73   H27   S    
C83   O27   D    
O30   Zn2   S    
C70   H19   S    
C8    C87   S    
C32   C33   S    
O14   Zn2   S    
C19   C20   A    
C2    H8    S    
C2    C3    A    
C55   O11   A    
C82   H50   S    
C34   C78   A    
C15   C24   S    
O23   Zn4   S    
C11   C13   S    
C38   C39   A    
C84   H53   S    
O32   Zn7   S    
C53   C83   S    
C71   H21   S    
O10   Zn6   S    
C48   C82   S    
C85   H54   S    
C22   C24   S    
C47   C81   S    
C4    O31   A    
O34   Zn5   S    
C61   C62   A    
C35   C41   A    
C40   O16   A    
C10   C11   A    
C27   C72   S    
O2    Zn7   S    
O4    Zn4   S    
C15   C21   A    
C57   O35   A    
C20   C21   A    
C49   C50   A    
C87   H61   S    
C25   C33   S    
C86   H57   S    
C14   C68   S    
C22   H34   S    
C13   C14   S    
C58   O9    A    
C22   C70   S    
C77   H38   S    
C24   C71   S    
C71   H20   S    
C69   H16   S    
