data_mof_unit_10820.cif
_audit_creation_date              2012-12-10T17:49:32-0500
_audit_creation_method            fapswitch 2.2
_symmetry_space_group_name_H-M    P1
_symmetry_Int_Tables_number       1
_space_group_crystal_system       triclinic
_cell_length_a                    14.637531
_cell_length_b                    14.607791
_cell_length_c                    15.851903
_cell_angle_alpha                 77.042777
_cell_angle_beta                  101.058636
_cell_angle_gamma                 115.567229
_cell_volume                      2962.26626951

loop_
_atom_site_label
_atom_site_type_symbol
_atom_type_description
_atom_site_fract_x
_atom_site_fract_y
_atom_site_fract_z
_atom_type_partial_charge
C1    C     C_R   0.879360 0.311508 0.516939 0.789726
C2    C     C_3   0.064154 0.451162 0.069526 -0.440190
C3    C     C_3   0.005061 0.513668 0.081054 0.263090
C4    C     C_3   0.053691 0.629804 0.031737 0.153006
C5    C     C_3   0.060753 0.622709 0.933948 -0.209680
C6    C     C_1   0.004930 0.506439 0.174823 -0.106223
C7    C     C_1   0.997640 0.505899 0.822677 -0.068229
C8    C     C_1   0.997229 0.503289 0.747695 -0.156696
C9    C     C_R   0.809264 0.202742 0.538741 -0.060444
C10   C     C_R   0.188235 0.796819 0.492804 -0.056357
C11   C     C_R   0.778101 0.025296 0.597311 -0.135873
C12   C     C_R   0.998841 0.500498 0.659172 0.834946
C13   C     C_R   0.845363 0.125809 0.569958 -0.199191
C14   C     C_R   0.704759 0.177177 0.533542 -0.219520
C15   C     C_R   0.635627 0.077105 0.563630 0.075599
C16   C     C_R   0.672974 0.999530 0.596571 0.048465
C17   C     C_R   0.529762 0.051731 0.557063 0.035895
C18   C     C_R   0.461379 0.946945 0.570620 0.015070
C19   C     C_R   0.498884 0.873656 0.621291 -0.006047
C20   C     C_R   0.605246 0.898937 0.629422 -0.056399
C21   C     C_R   0.489435 0.127478 0.538151 -0.158642
C22   C     C_R   0.384962 0.100426 0.522721 -0.164138
C23   C     C_R   0.120316 0.688420 0.487586 0.786476
C24   C     C_R   0.318577 0.998477 0.518181 0.147017
C25   C     C_R   0.357259 0.921598 0.537707 0.081290
C26   C     C_R   0.214466 0.972610 0.492019 -0.176167
C27   C     C_R   0.149233 0.871768 0.481300 -0.183693
C28   C     C_R   0.292755 0.823856 0.517054 -0.245264
C29   C     C_R   0.738329 0.695253 0.390302 -0.318015
C30   C     C_R   0.807630 0.652679 0.392999 0.081712
C31   C     C_R   0.713310 0.505244 0.489395 0.018864
C32   C     C_R   0.639650 0.543886 0.488937 -0.006400
C33   C     C_R   0.655591 0.642429 0.439686 0.163702
C34   C     C_R   0.001022 0.499578 0.340685 0.830291
C35   C     C_R   0.551847 0.489691 0.535689 0.058757
C36   C     C_R   0.477807 0.530770 0.524149 0.101884
C37   C     C_R   0.505394 0.635089 0.487627 -0.157530
C38   C     C_R   0.591200 0.689049 0.443298 -0.183056
C39   C     C_R   0.537780 0.399930 0.596991 -0.299276
C40   C     C_R   0.452106 0.351075 0.643587 0.014579
C41   C     C_R   0.367487 0.379158 0.616859 -0.014949
C42   C     C_R   0.379970 0.468387 0.553319 -0.046185
C43   C     C_R   0.270180 0.321250 0.648349 -0.114935
C44   C     C_R   0.194658 0.359739 0.622851 -0.007463
C45   C     C_3   0.058277 0.443745 0.972151 -0.068868
C46   C     C_R   0.291590 0.486688 0.514848 0.212420
C47   C     C_3   0.890917 0.464909 0.941274 -0.377568
C48   C     C_3   0.893902 0.457682 0.040422 -0.421538
C49   C     C_1   0.004179 0.501666 0.251217 -0.208241
C50   C     C_3   0.000702 0.509133 0.914974 0.173913
Cu1   Cu    Cu3+1 0.081750 0.475690 0.522550 0.922121
Cu2   Cu    Cu3+1 0.918250 0.524310 0.477450 0.943230
H1    H     H_    0.032087 0.373130 0.108900 0.183606
H2    H     H_    0.137543 0.478887 0.953746 0.144834
H3    H     H_    0.145033 0.485340 0.096399 0.149093
H4    H     H_    0.324351 0.769546 0.516390 0.147255
H5    H     H_    0.068722 0.852858 0.463052 0.153865
H6    H     H_    0.356683 0.160254 0.509422 0.158848
H7    H     H_    0.809788 0.968376 0.619207 0.168646
H8    H     H_    0.925765 0.143321 0.573924 0.156623
H9    H     H_    0.678354 0.236568 0.503962 0.142101
H10   H     H_    0.536806 0.208134 0.537965 0.147166
H11   H     H_    0.183705 0.030446 0.479444 0.142826
H12   H     H_    0.606541 0.767112 0.410936 0.135741
H13   H     H_    0.122519 0.319333 0.650045 0.161297
H14   H     H_    0.751273 0.770531 0.352328 0.135702
H15   H     H_    0.874874 0.696084 0.359149 0.121026
H16   H     H_    0.709141 0.433313 0.528427 0.120026
H17   H     H_    0.850188 0.513403 0.906023 0.225957
H18   H     H_    0.457744 0.674062 0.490115 0.135591
H19   H     H_    0.597690 0.372698 0.616185 0.159072
H20   H     H_    0.845411 0.387392 0.922625 0.170787
H21   H     H_    0.863159 0.375144 0.070602 0.178929
H22   H     H_    0.842068 0.488736 0.054130 0.172349
H23   H     H_    0.141769 0.641166 0.928417 0.109790
N1    N     N_R   0.795410 0.560790 0.443550 -0.177499
N2    N     N_R   0.204590 0.439170 0.556520 -0.190647
O1    O     O_R   0.977910 0.338120 0.529720 -0.590449
O2    O     O_R   0.839850 0.379180 0.491640 -0.589373
O3    O     O_R   0.069060 0.479460 0.639610 -0.578113
O4    O     O_R   0.931000 0.520530 0.601530 -0.562021
O5    O     O_R   0.160150 0.620820 0.508360 -0.591375
O6    O     O_R   0.022090 0.661880 0.470280 -0.584977
O7    O     O_R   0.069000 0.479470 0.398470 -0.585625
O8    O     O_R   0.930940 0.520540 0.360390 -0.572956
C51   C     C_3   0.986364 0.690488 0.032128 -0.336526
C52   C     C_3   0.970163 0.702999 0.121510 -0.383235
C53   C     C_3   0.928795 0.784924 0.112153 -0.851155
H24   H     H_    0.984825 0.861299 0.084865 0.255717
H25   H     H_    0.855994 0.765070 0.068768 0.265080
H26   H     H_    0.914559 0.789586 0.177093 0.237427
H27   H     H_    0.913235 0.629729 0.152279 0.234508
H28   H     H_    0.042275 0.725429 0.165437 0.225761
H29   H     H_    0.020716 0.768646 0.994119 0.209687
H30   H     H_    0.910008 0.654250 0.996693 0.219186
C54   C     C_2   0.645955 0.821063 0.674042 0.800077
O9    O     O_2   0.612419 0.737695 0.649753 -0.597066
O10   O     O_R   0.721427 0.842779 0.744625 -0.763485
H31   H     H_    0.742713 0.783777 0.769580 0.341676
C55   C     C_3   0.011318 0.329756 0.957395 -0.379816
C56   C     C_3   0.085342 0.277544 0.993565 -0.374682
C57   C     C_3   0.038460 0.166243 0.977808 -0.777201
H32   H     H_    0.967986 0.121505 0.010663 0.241161
H33   H     H_    0.019920 0.163056 0.906912 0.272803
H34   H     H_    0.093519 0.130575 0.004571 0.246880
H35   H     H_    0.156416 0.319881 0.961145 0.234535
H36   H     H_    0.105736 0.278402 0.064666 0.215782
H37   H     H_    0.939456 0.285850 0.988517 0.206221
H38   H     H_    0.992141 0.325457 0.886752 0.210116
C58   C     C_3   0.431084 0.780638 0.681959 -0.374599
C59   C     C_3   0.385527 0.813563 0.743576 -0.319792
C60   C     C_3   0.322817 0.721660 0.806676 -0.819586
H39   H     H_    0.293982 0.748849 0.851669 0.258212
H40   H     H_    0.370439 0.681810 0.845948 0.246440
H41   H     H_    0.256793 0.666617 0.770383 0.263870
H42   H     H_    0.448163 0.869620 0.781634 0.226878
H43   H     H_    0.335193 0.851142 0.706237 0.247967
H44   H     H_    0.370224 0.721849 0.646204 0.202817
H45   H     H_    0.474743 0.738672 0.724409 0.222218
C61   C     C_3   0.281995 0.525046 0.417391 -0.386132
C62   C     C_3   0.238930 0.433307 0.367713 -0.300621
C63   C     C_3   0.240657 0.468859 0.269769 -0.884370
H46   H     H_    0.202729 0.522618 0.247114 0.261850
H47   H     H_    0.320476 0.508737 0.253299 0.252122
H48   H     H_    0.200646 0.401157 0.235630 0.238545
H49   H     H_    0.286182 0.387901 0.388871 0.202749
H50   H     H_    0.160178 0.380881 0.382326 0.242810
H51   H     H_    0.238725 0.573540 0.401050 0.224778
H52   H     H_    0.354302 0.576790 0.391130 0.172254
C64   C     C_2   0.459971 0.278363 0.723682 0.886725
O11   O     O_2   0.434801 0.282767 0.791409 -0.586265
O12   O     O_R   0.500889 0.208058 0.722661 -0.765501
H53   H     H_    0.503235 0.163233 0.781278 0.333837
C65   C     C_2   0.237916 0.215119 0.697188 0.860439
O13   O     O_2   0.189440 0.190048 0.759521 -0.584202
O14   O     O_R   0.258254 0.142296 0.669044 -0.775940
H54   H     H_    0.231327 0.072294 0.706830 0.349844
C66   C     C_2   0.036290 0.701348 0.862609 0.818841
O15   O     O_2   0.104778 0.770806 0.823529 -0.613502
O16   O     O_R   0.936177 0.692824 0.839300 -0.785963
H55   H     H_    0.930760 0.749230 0.790657 0.344149
C67   C     C_3   0.164817 0.687567 0.076301 -0.426780
C68   C     C_3   0.217129 0.803413 0.041871 -0.354551
C69   C     C_3   0.329017 0.847707 0.078810 -0.841986
H56   H     H_    0.335857 0.835741 0.151082 0.250630
H57   H     H_    0.371061 0.810387 0.057924 0.252535
H58   H     H_    0.364176 0.931510 0.054442 0.253890
H59   H     H_    0.213323 0.817251 0.969904 0.250736
H60   H     H_    0.179327 0.845739 0.061476 0.229418
H61   H     H_    0.164871 0.678483 0.147682 0.196709
H62   H     H_    0.214952 0.651877 0.067649 0.191701

loop_
_geom_bond_atom_site_label_1
_geom_bond_atom_site_label_2
_ccdc_geom_bond_type
C10   C27   A    
C56   H36   S    
C52   C53   S    
C56   C57   S    
C23   O5    A    
C43   C65   S    
C41   C42   A    
C52   H28   S    
C64   O12   S    
C35   C36   A    
C9    C14   A    
C3    C6    S    
C58   H44   S    
C60   H40   S    
C28   H4    S    
C5    C66   S    
C13   H8    S    
C25   C28   A    
C26   C27   A    
C29   C30   A    
C23   O6    A    
C21   C22   A    
Cu2   O8    S    
C24   C26   A    
C62   H50   S    
C2    H3    S    
C4    C67   S    
C4    C51   S    
C15   C16   A    
C29   C33   A    
C3    C48   S    
C57   H34   S    
C18   C19   A    
C42   C46   A    
C9    C13   A    
Cu1   O3    S    
C47   H17   S    
C51   H29   S    
C58   C59   S    
C36   C42   A    
C47   C48   S    
O12   H53   S    
C54   O10   S    
C59   H42   S    
Cu2   O2    S    
C30   H15   S    
C8    C12   S    
C20   C54   S    
C55   H38   S    
C37   H18   S    
C1    O1    A    
C41   C43   A    
C44   H13   S    
C31   H16   S    
C18   C25   A    
C34   O7    A    
C69   H58   S    
C11   H7    S    
C60   H39   S    
C47   C50   S    
C38   H12   S    
C2    C45   S    
C68   H59   S    
C55   H37   S    
Cu1   Cu2   S    
C32   C35   A    
C48   H22   S    
C7    C8    T    
C1    C9    S    
O16   H55   S    
C69   H57   S    
C27   H5    S    
C39   C40   A    
C51   C52   S    
O14   H54   S    
C65   O14   S    
C14   H9    S    
C2    H1    S    
C17   C21   A    
C61   H52   S    
C34   O8    A    
C67   H62   S    
C5    H23   S    
Cu2   O6    S    
C35   C39   A    
C26   H11   S    
Cu1   N2    S    
C37   C38   A    
C30   N1    A    
C11   C16   A    
C31   C32   A    
C53   H26   S    
C68   H60   S    
C16   C20   A    
C54   O9    D    
C17   C18   A    
C62   C63   S    
C46   C61   S    
C24   C25   A    
C57   H33   S    
Cu1   O5    S    
C21   H10   S    
C66   O16   S    
C40   C41   A    
C53   H25   S    
C45   H2    S    
C43   C44   A    
C1    O2    A    
C22   C24   A    
C5    C50   S    
C63   H47   S    
C3    C4    S    
C61   C62   S    
C19   C58   S    
C10   C28   A    
C56   H35   S    
C15   C17   A    
C40   C64   S    
C36   C37   A    
C34   C49   S    
C59   C60   S    
C14   C15   A    
C48   H21   S    
C7    C50   S    
C69   H56   S    
Cu2   N1    S    
C45   C55   S    
C58   H45   S    
C22   H6    S    
C46   N2    A    
C61   H51   S    
C65   O13   D    
C10   C23   S    
C44   N2    A    
C33   C38   A    
Cu2   O4    S    
C59   H43   S    
C32   C33   A    
C67   H61   S    
C19   C20   A    
C64   O11   D    
Cu1   O1    S    
C62   H49   S    
C11   C13   A    
C31   N1    A    
C45   C50   S    
C63   H48   S    
C12   O3    A    
C55   C56   S    
C12   O4    A    
C2    C3    S    
C6    C49   T    
C57   H32   S    
C47   H20   S    
C66   O15   D    
C29   H14   S    
C4    C5    S    
C53   H24   S    
O10   H31   S    
C39   H19   S    
C67   C68   S    
C51   H30   S    
C63   H46   S    
C52   H27   S    
Cu1   O7    S    
C60   H41   S    
C68   C69   S    
