data_mof_unit_59708.cif
_audit_creation_date              2012-12-10T17:05:25-0500
_audit_creation_method            fapswitch 2.2
_symmetry_space_group_name_H-M    P1
_symmetry_Int_Tables_number       1
_space_group_crystal_system       triclinic
_cell_length_a                    10.092329
_cell_length_b                    10.595
_cell_length_c                    15.484467
_cell_angle_alpha                 90.476761
_cell_angle_beta                  67.112408
_cell_angle_gamma                 87.969898
_cell_volume                      1523.97409388

loop_
_atom_site_label
_atom_site_type_symbol
_atom_type_description
_atom_site_fract_x
_atom_site_fract_y
_atom_site_fract_z
_atom_type_partial_charge
C1    C     C_R   0.492445 0.737258 0.508112 0.961577
C2    C     C_R   0.697658 0.615188 0.042364 0.168331
C3    C     C_R   0.572790 0.548688 0.091743 0.088244
C4    C     C_R   0.408920 0.497830 0.676297 0.898053
C5    C     C_R   0.796981 0.637754 0.083062 -0.240775
C6    C     C_R   0.772411 0.597569 0.173991 -0.048187
C7    C     C_R   0.558698 0.496282 0.176986 -0.245769
C8    C     C_2   0.538074 0.069680 0.564419 0.458537
C9    C     C_2   0.522690 0.128348 0.491140 -0.249492
C10   C     C_2   0.556330 0.931944 0.559600 -0.277119
C11   C     C_2   0.467501 0.868307 0.532609 -0.334318
C12   C     C_R   0.399784 0.537365 0.918706 0.105506
C13   C     C_2   0.100339 0.409691 0.461661 -0.086156
C14   C     C_2   0.948682 0.407987 0.463927 -0.081074
C15   C     C_R   0.504686 0.262345 0.497379 0.986635
C16   C     C_R   0.591416 0.504330 0.323671 0.896791
C17   C     C_R   0.349590 0.497502 0.779220 -0.146219
C18   C     C_R   0.649037 0.526873 0.222138 -0.118416
C19   C     C_R   0.171398 0.450210 0.932439 -0.252387
C20   C     C_R   0.213279 0.451081 0.835087 -0.048451
C21   C     C_R   0.437605 0.543658 0.822103 -0.280223
C22   C     C_3   0.515930 0.071578 0.721463 0.107111
C23   C     C_R   0.265799 0.486875 0.973657 0.127472
C24   C     C_3   0.488058 0.162474 0.804450 -0.309472
C25   C     C_3   0.472376 0.091832 0.893132 -0.928318
C26   C     C_2   0.561694 0.070131 0.395693 0.856032
C27   C     C_2   0.197527 0.302816 0.411049 1.047368
C28   C     C_2   0.909750 0.296992 0.421745 1.008917
C29   C     C_2   0.874295 0.636834 0.215915 0.922686
C30   C     C_2   0.116394 0.393284 0.795941 0.919812
C31   C     C_R   0.496589 0.570660 0.960803 0.073577
C32   C     C_R   0.465987 0.535359 0.054416 0.059142
C33   C     C_R   0.328167 0.491117 0.108596 -0.201258
C34   C     C_R   0.229626 0.468412 0.068735 -0.192930
C35   C     C_R   0.623127 0.636839 0.912694 -0.220177
C36   C     C_R   0.720705 0.660025 0.953608 -0.152108
H1    H     H_    0.126940 0.430783 0.111664 0.203264
H2    H     H_    0.540602 0.577425 0.777523 0.163133
H3    H     H_    0.291976 0.476260 0.182876 0.198894
H4    H     H_    0.647301 0.676357 0.844583 0.138531
H5    H     H_    0.615985 0.013513 0.709150 0.145380
H6    H     H_    0.422250 0.009813 0.739079 0.146704
H7    H     H_    0.578545 0.227382 0.787352 0.239925
H8    H     H_    0.387625 0.220035 0.817761 0.237398
H9    H     H_    0.380708 0.028072 0.912478 0.269953
H10   H     H_    0.451608 0.160843 0.951801 0.279701
H11   H     H_    0.572677 0.035314 0.882218 0.265701
H12   H     H_    0.891946 0.690098 0.044935 0.164712
H13   H     H_    0.685712 0.943534 0.296485 0.371548
H14   H     H_    0.329198 0.227842 0.285591 0.372028
H15   H     H_    0.874054 0.110583 0.428180 0.357859
H16   H     H_    0.005834 0.586665 0.281197 0.339137
H17   H     H_    0.912382 0.374324 0.806540 0.346981
H18   H     H_    0.644626 0.885927 0.572469 0.179129
H19   H     H_    0.374304 0.915827 0.526294 0.170151
H20   H     H_    0.078337 0.570943 0.535822 0.156657
H21   H     H_    0.879903 0.577916 0.525728 0.156929
H22   H     H_    0.474061 0.433353 0.211438 0.210481
H23   H     H_    0.815354 0.712375 0.915143 0.152735
H24   H     H_    0.068744 0.412288 0.975758 0.178592
N1    N     N_2   0.148330 0.498670 0.499030 -0.224765
N2    N     N_2   0.852680 0.498640 0.499000 -0.221858
O1    O     O_R   0.386950 0.680940 0.500010 -0.626064
O2    O     O_2   0.505010 0.111502 0.344382 -0.615470
O3    O     O_R   0.668696 0.973572 0.362432 -0.773142
O4    O     O_2   0.196286 0.203726 0.451217 -0.559969
O5    O     O_R   0.276689 0.310391 0.314941 -0.848074
O6    O     O_2   0.887491 0.307768 0.349992 -0.570736
O7    O     O_R   0.901168 0.179407 0.463413 -0.775372
O8    O     O_2   0.909444 0.746692 0.210691 -0.616501
O9    O     O_R   0.936460 0.548061 0.256576 -0.758293
O10   O     O_2   0.164513 0.317531 0.730004 -0.595944
O11   O     O_R   0.968113 0.420464 0.838308 -0.813141
O12   O     O_R   0.613110 0.680900 0.499990 -0.605171
O13   O     O_R   0.322330 0.500030 0.632270 -0.593665
O14   O     O_R   0.548480 0.499990 0.632240 -0.616446
O15   O     O_R   0.386890 0.319100 0.500010 -0.566671
O16   O     O_R   0.613050 0.319060 0.499990 -0.587555
O17   O     O_R   0.451520 0.500010 0.367760 -0.603921
O18   O     O_R   0.677670 0.499970 0.367730 -0.544250
O19   O     O_3   0.532917 0.143010 0.641559 -0.620771
Zn1   Zn    Zn3+2 0.349000 0.500030 0.500020 1.007494
Zn2   Zn    Zn3+2 0.651000 0.499970 0.499980 1.011818

loop_
_geom_bond_atom_site_label_1
_geom_bond_atom_site_label_2
_ccdc_geom_bond_type
N2    Zn2   S    
C34   H1    S    
C19   C20   A    
C1    C11   S    
O12   Zn2   S    
C36   H23   S    
H21   N2    S    
C15   O15   A    
C12   C23   A    
C33   H3    S    
H13   O3    S    
C1    O12   A    
C28   O6    D    
C3    C7    A    
N1    Zn1   S    
C5    C6    A    
C22   H5    S    
C14   N2    D    
C17   C20   A    
C26   O2    D    
C4    O13   A    
O16   Zn2   S    
C21   H2    S    
C28   O7    S    
C8    C9    D    
H14   O5    S    
C25   H11   S    
C7    H22   S    
C23   C34   A    
C13   C14   S    
O18   Zn2   S    
C1    O1    A    
O14   Zn2   S    
C9    C26   S    
C6    C18   A    
C5    H12   S    
O1    Zn1   S    
C8    O19   S    
C22   O19   S    
C24   C25   S    
C30   O11   S    
C20   C30   S    
C12   C21   A    
C17   C21   A    
C16   O18   A    
C35   C36   A    
C19   C23   A    
C31   C32   A    
C7    C18   A    
C33   C34   A    
C4    C17   S    
C16   C18   S    
C12   C31   A    
C24   H8    S    
C22   C24   S    
C2    C5    A    
C25   H9    S    
C11   H19   S    
C29   O8    D    
C2    C36   A    
C26   O3    S    
H17   O11   S    
O17   Zn1   S    
C30   O10   D    
O13   Zn1   S    
C19   H24   S    
C16   O17   A    
C32   C33   A    
C35   H4    S    
C9    C15   S    
H16   O9    S    
C22   H6    S    
O15   Zn1   S    
C2    C3    A    
C31   C35   A    
C3    C32   A    
C10   H18   S    
C4    O14   A    
C27   O5    S    
C10   C11   D    
C15   O16   A    
C6    C29   S    
C13   N1    D    
C8    C10   S    
C27   O4    D    
C24   H7    S    
H20   N1    S    
C13   C27   S    
H15   O7    S    
C14   C28   S    
C25   H10   S    
C29   O9    S    
