data_mof_unit_46963.cif
_audit_creation_date              2012-12-10T19:06:24-0500
_audit_creation_method            fapswitch 2.2
_symmetry_space_group_name_H-M    P1
_symmetry_Int_Tables_number       1
_space_group_crystal_system       triclinic
_cell_length_a                    23.517323
_cell_length_b                    10.818273
_cell_length_c                    9.54219
_cell_angle_alpha                 90.26055
_cell_angle_beta                  90.071268
_cell_angle_gamma                 90.322244
_cell_volume                      2427.62818651

loop_
_atom_site_label
_atom_site_type_symbol
_atom_type_description
_atom_site_fract_x
_atom_site_fract_y
_atom_site_fract_z
_atom_type_partial_charge
C1    C     C_R   0.500627 0.262375 0.499712 0.807199
C2    C     C_R   0.970375 0.268480 0.495189 0.496705
C3    C     C_R   0.030004 0.270771 0.492050 -0.249122
C4    C     C_R   0.060115 0.382928 0.495598 -0.085234
C5    C     C_R   0.030164 0.495088 0.499287 -0.019870
C6    C     C_R   0.060250 0.608241 0.502535 0.003513
C7    C     C_R   0.030180 0.719914 0.505077 -0.164155
C8    C     C_R   0.970949 0.719468 0.503982 -0.162886
C9    C     C_R   0.119801 0.385889 0.495269 0.562345
C10   C     C_R   0.119893 0.606609 0.502707 0.532441
C11   C     C_R   0.238769 0.494195 0.372468 -0.103919
C12   C     C_R   0.390910 0.499703 0.499952 0.797669
C13   C     C_R   0.298065 0.495149 0.372485 -0.208737
C14   C     C_R   0.328276 0.498983 0.499745 -0.042982
C15   C     C_R   0.298048 0.501857 0.626792 -0.213703
C16   C     C_R   0.238750 0.501098 0.626375 -0.106412
C17   C     C_R   0.209059 0.497227 0.499312 0.362392
C18   C     C_R   0.760514 0.453011 0.381468 -0.095107
C19   C     C_R   0.701220 0.453869 0.382168 -0.217364
C20   C     C_R   0.671606 0.498675 0.499467 -0.034855
C21   C     C_R   0.702320 0.542341 0.615987 -0.223301
C22   C     C_R   0.761587 0.541178 0.615360 -0.098416
C23   C     C_R   0.501018 0.737714 0.500273 0.802446
C24   C     C_R   0.790942 0.496614 0.498090 0.342541
C25   C     C_R   0.499495 0.064617 0.624895 0.040230
C26   C     C_R   0.505407 0.129372 0.499804 -0.071707
C27   C     C_R   0.518744 0.064152 0.376559 -0.203524
C28   C     C_R   0.519000 0.935227 0.377125 -0.177062
C29   C     C_R   0.506244 0.870952 0.501075 -0.136826
C30   C     C_R   0.500910 0.937226 0.626144 0.014729
C31   C     C_3   0.455055 0.931693 0.736197 0.375170
C32   C     C_3   0.453470 0.072396 0.732661 -0.515777
C33   C     C_R   0.533456 0.581580 0.074300 0.266620
C34   C     C_R   0.609051 0.499802 0.499950 0.795026
C35   C     C_R   0.463447 0.427163 0.073937 -0.076418
C36   C     C_R   0.463410 0.427231 0.925033 -0.078038
C37   C     C_R   0.533700 0.580986 0.926755 0.316349
C38   C     C_3   0.597018 0.587156 0.922486 -0.539397
C39   C     C_3   0.596656 0.589761 0.080945 -0.508150
C40   C     C_R   0.880952 0.605652 0.499746 0.531878
C41   C     C_R   0.879825 0.384720 0.495933 0.558354
C42   C     C_R   0.939819 0.381090 0.496134 -0.120992
C43   C     C_R   0.970100 0.494359 0.498894 -0.083234
C44   C     C_R   0.940500 0.607372 0.500990 0.014366
Cu1   Cu    Cu3+1 0.500000 0.499980 0.640670 0.957332
Cu2   Cu    Cu3+1 0.500000 0.500020 0.359330 0.946807
H1    H     H_    0.678628 0.417852 0.291893 0.145417
H2    H     H_    0.680677 0.579025 0.706646 0.149077
H3    H     H_    0.784782 0.575020 0.705959 0.143361
H4    H     H_    0.526584 0.112051 0.278973 0.161037
H5    H     H_    0.526858 0.886385 0.279830 0.158363
H6    H     H_    0.415234 0.888766 0.695318 0.102545
H7    H     H_    0.413133 0.109054 0.688808 0.166004
H8    H     H_    0.467701 0.119153 0.830514 0.204846
H9    H     H_    0.434720 0.366257 0.129434 0.141817
H10   H     H_    0.052555 0.183849 0.486522 0.200602
H11   H     H_    0.434624 0.366440 0.868740 0.138700
H12   H     H_    0.616155 0.501150 0.879846 0.221060
H13   H     H_    0.613163 0.674238 0.875637 0.186464
H14   H     H_    0.616332 0.506161 0.126674 0.218922
H15   H     H_    0.611552 0.679196 0.126008 0.196409
H16   H     H_    0.052274 0.808031 0.507502 0.189177
H17   H     H_    0.949120 0.807315 0.505441 0.186875
H18   H     H_    0.215844 0.491225 0.274009 0.136006
H19   H     H_    0.320160 0.492730 0.273004 0.158973
H20   H     H_    0.320132 0.504786 0.726429 0.160173
H21   H     H_    0.215809 0.503425 0.724670 0.135648
H22   H     H_    0.782878 0.418372 0.290397 0.145600
N1    N     N_R   0.851986 0.495634 0.497575 -0.476829
N2    N     N_R   0.148209 0.496552 0.499091 -0.472415
N3    N     N_R   0.500360 0.500930 0.147930 -0.187430
N4    N     N_R   0.500360 0.500890 0.852020 -0.185419
O1    O     O_R   0.500000 0.319640 0.618810 -0.576837
O2    O     O_2   0.849304 0.278774 0.495590 -0.479880
O3    O     O_2   0.149277 0.279254 0.491600 -0.528898
O4    O     O_2   0.149418 0.713910 0.506156 -0.527558
O5    O     O_R   0.500010 0.319680 0.381230 -0.589828
O6    O     O_R   0.417880 0.499940 0.618820 -0.583855
O7    O     O_R   0.417880 0.499980 0.381240 -0.581671
O8    O     O_R   0.499990 0.680320 0.618770 -0.565586
O9    O     O_R   0.500000 0.680360 0.381190 -0.576799
O10   O     O_R   0.582120 0.500020 0.618760 -0.585040
O11   O     O_R   0.582120 0.500060 0.381180 -0.586570
O12   O     O_2   0.852100 0.713163 0.499670 -0.535225
O13   O     O_3   0.942252 0.155957 0.487097 -0.530596
C45   C     C_3   0.946451 0.096093 0.617717 -0.227275
H23   H     H_    0.918424 0.013304 0.615819 0.203493
H24   H     H_    0.931757 0.156471 0.705241 0.160882
H25   H     H_    0.990557 0.063978 0.637455 0.135947
O14   O     O_3   0.469868 0.881822 0.869621 -0.551718
C46   C     C_3   0.527463 0.900242 0.908017 -0.261607
H26   H     H_    0.539324 0.999626 0.911396 0.153897
H27   H     H_    0.556296 0.848983 0.836850 0.161114
H28   H     H_    0.533822 0.862969 0.014883 0.161704

loop_
_geom_bond_atom_site_label_1
_geom_bond_atom_site_label_2
_ccdc_geom_bond_type
C1    O5    A    
C41   C42   A    
C40   O12   S    
C19   C20   A    
C31   H6    S    
C7    C8    A    
C13   H19   S    
O13   C45   S    
C26   C27   A    
C29   C30   A    
C18   C24   A    
C23   C29   S    
C28   C29   A    
C5    C6    A    
C28   H5    S    
C45   H24   S    
C18   H22   S    
C15   C16   A    
C12   O7    A    
C2    O13   S    
Cu1   O1    S    
C18   C19   A    
C41   O2    S    
C38   H12   S    
C10   O4    S    
Cu1   O10   S    
C16   C17   A    
C12   O6    A    
Cu1   O6    S    
C23   O8    A    
C27   H4    S    
C21   H2    S    
C20   C34   S    
C25   C32   S    
C5    C43   A    
C35   N3    A    
C17   N2    S    
C21   C22   A    
Cu1   N4    S    
C32   H8    S    
C24   N1    S    
C38   C39   S    
C39   H15   S    
C40   N1    A    
C35   H9    S    
C9    N2    A    
C11   H18   S    
C46   H26   S    
C45   H23   S    
C25   C26   A    
Cu1   Cu2   S    
C15   H20   S    
C33   C37   A    
Cu2   O11   S    
C35   C36   A    
C43   C44   A    
C7    H16   S    
C37   C38   S    
C46   H27   S    
Cu2   O9    S    
C3    H10   S    
C31   C32   S    
C30   C31   S    
C31   O14   S    
C16   H21   S    
C33   C39   S    
Cu2   N3    S    
C22   H3    S    
C10   N2    A    
C12   C14   S    
C36   H11   S    
C1    C26   S    
C22   C24   A    
C34   O11   A    
C3    C4    A    
C32   H7    S    
C41   N1    A    
C25   C30   A    
C11   C17   A    
C23   O9    A    
C8    C44   A    
C4    C5    A    
C45   H25   S    
C6    C10   A    
Cu2   O5    S    
C6    C7    A    
C9    O3    S    
C1    O1    A    
C2    C3    A    
C46   H28   S    
C11   C13   A    
O14   C46   S    
Cu2   O7    S    
C2    C42   A    
C39   H14   S    
Cu1   O8    S    
C19   H1    S    
C33   N3    A    
C8    H17   S    
C38   H13   S    
C40   C44   A    
C20   C21   A    
C42   C43   A    
C37   N4    A    
C27   C28   A    
C14   C15   A    
C34   O10   A    
C4    C9    A    
C13   C14   A    
C36   N4    A    
