data_mof_unit_54436.cif
_audit_creation_date              2012-12-11T16:08:51-0500
_audit_creation_method            fapswitch 2.2
_symmetry_space_group_name_H-M    P1
_symmetry_Int_Tables_number       1
_space_group_crystal_system       triclinic
_cell_length_a                    12.986227
_cell_length_b                    13.289286
_cell_length_c                    27.723278
_cell_angle_alpha                 94.694702
_cell_angle_beta                  89.927688
_cell_angle_gamma                 119.483495
_cell_volume                      4146.65133226

loop_
_atom_site_label
_atom_site_type_symbol
_atom_type_description
_atom_site_fract_x
_atom_site_fract_y
_atom_site_fract_z
_atom_type_partial_charge
C1    C     C_R   0.630059 0.894297 0.428378 0.557846
C2    C     C_R   0.164504 0.743963 0.299844 0.002074
C3    C     C_R   0.165421 0.745040 0.198569 0.006450
C4    C     C_R   0.600417 0.220537 0.439960 0.543627
C5    C     C_R   0.166326 0.654641 0.220729 -0.089845
C6    C     C_R   0.162152 0.651993 0.270381 -0.102792
C7    C     C_R   0.164099 0.744326 0.148062 0.067731
C8    C     C_R   0.133368 0.817967 0.126270 0.023375
C9    C     C_R   0.191641 0.940380 0.358183 0.060312
C10   C     C_R   0.171316 0.932067 0.307613 0.010548
C11   C     C_R   0.164913 0.836903 0.278328 0.028482
C12   C     C_R   0.565255 0.285567 0.221857 0.035885
C13   C     C_R   0.164323 0.019860 0.285346 -0.130416
C14   C     C_R   0.153542 0.014806 0.235215 -0.095744
C15   C     C_R   0.151758 0.923087 0.205306 -0.011586
C16   C     C_R   0.267320 0.875535 0.425902 0.590839
C17   C     C_R   0.159602 0.834604 0.227331 0.023022
C18   C     C_R   0.139537 0.915471 0.154179 0.018247
C19   C     C_R   0.202026 0.851691 0.378837 0.081701
C20   C     C_R   0.765246 0.926260 0.359510 0.057238
C21   C     C_R   0.765565 0.916872 0.308451 -0.010010
C22   C     C_R   0.753501 0.905703 0.207141 0.014032
C23   C     C_R   0.562373 0.281263 0.272178 -0.143901
C24   C     C_R   0.851107 0.996340 0.233576 -0.086775
C25   C     C_R   0.860120 0.998478 0.283421 -0.086552
C26   C     C_R   0.751643 0.900272 0.157263 -0.107686
C27   C     C_R   0.677772 0.795745 0.129947 -0.058165
C28   C     C_R   0.627428 0.897940 0.564573 0.548706
C29   C     C_R   0.567519 0.757184 0.355557 -0.148473
C30   C     C_R   0.571043 0.741984 0.305606 -0.019034
C31   C     C_R   0.666099 0.825031 0.281536 0.037600
C32   C     C_R   0.475357 0.649483 0.279560 -0.126201
C33   C     C_R   0.471536 0.634666 0.228899 0.059806
C34   C     C_R   0.659312 0.294081 0.299336 -0.032592
C35   C     C_R   0.569389 0.717064 0.203354 -0.019151
C36   C     C_R   0.662245 0.815968 0.230597 0.028611
C37   C     C_R   0.584859 0.701891 0.152824 -0.029848
C38   C     C_R   0.658806 0.854152 0.382003 -0.007977
C39   C     C_R   0.748224 0.311477 0.650092 0.099095
C40   C     C_R   0.603609 0.228083 0.578284 0.562787
C41   C     C_R   0.760942 0.327587 0.701623 0.071043
C42   C     C_R   0.772174 0.345863 0.804652 -0.032893
C43   C     C_R   0.864358 0.346557 0.778064 -0.116697
C44   C     C_R   0.861343 0.339920 0.727632 0.082365
C45   C     C_R   0.670453 0.308711 0.198415 -0.026418
C46   C     C_R   0.780162 0.361414 0.855898 0.041260
C47   C     C_R   0.688802 0.369347 0.880841 -0.026583
C48   C     C_R   0.557100 0.302403 0.653864 -0.155552
C49   C     C_R   0.564662 0.314925 0.704126 0.004957
C50   C     C_R   0.665736 0.325068 0.728372 0.004516
C51   C     C_R   0.469229 0.310265 0.730476 0.111435
C52   C     C_R   0.271487 0.879096 0.563350 0.549894
C53   C     C_R   0.473650 0.314042 0.780928 0.130007
C54   C     C_R   0.574603 0.326591 0.805415 0.008370
C55   C     C_R   0.671001 0.332648 0.779445 -0.001077
C56   C     C_1   0.685769 0.345162 0.149649 0.069768
C57   C     C_R   0.583539 0.341092 0.855770 -0.137691
C58   C     C_R   0.641344 0.288897 0.627261 0.023567
C59   C     C_1   0.220579 0.861539 0.609889 -0.007304
C60   C     C_R   0.087523 0.737309 0.718563 -0.093103
C61   C     C_R   0.073978 0.727956 0.768295 -0.099876
C62   C     C_R   0.217671 0.932588 0.784705 -0.102983
C63   C     C_R   0.231376 0.941915 0.734935 -0.105539
C64   C     C_1   0.628997 0.260434 0.392569 0.034352
C65   C     C_R   0.166644 0.844212 0.701785 0.034940
C66   C     C_R   0.139703 0.825291 0.801472 0.033227
C67   C     C_1   0.645401 0.280261 0.350661 0.012224
C68   C     C_1   0.123317 0.814103 0.852456 -0.041635
C69   C     C_1   0.190662 0.851912 0.651172 -0.056751
C70   C     C_1   0.100260 0.797493 0.894160 0.015164
C71   C     C_1   0.646986 0.859452 0.608699 -0.009348
C72   C     C_R   0.660754 0.884076 0.734602 -0.135540
C73   C     C_R   0.672460 0.868243 0.782896 -0.128317
C74   C     C_R   0.710486 0.710191 0.757573 0.162920
C75   C     C_R   0.698107 0.725839 0.708719 0.163254
C76   C     C_R   0.761000 0.305971 0.275847 0.043531
C77   C     C_R   0.673478 0.813748 0.697378 0.009167
C78   C     C_1   0.698785 0.383592 0.110714 0.085046
C79   C     C_R   0.697256 0.781912 0.794716 0.010607
C80   C     C_1   0.711772 0.770327 0.845108 -0.055966
C81   C     C_1   0.660365 0.834644 0.648163 -0.062630
C82   C     C_1   0.726530 0.762673 0.887244 -0.002893
C83   C     C_R   0.067201 0.774510 0.078761 0.577752
C84   C     C_R   0.716421 0.440336 0.067036 0.555823
C85   C     C_R   0.719890 0.780387 0.081757 0.540247
C86   C     C_R   0.056633 0.766438 0.941231 0.544957
C87   C     C_R   0.710071 0.432172 0.929430 0.542579
C88   C     C_R   0.766974 0.314374 0.224818 0.022549
C89   C     C_R   0.172439 0.747348 0.350377 0.063131
C90   C     C_R   0.749100 0.754734 0.936958 0.550831
C91   C     C_2   0.857317 0.304526 0.304509 0.617479
C92   C     C_2   0.872542 0.010910 0.389736 0.576899
C93   C     C_2   0.520854 0.583532 0.126820 0.664748
C94   C     C_2   0.359050 0.536444 0.206045 0.593257
C95   C     C_2   0.873879 0.331166 0.198716 0.590969
C96   C     C_2   0.883339 0.371359 0.883466 0.584969
C97   C     C_2   0.456385 0.264674 0.194841 0.614694
C98   C     C_2   0.136282 0.009149 0.129541 0.597185
Cr1   Cr    Cr6+3 0.416430 0.829200 0.492370 1.043084
Cr2   Cr    Cr6+3 0.674630 0.087020 0.504170 1.083717
Cr3   Cr    Cr6+3 0.408920 0.083740 0.503490 1.044180
Cr4   Cr    Cr6+3 0.914010 0.832750 0.013970 1.079025
Cr5   Cr    Cr6+3 0.922310 0.578600 0.003000 1.084721
Cr6   Cr    Cr6+3 0.656280 0.574630 0.003870 1.099738
H1    H     H_    0.147349 0.084342 0.220544 0.174142
H2    H     H_    0.479141 0.291859 0.635017 0.142621
H3    H     H_    0.038092 0.660946 0.693343 0.126872
H4    H     H_    0.012893 0.644644 0.780903 0.131785
H5    H     H_    0.268349 0.008484 0.809999 0.124327
H6    H     H_    0.293963 0.024706 0.722349 0.117006
H7    H     H_    0.641858 0.951802 0.726235 0.127874
H8    H     H_    0.662757 0.924018 0.811139 0.140762
H9    H     H_    0.482541 0.265027 0.290538 0.163534
H10   H     H_    0.164709 0.582049 0.199958 0.191617
H11   H     H_    0.161021 0.578650 0.285166 0.160256
H12   H     H_    0.167763 0.093917 0.306247 0.133193
H13   H     H_    0.956972 0.354258 0.366797 0.358537
H14   H     H_    0.130455 0.046893 0.385031 0.248443
H15   H     H_    0.279021 0.114331 0.377069 0.236946
H16   H     H_    0.983138 0.036949 0.446297 0.338914
H17   H     H_    0.441760 0.629605 0.077266 0.305029
H18   H     H_    0.237676 0.470735 0.150395 0.350937
H19   H     H_    0.939975 0.290112 0.139139 0.336391
H20   H     H_    0.940833 0.309957 0.935085 0.342656
H21   H     H_    0.855523 0.247255 0.626666 0.272603
H22   H     H_    0.916051 0.395922 0.626079 0.259189
H23   H     H_    0.820544 0.972485 0.140129 0.185111
H24   H     H_    0.973693 0.277568 0.714017 0.240382
H25   H     H_    0.036748 0.423891 0.716091 0.239691
H26   H     H_    0.299817 0.228737 0.795919 0.251227
H27   H     H_    0.362388 0.375421 0.799663 0.263509
H28   H     H_    0.324106 0.221944 0.684470 0.227266
H29   H     H_    0.390692 0.369877 0.686173 0.239234
H30   H     H_    0.299415 0.260006 0.196953 0.371212
H31   H     H_    0.669806 0.565512 0.790128 0.232835
H32   H     H_    0.816397 0.660783 0.789454 0.222404
H33   H     H_    0.632532 0.608931 0.649820 0.227236
H34   H     H_    0.923287 0.063493 0.215500 0.175393
H35   H     H_    0.779532 0.704513 0.649684 0.231768
H36   H     H_    0.278877 0.688810 0.127781 0.272207
H37   H     H_    0.132360 0.582416 0.122320 0.253109
H38   H     H_    0.073498 0.577011 0.361608 0.268903
H39   H     H_    0.222758 0.628484 0.363261 0.229377
H40   H     H_    0.058108 0.105892 0.121417 0.341577
H41   H     H_    0.940304 0.067110 0.301690 0.184558
H42   H     H_    0.400953 0.589403 0.299217 0.143118
H43   H     H_    0.488492 0.698558 0.373327 0.135330
H44   H     H_    0.941640 0.353161 0.795921 0.161219
H45   H     H_    0.511911 0.341607 0.875630 0.192665
N1    N     N_3   0.206817 0.040082 0.388529 -0.595005
N2    N     N_3   0.839672 0.314823 0.619988 -0.590254
N3    N     N_3   0.961778 0.345386 0.703884 -0.665733
N4    N     N_3   0.375693 0.306956 0.807586 -0.633862
N5    N     N_3   0.365456 0.299732 0.706903 -0.649409
N6    N     N_3   0.736652 0.621519 0.768810 -0.587116
N7    N     N_3   0.711014 0.652168 0.671327 -0.585241
N8    N     N_3   0.192953 0.669175 0.118026 -0.585931
N9    N     N_3   0.155972 0.647373 0.373198 -0.591361
O1    O     O_R   0.296680 0.802170 0.437540 -0.486442
O2    O     O_R   0.637200 0.461990 0.052510 -0.442442
O3    O     O_R   0.664790 0.681920 0.057970 -0.478610
O4    O     O_R   0.525380 0.838530 0.443500 -0.514382
O5    O     O_R   0.815840 0.852920 0.961840 -0.490378
O6    O     O_R   0.012100 0.822630 0.963670 -0.512903
O7    O     O_R   0.037010 0.668460 0.953040 -0.468990
O8    O     O_R   0.813390 0.478970 0.949660 -0.469731
O9    O     O_R   0.632250 0.456930 0.945520 -0.525401
O10   O     O_R   0.660200 0.677230 0.958780 -0.483155
O11   O     O_3   0.830870 0.661990 0.006950 -0.303452
O12   O     O_R   0.662610 0.183990 0.557860 -0.465504
O13   O     O_R   0.702130 0.995190 0.446810 -0.470404
O14   O     O_R   0.661770 0.181390 0.458760 -0.476384
O15   O     O_R   0.499820 0.198480 0.455280 -0.510173
O16   O     O_R   0.311660 0.976250 0.449080 -0.469135
O17   O     O_R   0.297580 0.804960 0.544440 -0.501492
O18   O     O_R   0.526220 0.841130 0.542590 -0.497045
O19   O     O_R   0.703030 0.997990 0.553710 -0.502337
O20   O     O_2   0.904682 0.250140 0.287992 -0.486514
O21   O     O_R   0.892264 0.363441 0.350812 -0.701212
O22   O     O_2   0.920813 0.114597 0.384458 -0.517644
O23   O     O_R   0.500730 0.201280 0.562180 -0.531720
O24   O     O_R   0.912801 0.971556 0.426681 -0.690547
O25   O     O_2   0.531138 0.505124 0.142023 -0.447922
O26   O     O_R   0.447756 0.559690 0.085515 -0.603095
O27   O     O_2   0.301948 0.450044 0.227533 -0.488073
O28   O     O_R   0.313393 0.544314 0.161975 -0.733082
O29   O     O_2   0.972773 0.397110 0.216826 -0.518663
O30   O     O_R   0.861074 0.271491 0.153196 -0.699014
O31   O     O_2   0.983400 0.449649 0.877421 -0.520410
O32   O     O_R   0.864506 0.293616 0.917946 -0.679097
O33   O     O_2   0.441663 0.234413 0.151379 -0.447758
O34   O     O_R   0.312500 0.978850 0.548170 -0.496019
O35   O     O_R   0.368416 0.276264 0.219455 -0.676193
O36   O     O_2   0.205671 0.054667 0.097908 -0.453463
O37   O     O_R   0.051626 0.042064 0.141041 -0.739316
O38   O     O_3   0.499990 0.999990 0.500010 -0.268955
O39   O     O_R   0.820790 0.857990 0.068830 -0.489191
O40   O     O_R   0.016700 0.827330 0.062850 -0.480065
O41   O     O_R   0.041970 0.673520 0.060040 -0.476777
O42   O     O_R   0.817980 0.483660 0.048840 -0.502588

loop_
_geom_bond_atom_site_label_1
_geom_bond_atom_site_label_2
_ccdc_geom_bond_type
C15   C18   A    
C66   C68   S    
C63   C65   A    
C51   N5    S    
C53   N4    S    
Cr1   O1    S    
C5    H10   S    
Cr2   O14   S    
C8    C83   S    
C85   O3    A    
Cr3   O15   S    
C35   C36   A    
C94   O27   D    
Cr3   O34   S    
C33   C94   S    
C40   O12   A    
C84   O2    A    
C95   O29   D    
C89   N9    S    
C39   C41   A    
H40   O37   S    
C53   C54   A    
C84   O42   A    
C21   C31   A    
C12   C23   A    
C26   C27   A    
C72   C77   A    
H39   N9    S    
C35   C37   A    
Cr6   O2    S    
C16   O16   A    
C3    C7    A    
Cr4   O40   S    
C52   O34   A    
C30   C31   A    
H36   N8    S    
C93   O26   S    
H18   O28   S    
C87   O8    A    
C32   H42   S    
C2    C11   A    
C97   O35   S    
C91   O20   D    
C39   N2    S    
C56   C78   T    
C98   O36   D    
C27   C85   S    
C42   C46   A    
C96   O32   S    
H19   O30   S    
H14   N1    S    
C61   H4    S    
C16   O1    A    
C43   H44   S    
C92   O22   D    
C46   C47   A    
C75   N7    S    
C9    C19   A    
C14   H1    S    
C48   H2    S    
Cr1   O18   S    
C45   C56   S    
Cr4   O5    S    
C49   C51   A    
C57   H45   S    
C29   C38   A    
C98   O37   S    
H28   N5    S    
C29   C30   A    
H21   N2    S    
C9    C10   A    
C76   C88   A    
Cr3   O38   S    
C72   C73   A    
Cr4   O11   S    
C88   C95   S    
C13   C14   A    
Cr2   O13   S    
Cr3   O16   S    
C2    C6    A    
C86   O7    A    
H38   N9    S    
Cr2   O19   S    
C61   C66   A    
H20   O32   S    
H24   N3    S    
C95   O30   S    
Cr2   O38   S    
C87   O9    A    
C9    N1    S    
C40   C58   S    
C74   C75   A    
C62   C66   A    
Cr2   O12   S    
H29   N5    S    
C64   C67   T    
H27   N4    S    
C45   C88   A    
C24   C25   A    
H25   N3    S    
C80   C82   T    
H31   N6    S    
Cr6   O3    S    
H32   N6    S    
C28   O18   A    
C24   H34   S    
C39   C58   A    
Cr1   O38   S    
C1    O13   A    
C8    C18   A    
H33   N7    S    
C91   O21   S    
C60   C61   A    
C51   C53   A    
C47   C87   S    
C96   O31   D    
C2    C89   A    
H13   O21   S    
C43   C44   A    
C29   H43   S    
C62   C63   A    
C19   C89   A    
C52   C59   S    
C42   C55   A    
C23   H9    S    
Cr1   O4    S    
C20   C38   A    
H22   N2    S    
C77   C81   S    
C23   C34   A    
C73   C79   A    
C37   C93   S    
Cr5   O41   S    
C83   O40   A    
C75   C77   A    
C52   O17   A    
C12   C97   S    
C60   H3    S    
C1    C38   S    
C59   C69   T    
H17   O26   S    
H37   N8    S    
C48   C49   A    
C46   C96   S    
C60   C65   A    
Cr5   O7    S    
C20   C92   S    
C74   C79   A    
C41   C44   A    
C22   C24   A    
Cr4   O39   S    
C28   C71   S    
C86   O6    A    
C42   C43   A    
C83   O41   A    
C70   C86   S    
C41   C50   A    
Cr3   O23   S    
C73   H8    S    
C40   O23   A    
C28   O19   A    
C85   O39   A    
C15   C17   A    
C21   C25   A    
C54   C55   A    
C11   C17   A    
C4    O14   A    
C90   O10   A    
C14   C15   A    
C94   O28   S    
C12   C45   A    
C3    C5    A    
C10   C13   A    
C82   C90   S    
C34   C67   S    
C1    O4    A    
Cr6   O10   S    
C48   C58   A    
C7    N8    S    
H30   O35   S    
C22   C36   A    
C4    C64   S    
C50   C55   A    
C44   N3    S    
C90   O5    A    
C4    O15   A    
C32   C33   A    
C63   H6    S    
C92   O24   S    
Cr6   O9    S    
C30   C32   A    
C93   O25   D    
C5    C6    A    
C62   H5    S    
H35   N7    S    
H15   N1    S    
C16   C19   S    
C65   C69   S    
C33   C35   A    
C74   N6    S    
C3    C17   A    
H26   N4    S    
C26   H23   S    
C6    H11   S    
C72   H7    S    
C13   H12   S    
C7    C8    A    
C10   C11   A    
C76   C91   S    
C79   C80   S    
C78   C84   S    
C97   O33   D    
Cr5   O42   S    
Cr1   O17   S    
C20   C21   A    
Cr5   O8    S    
Cr4   O6    S    
C49   C50   A    
C22   C26   A    
C47   C57   A    
Cr5   O11   S    
C68   C70   T    
C31   C36   A    
C25   H41   S    
C18   C98   S    
H16   O24   S    
C27   C37   A    
C34   C76   A    
Cr6   O11   S    
C71   C81   T    
C54   C57   A    
