data_mof_unit_21807.cif
_audit_creation_date              2012-12-11T16:26:34-0500
_audit_creation_method            fapswitch 2.2
_symmetry_space_group_name_H-M    P1
_symmetry_Int_Tables_number       1
_space_group_crystal_system       triclinic
_cell_length_a                    6.933311
_cell_length_b                    17.840692
_cell_length_c                    19.237674
_cell_angle_alpha                 108.567619
_cell_angle_beta                  90.149156
_cell_angle_gamma                 90.875584
_cell_volume                      2255.40995386

loop_
_atom_site_label
_atom_site_type_symbol
_atom_type_description
_atom_site_fract_x
_atom_site_fract_y
_atom_site_fract_z
_atom_type_partial_charge
O1    O     O_R   0.494330 0.415720 0.413720 -0.539802
O2    O     O_R   0.819330 0.430070 0.560210 -0.540417
O3    O     O_R   0.994320 0.584280 0.586280 -0.532108
C1    C     C_R   0.650528 0.415077 0.581673 0.695021
O4    O     O_R   0.823730 0.406300 0.412670 -0.537504
O5    O     O_R   0.998760 0.560340 0.437690 -0.544618
C2    C     C_R   0.653881 0.383901 0.384824 0.688544
O6    O     O_R   0.489890 0.439660 0.562310 -0.535209
O7    O     O_3   0.662340 0.550560 0.508380 -0.373777
V1    V     V_3+5 0.935370 0.490620 0.498450 1.441010
O8    O     O_R   0.328750 0.569930 0.439790 -0.541811
C3    C     C_R   0.160632 0.584584 0.417803 0.701169
O9    O     O_R   0.324340 0.593700 0.587330 -0.549763
C4    C     C_R   0.158092 0.611812 0.618500 0.694114
V2    V     V_3+5 0.435940 0.509380 0.501550 1.425356
O10   O     O_3   0.159100 0.449440 0.491620 -0.363960
H1    H     H_    0.978590 0.829864 0.543041 0.119633
C5    C     C_R   0.237256 0.602491 0.770433 -0.014528
C6    C     C_R   0.235011 0.596438 0.841273 -0.102789
C7    C     C_R   0.196323 0.661344 0.901295 -0.172116
C8    C     C_R   0.161155 0.733647 0.891893 -0.131304
C9    C     C_R   0.153689 0.742304 0.821137 0.082154
C10   C     C_R   0.184019 0.674770 0.758117 -0.016495
C11   C     C_R   0.109667 0.816928 0.813829 -0.188878
C12   C     C_R   0.066625 0.822690 0.742493 -0.006724
C13   C     C_R   0.100895 0.755590 0.679569 0.087069
C14   C     C_R   0.154289 0.681806 0.686669 -0.184903
C15   C     C_R   0.982957 0.891077 0.730360 -0.063978
C16   C     C_R   0.941947 0.891630 0.658075 -0.024104
C17   C     C_R   0.001071 0.829109 0.598625 -0.217527
C18   C     C_R   0.078664 0.762648 0.608859 -0.115578
H2    H     H_    0.272787 0.541652 0.850631 0.139281
H3    H     H_    0.198697 0.656160 0.955872 0.121458
H4    H     H_    0.134300 0.782204 0.941240 0.086906
H5    H     H_    0.116154 0.715683 0.559640 0.109357
C19   C     C_R   0.306092 0.633560 0.320396 -0.212906
C20   C     C_R   0.153447 0.633975 0.368695 -0.079754
C21   C     C_R   0.993813 0.681912 0.369925 -0.221881
C22   C     C_R   0.986704 0.729734 0.324418 0.048975
C23   C     C_R   0.138053 0.728179 0.275289 0.075081
C24   C     C_R   0.298206 0.679476 0.273049 0.111640
C25   C     C_R   0.832539 0.780594 0.328932 -0.183942
C26   C     C_R   0.825856 0.830608 0.285389 -0.021067
C27   C     C_R   0.971625 0.825965 0.232298 0.000714
C28   C     C_R   0.129667 0.775399 0.228540 0.079059
C29   C     C_R   0.280862 0.772364 0.178522 0.120927
C30   C     C_R   0.438779 0.723376 0.176567 -0.169788
C31   C     C_R   0.447708 0.677618 0.223546 -0.170651
C32   C     C_R   0.963744 0.869490 0.182372 -0.223145
C33   C     C_R   0.113288 0.866493 0.132260 -0.049330
C34   C     C_R   0.272578 0.818477 0.131484 -0.162731
H6    H     H_    0.429543 0.596461 0.318783 0.119871
H7    H     H_    0.876823 0.683364 0.407623 0.127711
H8    H     H_    0.720059 0.783377 0.368724 0.164256
H9    H     H_    0.841870 0.906122 0.181789 0.168771
H10   H     H_    0.388991 0.816044 0.093333 0.129913
H11   H     H_    0.556444 0.720863 0.138964 0.120481
H12   H     H_    0.571918 0.640762 0.221177 0.122744
C35   C     C_R   0.787257 0.187914 0.871605 0.339373
C36   C     C_R   0.627445 0.136981 0.870589 -0.121876
C37   C     C_R   0.475075 0.132149 0.820889 -0.199678
C38   C     C_R   0.477563 0.175661 0.771228 0.031862
C39   C     C_R   0.635156 0.227931 0.773859 0.038647
C40   C     C_R   0.790676 0.233781 0.823541 0.068645
C41   C     C_R   0.325823 0.169471 0.719565 -0.014132
C42   C     C_R   0.328949 0.218183 0.674848 -0.179861
C43   C     C_R   0.483154 0.270085 0.677513 0.051645
C44   C     C_R   0.638040 0.274480 0.726363 0.089390
C45   C     C_R   0.796134 0.325516 0.727528 0.111532
C46   C     C_R   0.949469 0.330488 0.776174 -0.193164
C47   C     C_R   0.946815 0.285548 0.823654 -0.133994
C48   C     C_R   0.486227 0.316535 0.630699 -0.131004
C49   C     C_R   0.643944 0.366888 0.631475 -0.071648
C50   C     C_R   0.798581 0.370814 0.679906 -0.218086
H13   H     H_    0.354257 0.093663 0.821580 0.184129
H14   H     H_    0.212677 0.213941 0.635859 0.163169
H15   H     H_    0.367343 0.312691 0.592895 0.128167
H16   H     H_    0.919904 0.410115 0.681160 0.177842
H17   H     H_    0.072322 0.369243 0.777547 0.164628
H18   H     H_    0.069652 0.291654 0.859877 0.178286
H19   H     H_    0.396838 0.156208 0.443112 0.140641
C51   C     C_R   0.765483 0.397632 0.245116 -0.145954
C52   C     C_R   0.818131 0.406795 0.178457 -0.140822
C53   C     C_R   0.805045 0.342961 0.114351 -0.077425
C54   C     C_R   0.740454 0.269421 0.116554 -0.106218
C55   C     C_R   0.688222 0.257816 0.183628 0.036508
C56   C     C_R   0.699613 0.323536 0.249068 0.076968
C57   C     C_R   0.623043 0.182601 0.185733 -0.178045
C58   C     C_R   0.566646 0.173115 0.254185 0.007541
C59   C     C_R   0.571757 0.240776 0.319027 0.034301
C60   C     C_R   0.641173 0.315018 0.316552 -0.157922
C61   C     C_R   0.506783 0.098808 0.261933 0.326996
C62   C     C_R   0.443327 0.094485 0.329435 -0.129314
C63   C     C_R   0.444213 0.160832 0.391012 -0.187609
C64   C     C_R   0.510246 0.232765 0.386462 -0.137131
H20   H     H_    0.775485 0.449511 0.293250 0.102838
H21   H     H_    0.867821 0.463916 0.176502 0.117524
H22   H     H_    0.844350 0.350509 0.062530 0.148937
H23   H     H_    0.730776 0.222101 0.064933 0.128586
H24   H     H_    0.395826 0.038437 0.334704 0.180297
H25   H     H_    0.512492 0.281975 0.436877 0.112426
O11   O     O_R   0.775200 0.060470 0.937800 -0.502176
O12   O     O_R   0.441110 0.093720 0.087350 -0.523184
O13   O     O_R   0.266330 0.939630 0.062280 -0.513274
C65   C     C_R   0.610764 0.115855 0.115726 0.795965
O14   O     O_R   0.445750 0.069950 0.939820 -0.531390
O15   O     O_R   0.271000 0.915700 0.913700 -0.540073
C66   C     C_R   0.615848 0.087037 0.919799 0.725068
O16   O     O_R   0.770530 0.084400 0.086380 -0.532015
O17   O     O_3   0.602830 0.949510 0.991680 -0.377821
V3    V     V_3+5 0.329710 0.009370 0.001550 1.587049
O18   O     O_R   0.940990 0.906170 0.912570 -0.559556
C67   C     C_R   0.107333 0.886713 0.882208 0.717905
O19   O     O_R   0.936350 0.929940 0.060100 -0.544162
C68   C     C_R   0.104772 0.915021 0.082030 0.725474
V4    V     V_3+5 0.829160 0.990450 0.998310 1.539459
O20   O     O_3   0.105910 0.050480 0.008320 -0.332659
C69   C     C_2   0.672894 0.890681 0.300578 0.392712
H26   H     H_    0.697248 0.945712 0.289523 0.094870
O21   O     O_2   0.520552 0.880599 0.328352 -0.529021
Cl1   Cl    Cl    0.979514 0.197404 0.935048 -0.687425
C70   C     C_2   0.166627 0.110363 0.707826 0.421271
H27   H     H_    0.186635 0.055581 0.719443 0.087712
O22   O     O_2   0.012140 0.121321 0.682336 -0.520471
C71   C     C_2   0.321491 0.535016 0.714242 0.306735
H28   H     H_    0.441348 0.545152 0.682432 0.075671
O23   O     O_2   0.265813 0.467636 0.706493 -0.556862
Cl2   Cl    Cl    0.517874 0.006301 0.193227 -0.736685
C72   C     C_2   0.923576 0.960122 0.790904 0.441531
H29   H     H_    0.774067 0.964591 0.807657 0.054509
O24   O     O_2   0.039464 0.012729 0.820666 -0.532901
C73   C     C_2   0.834560 0.955218 0.640684 0.405979
H30   H     H_    0.845028 0.960847 0.586244 0.069322
O25   O     O_2   0.727743 0.999638 0.684816 -0.526677

loop_
_geom_bond_atom_site_label_1
_geom_bond_atom_site_label_2
_ccdc_geom_bond_type
C27   C32   A    
C35   Cl1   S    
C35   C36   A    
C62   C63   A    
H19   C63   S    
C56   C60   A    
C49   C50   A    
C6    C7    A    
C1    O6    A    
O19   C68   A    
C59   C64   A    
C54   C55   A    
C37   H13   S    
C12   C15   A    
C13   C14   A    
C48   H15   S    
C15   C72   S    
C19   C20   A    
C20   C21   A    
C43   C48   A    
C45   C46   A    
C5    C71   S    
O5    C3    A    
C17   C18   A    
C55   C57   A    
C16   C73   S    
V2    O10   S    
V4    O20   S    
O12   V3    S    
C33   C68   S    
C40   C47   A    
C3    C20   S    
C69   H26   S    
O18   C67   A    
O16   V4    S    
O17   V3    S    
O8    V2    S    
O15   C67   A    
C30   C31   A    
C44   C45   A    
O11   C66   A    
C46   C47   A    
O1    V2    S    
C10   C14   A    
C4    C14   S    
O7    V1    S    
C36   C66   S    
C42   C43   A    
C42   H14   S    
C11   C67   S    
O9    C4    A    
H1    C17   S    
C19   C24   A    
C63   C64   A    
C6    H2    S    
C61   Cl2   S    
C47   H18   S    
C22   C25   A    
O14   V3    S    
C23   C28   A    
C51   H20   S    
C43   C44   A    
C11   C12   A    
C58   C59   A    
C22   C23   A    
O4    C2    A    
C55   C56   A    
C5    C6    A    
C8    H4    S    
C12   C13   A    
C28   C29   A    
C29   C34   A    
C5    C10   A    
C36   C37   A    
O2    C1    A    
C26   C27   A    
C16   C17   A    
C54   H23   S    
C30   H11   S    
O13   C68   A    
C52   C53   A    
C2    C60   S    
C7    C8    A    
C38   C39   A    
C33   C34   A    
C35   C40   A    
C45   C50   A    
O12   C65   A    
C41   C70   S    
C53   C54   A    
C58   C61   A    
C62   H24   S    
C1    C49   S    
O3    C4    A    
C7    H3    S    
C23   C24   A    
C32   C33   A    
O6    V2    S    
O9    V2    S    
C52   H21   S    
C71   H28   S    
C18   H5    S    
C25   C26   A    
C70   O22   D    
O2    V1    S    
O17   V4    S    
O18   V4    S    
C27   C28   A    
C72   H29   S    
C65   O16   A    
C29   C30   A    
C15   C16   A    
C38   C41   A    
C46   H17   S    
O1    C2    A    
O15   V3    S    
C34   H10   S    
C48   C49   A    
C19   H6    S    
O5    V1    S    
O13   V3    S    
O19   V4    S    
O8    C3    A    
C31   H12   S    
C39   C44   A    
V3    O20   S    
C53   H22   S    
O7    V2    S    
O4    V1    S    
O3    V1    S    
C32   H9    S    
C25   H8    S    
C57   C65   S    
C59   C60   A    
C21   C22   A    
C21   H7    S    
O14   C66   A    
C61   C62   A    
C24   C31   A    
C73   H30   S    
C9    C11   A    
C41   C42   A    
C37   C38   A    
C69   O21   D    
O11   V4    S    
C26   C69   S    
C39   C40   A    
C64   H25   S    
C13   C18   A    
C57   C58   A    
C73   O25   D    
C51   C52   A    
C50   H16   S    
C71   O23   D    
C9    C10   A    
V1    O10   S    
C70   H27   S    
C8    C9    A    
C51   C56   A    
C72   O24   D    
