data_mof_unit_54708.cif
_audit_creation_date              2012-12-11T15:44:54-0500
_audit_creation_method            fapswitch 2.2
_symmetry_space_group_name_H-M    P1
_symmetry_Int_Tables_number       1
_space_group_crystal_system       triclinic
_cell_length_a                    6.929427
_cell_length_b                    17.09504
_cell_length_c                    16.874494
_cell_angle_alpha                 100.447612
_cell_angle_beta                  89.194089
_cell_angle_gamma                 91.743901
_cell_volume                      1964.80802083

loop_
_atom_site_label
_atom_site_type_symbol
_atom_type_description
_atom_site_fract_x
_atom_site_fract_y
_atom_site_fract_z
_atom_type_partial_charge
O1    O     O_R   0.494370 0.415690 0.413450 -0.520320
O2    O     O_R   0.819420 0.429360 0.578420 -0.542007
O3    O     O_R   0.994280 0.584310 0.586550 -0.529967
C1    C     C_R   0.647968 0.415351 0.606485 0.732002
O4    O     O_R   0.823790 0.406230 0.413570 -0.532210
O5    O     O_R   0.998670 0.561000 0.420530 -0.529787
C2    C     C_R   0.652212 0.384533 0.383617 0.691066
O6    O     O_R   0.489970 0.439000 0.579470 -0.541582
O7    O     O_3   0.662300 0.550810 0.502470 -0.350603
V1    V     V_3+5 0.935380 0.490570 0.499540 1.543711
O8    O     O_R   0.328650 0.570640 0.421580 -0.519732
C3    C     C_R   0.163519 0.584866 0.393114 0.758450
O9    O     O_R   0.324290 0.593770 0.586430 -0.526289
C4    C     C_R   0.156288 0.617857 0.614368 0.729137
V2    V     V_3+5 0.435930 0.509430 0.500460 1.574362
O10   O     O_3   0.159140 0.449190 0.497530 -0.361534
C5    C     C_R   0.291600 0.749052 0.695133 0.012246
C6    C     C_R   0.276398 0.812118 0.760989 -0.183968
H1    H     H_    0.387395 0.858922 0.769541 0.122524
C7    C     C_R   0.119276 0.816286 0.814961 -0.069900
C8    C     C_R   0.975018 0.756100 0.801673 -0.138777
H2    H     H_    0.852086 0.757637 0.842225 0.126895
C9    C     C_R   0.990317 0.692087 0.737078 -0.107756
H3    H     H_    0.878604 0.645706 0.730001 0.174777
C10   C     C_R   0.147956 0.687087 0.682794 -0.140573
C11   C     C_R   0.167485 0.637550 0.330468 -0.277678
C12   C     C_R   0.103952 0.863192 0.169027 -0.118906
C13   C     C_R   0.998528 0.838830 0.301887 0.238742
C14   C     C_R   0.032159 0.891546 0.246832 0.232451
C15   C     C_R   0.184099 0.787949 0.153483 -0.286727
C16   C     C_R   0.181728 0.738566 0.212664 0.020567
C17   C     C_R   0.070167 0.759989 0.284244 -0.031320
C18   C     C_R   0.047585 0.704685 0.338547 -0.059488
C19   C     C_R   0.297548 0.622965 0.263610 -0.043658
C20   C     C_R   0.296336 0.670400 0.203161 0.271323
H4    H     H_    0.253705 0.770071 0.095594 0.136902
C21   C     C_R   0.626145 0.367284 0.671755 -0.117621
C22   C     C_R   0.637833 0.143772 0.837388 -0.137644
C23   C     C_R   0.821316 0.183014 0.725476 -0.128425
C24   C     C_R   0.790424 0.132391 0.781003 -0.112568
C25   C     C_R   0.513700 0.208624 0.837296 -0.067330
C26   C     C_R   0.550388 0.262143 0.782512 0.060032
C27   C     C_R   0.703906 0.248292 0.725909 0.145164
C28   C     C_R   0.738857 0.299992 0.670534 -0.211506
C29   C     C_R   0.482164 0.384716 0.732490 -0.027672
C30   C     C_R   0.443105 0.331361 0.785346 -0.176009
H5    H     H_    0.851654 0.286949 0.625279 0.117569
H6    H     H_    0.939936 0.171697 0.682783 0.115428
H7    H     H_    0.333000 0.346581 0.831187 0.177641
H8    H     H_    0.886458 0.083273 0.779401 0.130836
C31   C     C_R   0.775931 0.259891 0.304012 -0.205742
H9    H     H_    0.890369 0.263908 0.347825 0.153875
C32   C     C_R   0.769123 0.194383 0.240719 0.269340
C33   C     C_R   0.625645 0.187250 0.181504 -0.098245
C34   C     C_R   0.487806 0.246041 0.188763 -0.238399
H10   H     H_    0.376952 0.240807 0.143546 0.168230
C35   C     C_R   0.479152 0.307153 0.256712 0.006012
C36   C     C_R   0.633120 0.317052 0.313956 -0.152151
O11   O     O_R   0.774880 0.061150 0.920630 -0.533687
O12   O     O_R   0.440980 0.093710 0.086500 -0.558816
O13   O     O_R   0.266190 0.938890 0.079390 -0.547476
C37   C     C_R   0.611411 0.117289 0.114501 0.757445
O14   O     O_R   0.445420 0.070740 0.921670 -0.533379
O15   O     O_R   0.270660 0.915760 0.913380 -0.541867
C38   C     C_R   0.617219 0.088363 0.896530 0.731192
O16   O     O_R   0.770400 0.084270 0.086640 -0.517411
O17   O     O_3   0.602590 0.949210 0.997500 -0.375836
V3    V     V_3+5 0.329470 0.009420 0.000470 1.424262
O18   O     O_R   0.940650 0.906250 0.913470 -0.546593
C39   C     C_R   0.108953 0.883443 0.884586 0.685965
O19   O     O_R   0.936210 0.929220 0.078300 -0.536412
C40   C     C_R   0.102772 0.913744 0.105422 0.746254
V4    V     V_3+5 0.828930 0.990510 0.999490 1.454381
O20   O     O_3   0.105680 0.050790 0.002500 -0.367721
C41   C     C_2   0.455497 0.752326 0.639114 0.742510
O21   O     O_2   0.458988 0.801467 0.594708 -0.565792
O22   O     O_R   0.609234 0.701489 0.639321 -0.652157
H11   H     H_    0.714551 0.710549 0.599475 0.322331
C42   C     C_2   0.378827 0.460934 0.746094 0.757884
O23   O     O_2   0.210120 0.462705 0.768546 -0.558469
O24   O     O_R   0.476949 0.531355 0.736455 -0.659785
H12   H     H_    0.393973 0.579760 0.750964 0.291303
C43   C     C_2   0.350022 0.221667 0.895311 0.767365
O25   O     O_2   0.184917 0.221132 0.870523 -0.558540
O26   O     O_R   0.384829 0.234495 0.978050 -0.653638
H13   H     H_    0.261263 0.242490 0.011033 0.300706
N1    N     N_2   0.901340 0.133180 0.240121 -0.523731
H14   H     H_    0.919886 0.120634 0.296859 0.247263
C44   C     C_3   0.082759 0.146571 0.201282 -0.414372
H15   H     H_    0.183422 0.179846 0.246566 0.155099
H16   H     H_    0.064362 0.179934 0.151203 0.192575
H17   H     H_    0.144056 0.088452 0.175461 0.222246
C45   C     C_2   0.298063 0.352636 0.265443 0.744701
O27   O     O_2   0.210086 0.364517 0.329458 -0.559695
O28   O     O_R   0.213436 0.372072 0.197051 -0.635759
H18   H     H_    0.085723 0.399318 0.209525 0.299685
C46   C     C_2   0.897858 0.715879 0.403141 0.865487
O29   O     O_2   0.943857 0.721092 0.473647 -0.581395
O30   O     O_R   0.704522 0.721885 0.382973 -0.645813
H19   H     H_    0.615692 0.729271 0.431852 0.314243
C47   C     C_2   0.435735 0.556994 0.252991 0.812592
O31   O     O_2   0.428788 0.505886 0.192175 -0.523170
O32   O     O_R   0.586234 0.558042 0.307428 -0.643160
H20   H     H_    0.677123 0.512491 0.290781 0.268195
N2    N     N_2   0.909002 0.868062 0.377697 -0.519625
H21   H     H_    0.786697 0.900500 0.375756 0.253990
C48   C     C_3   0.036619 0.898853 0.444047 -0.487018
H22   H     H_    0.967678 0.888742 0.501221 0.229053
H23   H     H_    0.061530 0.963881 0.448219 0.175226
H24   H     H_    0.177158 0.868491 0.437221 0.213691
N3    N     N_2   0.425880 0.652256 0.136210 -0.493808
H25   H     H_    0.365666 0.650187 0.080364 0.261557
C49   C     C_3   0.611570 0.693850 0.146561 -0.489051
H26   H     H_    0.594415 0.758859 0.150606 0.183370
H27   H     H_    0.706674 0.671824 0.094289 0.199438
H28   H     H_    0.682386 0.682902 0.202049 0.225750
N4    N     N_2   0.032775 0.975022 0.275025 -0.515934
H29   H     H_    0.927851 0.993807 0.317353 0.255164
C50   C     C_3   0.223453 0.007452 0.299607 -0.572391
H30   H     H_    0.215040 0.070889 0.328596 0.187087
H31   H     H_    0.321796 0.003098 0.246553 0.200502
H32   H     H_    0.287131 0.974759 0.343601 0.200796

loop_
_geom_bond_atom_site_label_1
_geom_bond_atom_site_label_2
_ccdc_geom_bond_type
C34   H10   S    
O14   C38   A    
C25   C26   A    
C45   O27   D    
C12   C14   A    
V4    O20   S    
O28   H18   S    
C1    O6    A    
O24   H12   S    
N3    C49   S    
O22   H11   S    
N2    C48   S    
C30   H7    S    
C47   O31   D    
O15   V3    S    
C13   C14   A    
C6    H1    S    
N4    C50   S    
O5    C3    A    
C15   C16   A    
V3    O20   S    
V2    O10   S    
C25   C43   S    
O12   C37   A    
C19   C20   A    
C26   C30   A    
O14   V3    S    
O8    V2    S    
C11   C19   A    
O30   H19   S    
C9    H3    S    
O18   V4    S    
O17   V4    S    
O15   C39   A    
C44   H16   S    
O7    V1    S    
O11   V4    S    
C2    C36   S    
C18   C46   S    
C28   H5    S    
C49   H28   S    
C45   O28   S    
C35   C45   S    
O9    C4    A    
C12   C15   A    
C48   H23   S    
C7    C39   S    
C46   O30   S    
C46   O29   D    
C50   H31   S    
C19   C47   S    
C37   O16   A    
O17   V3    S    
C13   C17   A    
C22   C25   A    
C29   C42   S    
C23   C24   A    
C42   O24   S    
C23   C27   A    
C33   C37   S    
O26   H13   S    
O16   V4    S    
C14   N4    S    
C31   H9    S    
C3    C11   S    
C31   C32   A    
O2    C1    A    
C41   O21   D    
O9    V2    S    
C11   C18   A    
C43   O25   D    
C22   C38   S    
C13   N2    S    
C48   H22   S    
C5    C6    A    
C32   N1    S    
C31   C36   A    
C7    C8    A    
C44   H17   S    
C41   O22   S    
O3    C4    A    
O1    V2    S    
O13   C40   A    
C43   O26   S    
O6    V2    S    
C34   C35   A    
C27   C28   A    
C48   H24   S    
C16   C20   A    
C26   C27   A    
C21   C29   A    
O2    V1    S    
C20   N3    S    
O4    C2    A    
C49   H26   S    
C50   H32   S    
C33   C34   A    
N3    H25   S    
O1    C2    A    
C16   C17   A    
O5    V1    S    
C50   H30   S    
C32   C33   A    
N2    H21   S    
C15   H4    S    
C5    C10   A    
C17   C18   A    
C21   C28   A    
C8    C9    A    
O7    V2    S    
O4    V1    S    
O3    V1    S    
V1    O10   S    
N4    H29   S    
O11   C38   A    
C22   C24   A    
O13   V3    S    
C35   C36   A    
C24   H8    S    
C6    C7    A    
C9    C10   A    
C4    C10   S    
O18   C39   A    
C42   O23   D    
C29   C30   A    
O19   C40   A    
C1    C21   S    
O12   V3    S    
N1    H14   S    
C47   O32   S    
O19   V4    S    
O32   H20   S    
C5    C41   S    
N1    C44   S    
C44   H15   S    
C8    H2    S    
C12   C40   S    
O8    C3    A    
C23   H6    S    
C49   H27   S    
