data_mof_unit_61602.cif
_audit_creation_date              2012-12-10T17:05:59-0500
_audit_creation_method            fapswitch 2.2
_symmetry_space_group_name_H-M    P1
_symmetry_Int_Tables_number       1
_space_group_crystal_system       triclinic
_cell_length_a                    23.541626
_cell_length_b                    30.456282
_cell_length_c                    19.433179
_cell_angle_alpha                 90.369151
_cell_angle_beta                  127.504061
_cell_angle_gamma                 89.398802
_cell_volume                      11052.9019019

loop_
_atom_site_label
_atom_site_type_symbol
_atom_type_description
_atom_site_fract_x
_atom_site_fract_y
_atom_site_fract_z
_atom_type_partial_charge
C1    C     C_R   0.692757 0.810091 0.880351 0.895366
C2    C     C_R   0.307243 0.189909 0.119649 0.895365
C3    C     C_R   0.306969 0.810180 0.119489 0.895824
C4    C     C_R   0.693031 0.189820 0.880510 0.895825
C5    C     C_R   0.192757 0.310091 0.880351 0.895366
C6    C     C_R   0.807243 0.689909 0.119649 0.895365
C7    C     C_R   0.806969 0.310180 0.119489 0.895824
C8    C     C_R   0.193031 0.689820 0.880510 0.895825
C9    C     C_R   0.664524 0.837950 0.742995 0.105593
C10   C     C_R   0.335476 0.162050 0.257005 0.105592
C11   C     C_R   0.295617 0.880494 0.175765 0.097714
C12   C     C_R   0.704383 0.119506 0.824235 0.097714
C13   C     C_R   0.164523 0.337950 0.742995 0.105592
C14   C     C_R   0.835476 0.662050 0.257005 0.105593
C15   C     C_R   0.795617 0.380494 0.175765 0.097714
C16   C     C_R   0.204383 0.619506 0.824235 0.097714
C17   C     C_R   0.663894 0.843243 0.814738 -0.181640
C18   C     C_R   0.336106 0.156757 0.185262 -0.181640
C19   C     C_R   0.336805 0.843941 0.184059 -0.181940
C20   C     C_R   0.663195 0.156059 0.815941 -0.181940
C21   C     C_R   0.163894 0.343243 0.814738 -0.181641
C22   C     C_R   0.836106 0.656757 0.185262 -0.181640
C23   C     C_R   0.836805 0.343941 0.184059 -0.181941
C24   C     C_R   0.163195 0.656059 0.815941 -0.181941
C25   C     C_R   0.631284 0.879419 0.822129 -0.302479
C26   C     C_R   0.368716 0.120581 0.177870 -0.302479
C27   C     C_R   0.409602 0.840585 0.251862 -0.294975
C28   C     C_R   0.590398 0.159415 0.748138 -0.294976
C29   C     C_R   0.131284 0.379419 0.822130 -0.302479
C30   C     C_R   0.868716 0.620581 0.177870 -0.302478
C31   C     C_R   0.909602 0.340585 0.251862 -0.294974
C32   C     C_R   0.090398 0.659415 0.748137 -0.294975
C33   C     C_R   0.594833 0.910088 0.756121 0.514402
C34   C     C_R   0.405166 0.089912 0.243879 0.514401
C35   C     C_R   0.443998 0.873792 0.312403 0.519618
C36   C     C_R   0.556002 0.126207 0.687597 0.519619
C37   C     C_R   0.094834 0.410088 0.756121 0.514401
C38   C     C_R   0.905166 0.589912 0.243879 0.514401
C39   C     C_R   0.943998 0.373792 0.312403 0.519617
C40   C     C_R   0.056002 0.626208 0.687597 0.519618
C41   C     C_R   0.593024 0.904778 0.683034 -0.238455
C42   C     C_R   0.406976 0.095222 0.316966 -0.238456
C43   C     C_R   0.403862 0.909922 0.306910 -0.231168
C44   C     C_R   0.596138 0.090078 0.693090 -0.231168
C45   C     C_R   0.093024 0.404778 0.683034 -0.238456
C46   C     C_R   0.906976 0.595222 0.316966 -0.238456
C47   C     C_R   0.903862 0.409922 0.306910 -0.231169
C48   C     C_R   0.096138 0.590078 0.693090 -0.231168
C49   C     C_R   0.061197 0.559020 0.622721 0.942112
C50   C     C_R   0.938803 0.440980 0.377279 0.942112
C51   C     C_R   0.940311 0.561061 0.381282 0.931752
C52   C     C_R   0.059689 0.438939 0.618718 0.931752
C53   C     C_R   0.561197 0.059020 0.622721 0.942112
C54   C     C_R   0.438803 0.940980 0.377279 0.942112
C55   C     C_R   0.440311 0.061061 0.381282 0.931752
C56   C     C_R   0.559689 0.938939 0.618718 0.931752
C57   C     C_R   0.640737 0.749992 0.000194 0.891243
C58   C     C_R   0.359263 0.250007 0.999806 0.891244
C59   C     C_R   0.359509 0.749830 0.000298 0.891357
C60   C     C_R   0.640491 0.250170 0.999702 0.891357
C61   C     C_R   0.140737 0.249992 0.000194 0.891244
C62   C     C_R   0.859263 0.750007 0.999806 0.891244
C63   C     C_R   0.859509 0.249830 0.000298 0.891357
C64   C     C_R   0.140491 0.750170 0.999702 0.891357
C65   C     C_1   0.580860 0.749883 0.000873 -0.192753
C66   C     C_1   0.419140 0.250117 0.999127 -0.192754
C67   C     C_1   0.420084 0.749591 0.000999 -0.192143
C68   C     C_1   0.579916 0.250409 0.999001 -0.192143
C69   C     C_1   0.080860 0.249883 0.000873 -0.192753
C70   C     C_1   0.919140 0.750117 0.999127 -0.192754
C71   C     C_1   0.920084 0.249591 0.000999 -0.192143
C72   C     C_1   0.079916 0.750409 0.999001 -0.192143
C73   C     C_1   0.530262 0.749723 0.001231 0.000736
C74   C     C_1   0.469738 0.250277 0.998769 0.000736
C75   C     C_1   0.471009 0.749579 0.001285 0.000649
C76   C     C_1   0.528991 0.250421 0.998715 0.000649
C77   C     C_1   0.030262 0.249723 0.001231 0.000736
C78   C     C_1   0.969738 0.750277 0.998769 0.000736
C79   C     C_1   0.971009 0.249579 0.001285 0.000649
C80   C     C_1   0.028991 0.750421 0.998715 0.000649
C81   C     C_R   0.703448 0.803744 0.738568 -0.145728
C82   C     C_R   0.296552 0.196256 0.261433 -0.145728
C83   C     C_R   0.220761 0.883332 0.109715 -0.148578
C84   C     C_R   0.779239 0.116668 0.890285 -0.148578
C85   C     C_R   0.203448 0.303743 0.738567 -0.145728
C86   C     C_R   0.796551 0.696256 0.261432 -0.145728
C87   C     C_R   0.720761 0.383332 0.109715 -0.148578
C88   C     C_R   0.279239 0.616668 0.890285 -0.148578
C89   C     C_R   0.699653 0.797963 0.664693 -0.161950
C90   C     C_R   0.300347 0.202037 0.335307 -0.161949
C91   C     C_R   0.182457 0.920964 0.100453 -0.142364
C92   C     C_R   0.817543 0.079036 0.899547 -0.142364
C93   C     C_R   0.199653 0.297963 0.664692 -0.161950
C94   C     C_R   0.800347 0.702037 0.335307 -0.161950
C95   C     C_R   0.682457 0.420964 0.100453 -0.142364
C96   C     C_R   0.317543 0.579036 0.899547 -0.142364
C97   C     C_R   0.657542 0.826047 0.594372 -0.116867
C98   C     C_R   0.342458 0.173953 0.405628 -0.116867
C99   C     C_R   0.217695 0.956266 0.156429 -0.138477
C100  C     C_R   0.782305 0.043734 0.843570 -0.138477
C101  C     C_R   0.157541 0.326047 0.594371 -0.116867
C102  C     C_R   0.842458 0.673953 0.405628 -0.116867
C103  C     C_R   0.717695 0.456266 0.156429 -0.138477
C104  C     C_R   0.282305 0.543734 0.843571 -0.138478
C105  C     C_R   0.621113 0.860902 0.598918 -0.120598
C106  C     C_R   0.378887 0.139097 0.401082 -0.120599
C107  C     C_R   0.290911 0.953475 0.223793 -0.117522
C108  C     C_R   0.709089 0.046525 0.776207 -0.117522
C109  C     C_R   0.121113 0.360902 0.598917 -0.120599
C110  C     C_R   0.878887 0.639097 0.401082 -0.120599
C111  C     C_R   0.790911 0.453475 0.223793 -0.117522
C112  C     C_R   0.209089 0.546525 0.776207 -0.117521
C113  C     C_R   0.626041 0.868256 0.674393 0.007551
C114  C     C_R   0.373959 0.131744 0.325607 0.007552
C115  C     C_R   0.330351 0.914896 0.236345 0.031579
C116  C     C_R   0.669649 0.085104 0.763655 0.031580
C117  C     C_R   0.126041 0.368256 0.674393 0.007552
C118  C     C_R   0.873959 0.631744 0.325607 0.007552
C119  C     C_R   0.830351 0.414896 0.236345 0.031580
C120  C     C_R   0.169649 0.585104 0.763655 0.031580
H1    H     H_    0.633423 0.883571 0.879115 0.173132
H2    H     H_    0.366577 0.116429 0.120885 0.173133
H3    H     H_    0.440242 0.812152 0.257326 0.172181
H4    H     H_    0.559758 0.187848 0.742674 0.172181
H5    H     H_    0.133423 0.383571 0.879115 0.173133
H6    H     H_    0.866577 0.616429 0.120885 0.173133
H7    H     H_    0.940242 0.312152 0.257326 0.172182
H8    H     H_    0.059758 0.687848 0.742674 0.172181
H9    H     H_    0.737993 0.781607 0.792218 0.147835
H10   H     H_    0.262007 0.218392 0.207782 0.147834
H11   H     H_    0.190928 0.856544 0.065317 0.145973
H12   H     H_    0.809072 0.143456 0.934682 0.145973
H13   H     H_    0.237993 0.281607 0.792217 0.147835
H14   H     H_    0.762007 0.718392 0.207782 0.147834
H15   H     H_    0.690928 0.356545 0.065317 0.145973
H16   H     H_    0.309072 0.643455 0.934683 0.145973
H17   H     H_    0.729194 0.771470 0.661867 0.136686
H18   H     H_    0.270806 0.228530 0.338133 0.136686
H19   H     H_    0.125340 0.922872 0.049195 0.137581
H20   H     H_    0.874660 0.077128 0.950804 0.137581
H21   H     H_    0.229193 0.271469 0.661867 0.136686
H22   H     H_    0.770806 0.728530 0.338132 0.136686
H23   H     H_    0.625340 0.422872 0.049195 0.137581
H24   H     H_    0.374660 0.577127 0.950805 0.137581
H25   H     H_    0.653609 0.821065 0.536408 0.150726
H26   H     H_    0.346391 0.178935 0.463592 0.150726
H27   H     H_    0.188137 0.985836 0.147988 0.136896
H28   H     H_    0.811863 0.014165 0.852011 0.136897
H29   H     H_    0.153608 0.321065 0.536407 0.150727
H30   H     H_    0.846391 0.678935 0.463592 0.150726
H31   H     H_    0.688137 0.485836 0.147988 0.136896
H32   H     H_    0.311863 0.514164 0.852012 0.136897
H33   H     H_    0.588779 0.881599 0.542556 0.202592
H34   H     H_    0.411221 0.118401 0.457444 0.202592
H35   H     H_    0.316094 0.982086 0.264541 0.155835
H36   H     H_    0.683907 0.017914 0.735459 0.155835
H37   H     H_    0.088778 0.381599 0.542556 0.202592
H38   H     H_    0.911221 0.618401 0.457443 0.202592
H39   H     H_    0.816094 0.482086 0.264541 0.155835
H40   H     H_    0.183906 0.517914 0.735459 0.155835
O1    O     O_R   0.678330 0.769930 0.856640 -0.624302
O2    O     O_R   0.321670 0.230070 0.143360 -0.624302
O3    O     O_R   0.321670 0.769930 0.143360 -0.616661
O4    O     O_R   0.678330 0.230070 0.856640 -0.616661
O5    O     O_R   0.178330 0.269930 0.856640 -0.624302
O6    O     O_R   0.821670 0.730070 0.143360 -0.624302
O7    O     O_R   0.821670 0.269930 0.143360 -0.616661
O8    O     O_R   0.178330 0.730070 0.856640 -0.616661
O9    O     O_R   0.730030 0.821640 0.960080 -0.618039
O10   O     O_R   0.269970 0.178360 0.039920 -0.618038
O11   O     O_R   0.269970 0.821640 0.039920 -0.624594
O12   O     O_R   0.730030 0.178360 0.960080 -0.624594
O13   O     O_R   0.230030 0.321640 0.960080 -0.618039
O14   O     O_R   0.769970 0.678360 0.039920 -0.618038
O15   O     O_R   0.769970 0.321640 0.039920 -0.624594
O16   O     O_R   0.230030 0.678360 0.960080 -0.624594
O17   O     O_R   0.641350 0.724120 0.948260 -0.608623
O18   O     O_R   0.358650 0.275880 0.051740 -0.608623
O19   O     O_R   0.358650 0.724120 0.051740 -0.626072
O20   O     O_R   0.641350 0.275880 0.948260 -0.626072
O21   O     O_R   0.141350 0.224120 0.948260 -0.608623
O22   O     O_R   0.858650 0.775880 0.051740 -0.608623
O23   O     O_R   0.858650 0.224120 0.051740 -0.626071
O24   O     O_R   0.141350 0.775880 0.948260 -0.626072
O25   O     O_R   0.693050 0.775840 0.051700 -0.627026
O26   O     O_R   0.306950 0.224160 0.948300 -0.627025
O27   O     O_R   0.306950 0.775840 0.948300 -0.609178
O28   O     O_R   0.693050 0.224160 0.051700 -0.609179
O29   O     O_R   0.193050 0.275840 0.051700 -0.627026
O30   O     O_R   0.806950 0.724160 0.948300 -0.627025
O31   O     O_R   0.806950 0.275840 0.948300 -0.609178
O32   O     O_R   0.193050 0.724160 0.051700 -0.609179
O33   O     O_R   0.999060 0.545790 0.591600 -0.590747
O34   O     O_R   0.000940 0.454210 0.408400 -0.590750
O35   O     O_R   0.000940 0.545790 0.408400 -0.594980
O36   O     O_R   0.999060 0.454210 0.591600 -0.594980
O37   O     O_R   0.499060 0.045790 0.591600 -0.590746
O38   O     O_R   0.500940 0.954210 0.408400 -0.590746
O39   O     O_R   0.500940 0.045790 0.408400 -0.594980
O40   O     O_R   0.499060 0.954210 0.591600 -0.594980
O41   O     O_R   0.092510 0.545780 0.591590 -0.644586
O42   O     O_R   0.907490 0.454220 0.408410 -0.644586
O43   O     O_R   0.907490 0.545780 0.408410 -0.650875
O44   O     O_R   0.092510 0.454220 0.591590 -0.650875
O45   O     O_R   0.592510 0.045780 0.591590 -0.644587
O46   O     O_R   0.407490 0.954220 0.408410 -0.644587
O47   O     O_R   0.407490 0.045780 0.408410 -0.650875
O48   O     O_R   0.592510 0.954220 0.591590 -0.650875
Zn1   Zn    Zn3+2 0.715450 0.715450 0.930910 0.958556
Zn2   Zn    Zn3+2 0.284550 0.284550 0.069090 0.958556
Zn3   Zn    Zn3+2 0.284550 0.715450 0.069090 0.959214
Zn4   Zn    Zn3+2 0.715450 0.284550 0.930910 0.959214
Zn5   Zn    Zn3+2 0.215450 0.215450 0.930910 0.958556
Zn6   Zn    Zn3+2 0.784550 0.784550 0.069090 0.958556
Zn7   Zn    Zn3+2 0.784550 0.215450 0.069090 0.959215
Zn8   Zn    Zn3+2 0.215450 0.784550 0.930910 0.959214
Zn9   Zn    Zn3+2 0.937580 0.500000 0.499990 0.958020
Zn10  Zn    Zn3+2 0.062420 0.500000 0.500010 0.958018
Zn11  Zn    Zn3+2 0.437580 0.000000 0.499990 0.958021
Zn12  Zn    Zn3+2 0.562420 1.000000 0.500010 0.958020
O49   O     O_3   0.566830 0.947665 0.766192 -0.602012
C121  C     C_3   0.506211 0.936447 0.760762 -0.278457
H41   H     H_    0.466850 0.917322 0.700883 0.161841
H42   H     H_    0.479069 0.967178 0.757762 0.185844
H43   H     H_    0.521782 0.918056 0.819209 0.151040
O50   O     O_3   0.433170 0.052334 0.233808 -0.602012
C122  C     C_3   0.493789 0.063553 0.239238 -0.278456
H44   H     H_    0.520931 0.032821 0.242237 0.185844
H45   H     H_    0.533150 0.082677 0.299117 0.161841
H46   H     H_    0.478218 0.081944 0.180791 0.151040
O51   O     O_3   0.515688 0.869105 0.381805 -0.625998
C123  C     C_3   0.557162 0.875453 0.352646 -0.324047
H47   H     H_    0.550990 0.847672 0.311247 0.158566
H48   H     H_    0.614388 0.876689 0.409953 0.178865
H49   H     H_    0.543808 0.907158 0.317333 0.176951
O52   O     O_3   0.484312 0.130894 0.618195 -0.625998
C124  C     C_3   0.442838 0.124547 0.647354 -0.324044
H50   H     H_    0.385612 0.123312 0.590047 0.178864
H51   H     H_    0.449010 0.152328 0.688754 0.158565
H52   H     H_    0.456191 0.092842 0.682667 0.176950
O53   O     O_3   0.066830 0.447665 0.766193 -0.602012
C125  C     C_3   0.006212 0.436447 0.760762 -0.278454
H53   H     H_    0.966850 0.417323 0.700883 0.161840
H54   H     H_    0.979069 0.467179 0.757763 0.185844
H55   H     H_    0.021782 0.418056 0.819209 0.151040
O54   O     O_3   0.933170 0.552335 0.233808 -0.602012
C126  C     C_3   0.993789 0.563553 0.239239 -0.278457
H56   H     H_    0.020931 0.532822 0.242237 0.185843
H57   H     H_    0.033150 0.582677 0.299119 0.161842
H58   H     H_    0.978220 0.581945 0.180794 0.151040
O55   O     O_3   0.015688 0.369105 0.381805 -0.625999
C127  C     C_3   0.057161 0.375456 0.352646 -0.324045
H59   H     H_    0.050986 0.347677 0.311239 0.158565
H60   H     H_    0.114388 0.376687 0.409952 0.178863
H61   H     H_    0.043811 0.407163 0.317342 0.176956
O56   O     O_3   0.984312 0.630894 0.618195 -0.625998
C128  C     C_3   0.942838 0.624546 0.647354 -0.324045
H62   H     H_    0.885612 0.623313 0.590048 0.178863
H63   H     H_    0.949013 0.652326 0.688757 0.158565
H64   H     H_    0.956190 0.592840 0.682663 0.176953

loop_
_geom_bond_atom_site_label_1
_geom_bond_atom_site_label_2
_ccdc_geom_bond_type
O48   Zn12  S    
C126  H57   S    
C105  H33   S    
C88   C96   A    
O45   Zn12  S    
C95   H23   S    
C37   C45   A    
C29   H5    S    
C2    C18   S    
O14   Zn1   S    
C16   C24   A    
C69   C77   T    
O13   Zn2   S    
C52   O36   A    
O7    Zn7   S    
C108  C116  A    
C93   H21   S    
C109  H37   S    
C6    O6    A    
C2    O2    A    
C30   H6    S    
O36   Zn9   S    
C109  C117  A    
O55   C127  S    
C48   C120  A    
O10   Zn5   S    
C40   O56   S    
O52   C124  S    
O33   Zn9   S    
O9    Zn6   S    
C11   C19   A    
C74   C76   S    
C106  C114  A    
O42   Zn9   S    
C105  C113  A    
C34   O50   S    
O30   Zn1   S    
C86   C94   A    
O41   Zn10  S    
O53   C125  S    
C41   C56   S    
O29   Zn2   S    
C16   C120  A    
C31   H7    S    
C78   C80   S    
O24   Zn8   S    
C70   C78   T    
C101  C109  A    
C38   O54   S    
O26   Zn5   S    
O19   Zn3   S    
C65   C73   T    
O25   Zn6   S    
C46   C118  A    
C103  C111  A    
C128  H62   S    
O17   Zn1   S    
O20   Zn4   S    
C111  H39   S    
C54   O38   A    
C7    O7    A    
C8    O8    A    
C59   C67   S    
O27   Zn8   S    
C85   C93   A    
C44   C53   S    
C42   C114  A    
C55   O39   A    
C28   H4    S    
C51   O43   A    
C34   C42   A    
C54   O46   A    
C87   C95   A    
C82   C90   A    
C53   O45   A    
C84   C92   A    
C4    O4    A    
C59   O27   A    
C98   C106  A    
C5    O5    A    
C82   H10   S    
O12   Zn7   S    
C19   C27   A    
C57   O25   A    
C59   O19   A    
C10   C114  A    
C36   C44   A    
C103  H31   S    
O31   Zn4   S    
C43   C115  A    
C84   H12   S    
C56   O40   A    
C15   C23   A    
C86   H14   S    
C1    O1    A    
C81   C89   A    
C60   O28   A    
C124  H50   S    
O56   C128  S    
C60   O20   A    
C61   O29   A    
C73   C75   S    
C62   C70   S    
C110  C118  A    
C5    O13   A    
C4    C20   S    
C71   C79   T    
C64   O32   A    
O28   Zn7   S    
C95   C103  A    
C47   C50   S    
C77   C79   S    
O23   Zn7   S    
C10   C18   A    
C49   O41   A    
C100  C108  A    
C125  H55   S    
C63   O23   A    
O43   Zn9   S    
C6    O14   A    
C94   H22   S    
C87   H15   S    
C37   O53   S    
C14   C86   A    
O34   Zn10  S    
C124  H52   S    
C93   C101  A    
C112  C120  A    
C27   H3    S    
C55   O47   A    
C61   O21   A    
C98   H26   S    
C12   C84   A    
C27   C35   A    
C12   C116  A    
C39   C47   A    
O1    Zn1   S    
C46   C51   S    
C10   C82   A    
C123  H49   S    
C36   O52   S    
C100  H28   S    
C89   C97   A    
C104  C112  A    
C52   O44   A    
C5    C21   S    
C23   C31   A    
C90   H18   S    
C24   C32   A    
O32   Zn3   S    
C83   H11   S    
O49   C121  S    
C22   C30   A    
C42   C55   S    
C62   O22   A    
C66   C74   T    
C3    O11   A    
C43   C54   S    
C125  H54   S    
C122  H44   S    
C108  H36   S    
C85   H13   S    
C107  C115  A    
C18   C26   A    
C12   C20   A    
C123  H48   S    
C125  H53   S    
C13   C21   A    
C58   O18   A    
O15   Zn4   S    
C9    C17   A    
C17   C25   A    
C121  H42   S    
C14   C22   A    
C88   H16   S    
C104  H32   S    
C102  H30   S    
C127  H61   S    
C91   H19   S    
O11   Zn8   S    
C111  C119  A    
O5    Zn5   S    
C48   C49   S    
C122  H45   S    
C63   C71   S    
C14   C118  A    
C89   H17   S    
C106  H34   S    
C124  H51   S    
C81   H9    S    
C29   C37   A    
C58   O26   A    
C102  C110  A    
C67   C75   T    
O2    Zn2   S    
C83   C91   A    
C92   H20   S    
C20   C28   A    
C1    O9    A    
C32   C40   A    
C11   C115  A    
C47   C119  A    
C92   C100  A    
C58   C66   S    
C126  H58   S    
C61   C69   S    
C40   C48   A    
C99   H27   S    
O54   C126  S    
O3    Zn3   S    
C4    O12   A    
C26   C34   A    
C97   H25   S    
C44   C116  A    
O38   Zn12  S    
O39   Zn12  S    
O18   Zn2   S    
C41   C113  A    
C53   O37   A    
C110  H38   S    
C21   C29   A    
C121  H43   S    
C13   C117  A    
C126  H56   S    
C8    O16   A    
C50   O42   A    
C127  H60   S    
C3    O3    A    
O46   Zn11  S    
C68   C76   T    
C99   C107  A    
O47   Zn11  S    
C45   C52   S    
O16   Zn3   S    
C128  H64   S    
C33   C41   A    
C32   H8    S    
C96   C104  A    
C7    O15   A    
C35   C43   A    
C97   C105  A    
C56   O48   A    
C2    O10   A    
C51   O35   A    
C33   O49   S    
C57   O17   A    
C50   O34   A    
O8    Zn8   S    
C7    C23   S    
C49   O33   A    
O6    Zn6   S    
O4    Zn4   S    
C31   C39   A    
C63   O31   A    
C9    C113  A    
C101  H29   S    
C123  H47   S    
C8    C24   S    
C15   C119  A    
C35   O51   S    
C62   O30   A    
C64   C72   S    
C3    C19   S    
C121  H41   S    
C107  H35   S    
C45   C117  A    
C38   C46   A    
C25   C33   A    
C60   C68   S    
C96   H24   S    
C64   O24   A    
C112  H40   S    
C11   C83   A    
C122  H46   S    
C39   O55   S    
C1    C17   S    
C28   C36   A    
C72   C80   T    
O50   C122  S    
C15   C87   A    
O44   Zn10  S    
O51   C123  S    
O22   Zn6   S    
O40   Zn11  S    
C13   C85   A    
O21   Zn5   S    
C26   H2    S    
C30   C38   A    
C128  H63   S    
C91   C99   A    
O37   Zn11  S    
C25   H1    S    
C90   C98   A    
O35   Zn10  S    
C16   C88   A    
C94   C102  A    
C9    C81   A    
C127  H59   S    
C57   C65   S    
C6    C22   S    
