data_mof_unit_29777.cif
_audit_creation_date              2012-12-11T15:52:22-0500
_audit_creation_method            fapswitch 2.2
_symmetry_space_group_name_H-M    P1
_symmetry_Int_Tables_number       1
_space_group_crystal_system       triclinic
_cell_length_a                    11.146881
_cell_length_b                    11.17869
_cell_length_c                    18.840965
_cell_angle_alpha                 89.989839
_cell_angle_beta                  90.159675
_cell_angle_gamma                 119.936306
_cell_volume                      2034.48420423

loop_
_atom_site_label
_atom_site_type_symbol
_atom_type_description
_atom_site_fract_x
_atom_site_fract_y
_atom_site_fract_z
_atom_type_partial_charge
C1    C     C_R   0.524580 0.450535 0.144150 0.572090
C2    C     C_3   0.825871 0.586397 0.475313 -0.247562
C3    C     C_3   0.773371 0.115518 0.475678 -0.248437
C4    C     C_3   0.401396 0.239032 0.474297 -0.249076
C5    C     C_R   0.518197 0.456184 0.353026 0.592298
C6    C     C_R   0.544205 0.062944 0.353533 0.603734
C7    C     C_R   0.937327 0.481456 0.353241 0.599491
C8    C     C_R   0.454454 0.523134 0.644757 0.575738
C9    C     C_R   0.068421 0.545436 0.644835 0.578236
C10   C     C_R   0.477739 0.934298 0.645595 0.579806
C11   C     C_R   0.503964 0.014636 0.918405 0.078764
C12   C     C_R   0.572050 0.113710 0.139881 0.586651
C13   C     C_R   0.994398 0.493653 0.920563 0.051438
C14   C     C_R   0.513679 0.501871 0.918899 0.014659
C15   C     C_R   0.953353 0.484850 0.068630 -0.022477
C16   C     C_R   0.545729 0.076823 0.065043 0.012992
C17   C     C_R   0.518522 0.471922 0.067933 0.015310
C18   C     C_R   0.394994 0.990963 0.964158 -0.006954
C19   C     C_R   0.026516 0.414747 0.966704 -0.102856
C20   C     C_R   0.593019 0.613460 0.964863 -0.050320
C21   C     C_R   0.993949 0.398998 0.037360 0.038840
C22   C     C_R   0.415381 0.029601 0.034547 0.042775
C23   C     C_R   0.924933 0.475500 0.144274 0.575022
C24   C     C_R   0.609126 0.597535 0.036021 0.019857
C25   C     C_R   0.657422 0.103578 0.019937 0.178490
C26   C     C_R   0.911182 0.558693 0.022946 0.185597
C27   C     C_R   0.442150 0.357121 0.022480 0.255032
C28   C     C_R   0.919274 0.551601 0.948503 0.282341
C29   C     C_R   0.638469 0.088632 0.945282 0.220907
C30   C     C_R   0.457490 0.369995 0.948088 0.230095
C31   C     C_3   0.250178 0.876775 0.976273 0.167554
C32   C     C_3   0.141693 0.384641 0.978081 0.185312
C33   C     C_3   0.626034 0.759651 0.974534 0.223860
C34   C     C_R   0.460464 0.520504 0.851361 0.520800
C35   C     C_3   0.098504 0.357271 0.056632 0.243554
C36   C     C_3   0.268437 0.923984 0.055359 0.183362
C37   C     C_3   0.656094 0.746610 0.052934 0.242564
C38   C     C_R   0.487383 0.988350 0.574670 0.044644
C39   C     C_R   0.028585 0.514114 0.571196 0.031398
C40   C     C_R   0.484901 0.514655 0.570956 0.036251
C41   C     C_R   0.993105 0.507055 0.424191 0.033562
C42   C     C_R   0.518087 0.021420 0.426931 0.034929
C43   C     C_R   0.491828 0.487263 0.423639 0.035994
C44   C     C_R   0.614889 0.076787 0.545233 -0.060670
C45   C     C_R   0.062814 0.541862 0.852248 0.605144
C46   C     C_R   0.978140 0.591092 0.539394 0.003572
C47   C     C_R   0.403956 0.388885 0.538523 0.008036
C48   C     C_R   0.958623 0.585586 0.468134 -0.049909
C49   C     C_R   0.628920 0.089389 0.473770 -0.070568
C50   C     C_R   0.409158 0.375297 0.467232 -0.055714
C51   C     C_R   0.384038 0.949305 0.454860 0.194443
C52   C     C_R   0.063734 0.444107 0.452578 0.184286
C53   C     C_R   0.558117 0.620002 0.452648 0.192296
C54   C     C_R   0.075235 0.440621 0.527919 0.185738
C55   C     C_R   0.367505 0.936971 0.530122 0.200352
C56   C     C_R   0.480266 0.940071 0.851409 0.589728
C57   C     C_R   0.561166 0.634202 0.527939 0.199397
C58   C     C_1   0.153902 0.897582 0.932168 0.361197
C59   C     C_1   0.121245 0.266747 0.935007 0.304065
C60   C     C_1   0.743088 0.855116 0.930230 0.335667
C61   C     C_1   0.199606 0.447071 0.110462 0.299101
C62   C     C_1   0.256033 0.825926 0.110772 0.259666
C63   C     C_1   0.571409 0.767345 0.106029 0.305310
C64   C     C_3   0.760043 0.106992 0.556248 -0.260216
C65   C     C_3   0.847866 0.592716 0.554759 -0.272560
C66   C     C_3   0.395111 0.254025 0.553736 -0.271965
Cr1   Cr    Cr6+3 0.769160 0.541570 0.250690 1.072246
Cr2   Cr    Cr6+3 0.458430 0.227590 0.250690 1.122798
Cr3   Cr    Cr6+3 0.772410 0.230840 0.250690 1.121885
Cr4   Cr    Cr6+3 0.541570 0.769160 0.749310 1.088340
Cr5   Cr    Cr6+3 0.227590 0.458430 0.749310 1.083573
Cr6   Cr    Cr6+3 0.230840 0.772410 0.749310 1.104962
H1    H     H_    0.769011 0.021068 0.579640 0.200873
H2    H     H_    0.834007 0.682152 0.452996 0.190675
H3    H     H_    0.785244 0.031351 0.451819 0.158003
H4    H     H_    0.304093 0.154092 0.451308 0.187108
H5    H     H_    0.812558 0.074770 0.021791 0.376472
H6    H     H_    0.954163 0.716312 0.076942 0.348431
H7    H     H_    0.273759 0.186011 0.013308 0.378159
H8    H     H_    0.839736 0.669131 0.930000 0.367078
H9    H     H_    0.835223 0.185765 0.924003 0.335541
H10   H     H_    0.442944 0.277682 0.858570 0.336397
H11   H     H_    0.285299 0.726410 0.001352 0.365245
H12   H     H_    0.868332 0.692098 0.578647 0.179118
H13   H     H_    0.271955 0.542794 0.924329 0.351552
H14   H     H_    0.467160 0.736715 0.921865 0.351299
H15   H     H_    0.109503 0.195675 0.085408 0.365333
H16   H     H_    0.095300 0.928603 0.059630 0.330676
H17   H     H_    0.809785 0.805250 0.119217 0.352608
H18   H     H_    0.194446 0.812616 0.431712 0.341252
H19   H     H_    0.181415 0.367573 0.430302 0.341803
H20   H     H_    0.617287 0.809219 0.429865 0.333353
H21   H     H_    0.096011 0.278459 0.530466 0.319297
H22   H     H_    0.176798 0.895207 0.530919 0.316798
H23   H     H_    0.293677 0.178089 0.576991 0.176641
H24   H     H_    0.723263 0.815808 0.528859 0.309011
H25   H     H_    0.735587 0.487715 0.457369 0.124325
H26   H     H_    0.844782 0.218858 0.455295 0.179333
H27   H     H_    0.498958 0.245052 0.456587 0.129786
H28   H     H_    0.824227 0.208100 0.582945 0.154205
H29   H     H_    0.769659 0.498381 0.582903 0.123939
H30   H     H_    0.487669 0.265441 0.582374 0.124202
N1    N     N_1   0.079042 0.912705 0.895803 -0.207575
N2    N     N_1   0.105016 0.175379 0.899749 -0.204617
N3    N     N_1   0.833647 0.929029 0.894194 -0.209081
N4    N     N_1   0.277017 0.513564 0.154252 -0.237733
N5    N     N_1   0.242273 0.749990 0.155810 -0.226495
N6    N     N_1   0.509507 0.786136 0.149289 -0.218622
O1    O     O_R   0.911480 0.572650 0.170990 -0.495292
O2    O     O_R   0.528970 0.640340 0.824320 -0.531717
O3    O     O_R   0.111370 0.471030 0.824320 -0.537645
O4    O     O_R   0.359660 0.888630 0.824320 -0.504966
O5    O     O_R   0.909980 0.572450 0.331530 -0.510420
O6    O     O_R   0.427550 0.337530 0.331530 -0.514777
O7    O     O_R   0.662470 0.090020 0.331530 -0.517280
O8    O     O_R   0.572450 0.909980 0.668470 -0.489431
O9    O     O_R   0.337530 0.427550 0.668470 -0.481499
O10   O     O_R   0.090020 0.662470 0.668470 -0.480498
O11   O     O_R   0.638950 0.528780 0.324500 -0.470493
O12   O     O_R   0.427350 0.338830 0.170990 -0.434453
O13   O     O_R   0.471220 0.110170 0.324500 -0.468327
O14   O     O_R   0.889830 0.361050 0.324500 -0.470083
O15   O     O_R   0.528780 0.638950 0.675500 -0.449875
O16   O     O_R   0.110170 0.471220 0.675500 -0.451612
O17   O     O_R   0.361050 0.889830 0.675500 -0.456738
O18   O     O_3   0.666667 0.333333 0.250560 -0.348146
O19   O     O_3   0.333333 0.666667 0.749440 -0.312164
O20   O     O_3   0.778552 0.126216 0.050230 -0.630656
O21   O     O_3   0.873206 0.647383 0.049840 -0.696403
O22   O     O_3   0.343241 0.235951 0.050916 -0.641384
O23   O     O_R   0.661170 0.088520 0.170990 -0.426818
O24   O     O_3   0.870726 0.614477 0.902674 -0.673814
O25   O     O_3   0.747284 0.132466 0.898338 -0.677247
O26   O     O_3   0.400934 0.252521 0.906448 -0.705880
O27   O     O_3   0.235272 0.746369 0.964167 -0.742317
O28   O     O_3   0.272473 0.500683 0.970219 -0.742425
O29   O     O_3   0.511246 0.777031 0.967698 -0.750083
O30   O     O_3   0.035359 0.218013 0.076469 -0.664103
O31   O     O_3   0.191699 0.986055 0.076203 -0.672918
O32   O     O_3   0.797593 0.826414 0.069375 -0.691754
O33   O     O_3   0.273982 0.890298 0.408000 -0.682044
O34   O     O_R   0.572650 0.911480 0.829010 -0.465317
O35   O     O_3   0.108980 0.379039 0.406557 -0.683320
O36   O     O_3   0.621774 0.731483 0.407551 -0.689717
O37   O     O_3   0.122988 0.361386 0.560004 -0.679578
O38   O     O_3   0.237834 0.874512 0.560471 -0.679504
O39   O     O_3   0.642734 0.760300 0.559944 -0.693016
O40   O     O_R   0.338830 0.427350 0.829010 -0.490579
O41   O     O_R   0.088520 0.661170 0.829010 -0.430110
O42   O     O_R   0.640340 0.528970 0.175680 -0.507834
O43   O     O_R   0.471030 0.111370 0.175680 -0.463595
O44   O     O_R   0.888630 0.359660 0.175680 -0.465018

loop_
_geom_bond_atom_site_label_1
_geom_bond_atom_site_label_2
_ccdc_geom_bond_type
C44   C49   A    
Cr4   O19   S    
C40   C47   A    
C29   O25   S    
C23   O44   A    
Cr6   O4    S    
C11   C18   A    
H22   O38   S    
H8    O24   S    
C12   O23   A    
C5    O6    A    
C66   H30   S    
C65   H29   S    
C2    C65   S    
C3    C49   S    
C3    C64   S    
C44   C64   S    
C5    O11   A    
C59   N2    T    
C31   C58   S    
C19   C21   A    
C25   O20   S    
C35   O30   S    
C39   C54   A    
C9    C39   S    
C9    O16   A    
C8    C40   S    
C15   C26   A    
Cr4   O2    S    
H14   O29   S    
C34   O40   A    
Cr4   O15   S    
C43   C53   A    
C38   C55   A    
C20   C24   A    
C2    H25   S    
C33   O29   S    
C30   O26   S    
C37   O32   S    
Cr5   O3    S    
C64   H1    S    
C13   C28   A    
H21   O37   S    
C10   O17   A    
C3    H3    S    
C47   C66   S    
H11   O27   S    
C2    H2    S    
C42   C51   A    
C56   O34   A    
C15   C23   S    
Cr5   O40   S    
C5    C43   S    
C27   C30   A    
C9    O10   A    
C12   O43   A    
Cr5   O19   S    
C14   C30   A    
C36   C62   S    
C19   C32   S    
C37   C63   S    
C52   C54   A    
C8    O9    A    
C47   C50   A    
H19   O35   S    
C51   O33   S    
C25   C29   A    
C23   O1    A    
C46   C48   A    
Cr4   O34   S    
C52   O35   S    
Cr5   O9    S    
Cr6   O19   S    
C17   C27   A    
C32   C35   S    
C12   C16   S    
Cr5   O16   S    
C46   C65   S    
C31   O27   S    
Cr1   O18   S    
C32   O28   S    
C13   C19   A    
C55   O38   S    
C62   N5    T    
H13   O28   S    
C51   C55   A    
C2    C48   S    
H7    O22   S    
C33   C37   S    
C18   C31   S    
C4    C50   S    
C28   O24   S    
C1    O12   A    
H10   O26   S    
H16   O31   S    
C38   C44   A    
C14   C20   A    
C64   H28   S    
Cr3   O23   S    
H17   O32   S    
C24   C37   S    
C1    O42   A    
C35   C61   S    
C61   N4    T    
C26   O21   S    
H5    O20   S    
C54   O37   S    
C20   C33   S    
Cr3   O18   S    
C33   C60   S    
C39   C46   A    
C34   O2    A    
H15   O30   S    
Cr2   O18   S    
C10   O8    A    
C13   C45   S    
C16   C25   A    
H24   O39   S    
Cr3   O7    S    
C16   C22   A    
C40   C57   A    
C41   C52   A    
C18   C22   A    
Cr3   O44   S    
C1    C17   S    
H6    O21   S    
C65   H12   S    
C53   C57   A    
Cr2   O13   S    
C14   C34   S    
C45   O3    A    
C43   C50   A    
H9    O25   S    
C21   C35   S    
C22   C36   S    
C26   C28   A    
C32   C59   S    
Cr6   O17   S    
C10   C38   S    
C53   O36   S    
Cr4   O8    S    
C7    O5    A    
C57   O39   S    
C17   C24   A    
Cr1   O5    S    
Cr2   O43   S    
Cr2   O12   S    
C4    C66   S    
C3    H26   S    
Cr1   O1    S    
Cr3   O14   S    
C41   C48   A    
C45   O41   A    
C7    C41   S    
C8    O15   A    
H20   O36   S    
C36   O31   S    
C6    O7    A    
C4    H4    S    
H18   O33   S    
C60   N3    T    
C42   C49   A    
C15   C21   A    
C11   C29   A    
Cr6   O41   S    
C6    C42   S    
C4    H27   S    
Cr6   O10   S    
C27   O22   S    
C31   C36   S    
C58   N1    T    
C7    O14   A    
C6    O13   A    
C63   N6    T    
Cr1   O11   S    
C56   O4    A    
C11   C56   S    
Cr2   O6    S    
C66   H23   S    
Cr1   O42   S    
