data_mof_unit_43517.cif
_audit_creation_date              2012-12-10T18:34:59-0500
_audit_creation_method            fapswitch 2.2
_symmetry_space_group_name_H-M    P1
_symmetry_Int_Tables_number       1
_space_group_crystal_system       triclinic
_cell_length_a                    15.186254
_cell_length_b                    13.940011
_cell_length_c                    10.80767
_cell_angle_alpha                 90.611826
_cell_angle_beta                  92.39063
_cell_angle_gamma                 91.503746
_cell_volume                      2285.00914035

loop_
_atom_site_label
_atom_site_type_symbol
_atom_type_description
_atom_site_fract_x
_atom_site_fract_y
_atom_site_fract_z
_atom_type_partial_charge
C1    C     C_R   0.329503 0.498208 0.502328 0.913391
C2    C     C_R   0.670265 0.500931 0.494502 0.902180
C3    C     C_R   0.232143 0.491613 0.511041 -0.364776
C4    C     C_R   0.766385 0.501400 0.473545 -0.382633
C5    C     C_R   0.186168 0.401712 0.495213 0.322740
C6    C     C_R   0.804931 0.418204 0.424431 0.340726
C7    C     C_R   0.093762 0.397148 0.496250 0.393619
C8    C     C_R   0.896561 0.415370 0.413403 0.400543
C9    C     C_R   0.046777 0.483291 0.503176 -0.134145
C10   C     C_R   0.950762 0.492352 0.462152 -0.151824
C11   C     C_R   0.540369 0.108510 0.595378 0.327599
C12   C     C_R   0.470822 0.107483 0.390962 0.352022
C13   C     C_R   0.546016 0.209762 0.590220 0.394894
C14   C     C_R   0.458041 0.207207 0.404954 0.346403
C15   C     C_R   0.506154 0.054841 0.491707 -0.063811
C16   C     C_R   0.428804 0.891006 0.452512 0.200841
C17   C     C_R   0.579027 0.893104 0.532347 0.240908
C18   C     C_R   0.432167 0.789485 0.442629 0.520169
C19   C     C_R   0.569920 0.792809 0.552096 0.557936
C20   C     C_R   0.505197 0.945514 0.490497 -0.055739
C21   C     C_R   0.509215 0.499862 0.263346 0.797093
C22   C     C_R   0.493850 0.500334 0.737805 0.800291
C23   C     C_R   0.562471 0.673384 0.115711 0.376889
C24   C     C_R   0.451188 0.673030 0.902417 0.372568
C25   C     C_R   0.534243 0.760216 0.066441 0.209543
C26   C     C_R   0.471782 0.759302 0.967083 0.180093
C27   C     C_R   0.490597 0.587173 0.942983 -0.148947
C28   C     C_R   0.526842 0.586246 0.064081 -0.156085
C29   C     C_R   0.520812 0.499429 0.129547 -0.055230
C30   C     C_R   0.489758 0.500630 0.873237 -0.045192
C31   C     C_R   0.509268 0.412701 0.063505 -0.181124
C32   C     C_R   0.498914 0.413345 0.935582 -0.162757
C33   C     C_R   0.093471 0.560720 0.562277 0.297543
C34   C     C_R   0.910071 0.581750 0.467269 0.289385
C35   C     C_R   0.184924 0.571548 0.549754 0.322281
C36   C     C_R   0.819789 0.585676 0.489506 0.320698
Cu1   Cu    Cu3+1 0.500000 0.596430 0.500000 1.106882
Cu2   Cu    Cu3+1 0.500000 0.403570 0.500000 1.044068
H1    H     H_    0.508026 0.344462 0.110347 0.176640
H2    H     H_    0.495713 0.345299 0.886170 0.184752
N1    N     N_R   0.500000 0.258690 0.500000 -0.298529
N2    N     N_R   0.500000 0.741330 0.500000 -0.266515
O1    O     O_R   0.371460 0.581430 0.500010 -0.486922
O2    O     O_R   0.628540 0.581430 0.499990 -0.491168
O3    O     O_R   0.371470 0.418560 0.500010 -0.535587
O4    O     O_R   0.628530 0.418560 0.499990 -0.509719
O5    O     O_R   0.500000 0.581450 0.319650 -0.548709
O6    O     O_R   0.500000 0.581450 0.680350 -0.534529
O7    O     O_R   0.500010 0.418580 0.319650 -0.565153
O8    O     O_R   0.499990 0.418580 0.680350 -0.572688
Cl1   Cl    Cl    0.326064 0.945807 0.425831 -0.540831
Cl2   Cl    Cl    0.685067 0.947893 0.550172 -0.467018
O9    O     O_3   0.361640 0.738187 0.387944 -0.555064
C37   C     C_3   0.356984 0.752374 0.258550 -0.170955
H3    H     H_    0.386339 0.821816 0.227915 0.219540
H4    H     H_    0.388924 0.692422 0.211461 0.146349
H5    H     H_    0.286589 0.750472 0.226580 0.185821
O10   O     O_3   0.630982 0.745567 0.624854 -0.523705
C38   C     C_3   0.627605 0.778200 0.748907 -0.265537
H6    H     H_    0.562062 0.805018 0.772720 0.180584
H7    H     H_    0.643091 0.717707 0.811354 0.153547
H8    H     H_    0.677922 0.836130 0.768226 0.212251
O11   O     O_3   0.623495 0.674986 0.214607 -0.507939
C39   C     C_3   0.705224 0.645969 0.171843 -0.186001
H9    H     H_    0.755393 0.653370 0.249012 0.223577
H10   H     H_    0.727531 0.692355 0.095325 0.168515
H11   H     H_    0.702379 0.569435 0.141725 0.102082
O12   O     O_3   0.383311 0.671773 0.812892 -0.513314
C40   C     C_3   0.307681 0.627300 0.862029 -0.101907
H12   H     H_    0.304134 0.635104 0.964691 0.108065
H13   H     H_    0.304364 0.550025 0.835603 0.124757
H14   H     H_    0.248127 0.661656 0.822380 0.245522
Cl3   Cl    Cl    0.574205 0.868230 0.135271 -0.569634
Cl4   Cl    Cl    0.417023 0.864389 0.924711 -0.597843
Cl5   Cl    Cl    0.045941 0.620867 0.686823 -0.650756
Cl6   Cl    Cl    0.965594 0.687589 0.419678 -0.575202
O13   O     O_3   0.230436 0.653365 0.593417 -0.555988
C41   C     C_3   0.197815 0.735459 0.533488 0.013851
H15   H     H_    0.191198 0.725292 0.431129 0.170457
H16   H     H_    0.245080 0.795840 0.553902 0.216833
H17   H     H_    0.134251 0.757349 0.570070 0.207659
O14   O     O_3   0.783026 0.673001 0.515551 -0.489644
C42   C     C_3   0.816164 0.706359 0.632971 -0.008810
H18   H     H_    0.789367 0.661409 0.707796 0.117420
H19   H     H_    0.795912 0.781297 0.646338 0.216450
H20   H     H_    0.888990 0.709697 0.641935 0.202849
O15   O     O_3   0.230399 0.318281 0.471818 -0.475020
C43   C     C_3   0.248110 0.270331 0.584373 -0.081674
H21   H     H_    0.268057 0.320026 0.662762 0.082920
H22   H     H_    0.303702 0.221667 0.571433 0.177600
H23   H     H_    0.190570 0.224828 0.608637 0.170900
O16   O     O_3   0.754368 0.337052 0.391577 -0.489473
C44   C     C_3   0.720394 0.346525 0.268905 -0.166343
H24   H     H_    0.686812 0.415656 0.254222 0.090722
H25   H     H_    0.670559 0.288123 0.249395 0.173479
H26   H     H_    0.773120 0.338696 0.201769 0.161780
O17   O     O_3   0.052819 0.307442 0.498531 -0.491913
C45   C     C_3   0.018333 0.292985 0.616619 -0.158763
H27   H     H_    0.960228 0.337946 0.630738 0.167549
H28   H     H_    0.068852 0.307345 0.692713 0.102620
H29   H     H_    0.996090 0.216853 0.623071 0.211064
O18   O     O_3   0.929413 0.339024 0.348581 -0.483352
C46   C     C_3   0.963455 0.372701 0.236871 -0.168059
H30   H     H_    0.025989 0.414744 0.254070 0.161895
H31   H     H_    0.915116 0.416605 0.183588 0.102717
H32   H     H_    0.978295 0.309888 0.178196 0.201909
O19   O     O_3   0.573177 0.062515 0.699412 -0.502241
C47   C     C_3   0.508639 0.063270 0.789282 -0.192325
H33   H     H_    0.447205 0.024550 0.755003 0.189720
H34   H     H_    0.493592 0.137642 0.818536 0.145226
H35   H     H_    0.534804 0.025824 0.872434 0.231704
O20   O     O_3   0.444765 0.061008 0.281208 -0.480811
C48   C     C_3   0.505011 0.086156 0.190176 -0.108781
H36   H     H_    0.573246 0.065897 0.218755 0.185446
H37   H     H_    0.504207 0.163830 0.168535 0.123591
H38   H     H_    0.485381 0.046881 0.103222 0.229260
Cl7   Cl    Cl    0.618089 0.269578 0.698963 -0.531353
Cl8   Cl    Cl    0.382961 0.261599 0.300757 -0.496888

loop_
_geom_bond_atom_site_label_1
_geom_bond_atom_site_label_2
_ccdc_geom_bond_type
C22   O6    A    
O15   C43   S    
C4    C36   A    
C44   H24   S    
C16   Cl1   S    
C13   N1    A    
O17   C45   S    
Cu2   O7    S    
O13   C41   S    
C2    O4    A    
C28   C29   A    
C24   C26   A    
C18   N2    A    
C41   H16   S    
C17   C20   A    
C47   H33   S    
Cu1   N2    S    
C40   H13   S    
Cu2   O3    S    
C46   H30   S    
C18   O9    S    
C33   C35   A    
C11   C15   A    
C33   Cl5   S    
C31   C32   A    
C36   O14   S    
O12   C40   S    
C14   Cl8   S    
O19   C47   S    
C24   C27   A    
Cu1   O5    S    
C7    O17   S    
C9    C10   S    
C25   Cl3   S    
C19   N2    A    
C22   O8    A    
C48   H38   S    
C23   O11   S    
C38   H6    S    
C44   H25   S    
C27   C30   A    
C9    C33   A    
C40   H12   S    
C17   Cl2   S    
C21   O7    A    
O20   C48   S    
C1    O1    A    
C19   O10   S    
C15   C20   S    
C37   H4    S    
C38   H7    S    
C39   H11   S    
Cu2   N1    S    
C10   C34   A    
C2    O2    A    
C5    C7    A    
C41   H15   S    
C17   C19   A    
C6    C8    A    
O10   C38   S    
O9    C37   S    
C21   C29   S    
C35   O13   S    
C1    C3    S    
C39   H10   S    
Cu1   O1    S    
C40   H14   S    
C2    C4    S    
Cu1   Cu2   S    
C42   H18   S    
C43   H23   S    
C3    C35   A    
C16   C20   A    
C46   H31   S    
C16   C18   A    
C23   C28   A    
Cu1   O6    S    
C14   N1    A    
C4    C6    A    
C42   H19   S    
C12   C14   A    
O14   C42   S    
C44   H26   S    
C45   H28   S    
C11   O19   S    
C12   O20   S    
C32   H2    S    
C48   H36   S    
C7    C9    A    
C37   H3    S    
C38   H8    S    
C22   C30   S    
C43   H22   S    
C3    C5    A    
C13   Cl7   S    
Cu2   O8    S    
C45   H29   S    
C47   H35   S    
C39   H9    S    
Cu1   O2    S    
C12   C15   A    
C25   C26   A    
C29   C31   A    
C30   C32   A    
C11   C13   A    
C41   H17   S    
C1    O3    A    
C6    O16   S    
O16   C44   S    
C26   Cl4   S    
C47   H34   S    
C46   H32   S    
C34   C36   A    
C23   C25   A    
O18   C46   S    
Cu2   O4    S    
C24   O12   S    
O11   C39   S    
C5    O15   S    
C42   H20   S    
C43   H21   S    
C8    C10   A    
C45   H27   S    
C27   C28   A    
C31   H1    S    
C48   H37   S    
C8    O18   S    
C34   Cl6   S    
C21   O5    A    
C37   H5    S    
