data_mof_unit_24624.cif
_audit_creation_date              2013-03-05T15:42:26-0500
_audit_creation_method            fapswitch 2.2
_symmetry_space_group_name_H-M    P1
_symmetry_Int_Tables_number       1
_space_group_crystal_system       triclinic
_cell_length_a                    11.388877
_cell_length_b                    11.476676
_cell_length_c                    18.563989
_cell_angle_alpha                 90.997899
_cell_angle_beta                  89.920386
_cell_angle_gamma                 59.60983
_cell_volume                      2092.57856964

loop_
_atom_site_label
_atom_site_type_symbol
_atom_site_description
_atom_site_fract_x
_atom_site_fract_y
_atom_site_fract_z
_atom_type_partial_charge
O1    O     O_R   0.507340 0.255690 0.581430 -0.561290
O2    O     O_R   0.280360 0.527380 0.578910 -0.510024
C1    C     C_R   0.227287 0.651321 0.605374 0.554167
O3    O     O_R   0.260600 0.739610 0.584580 -0.488120
O4    O     O_R   0.532370 0.695050 0.573830 -0.451052
C2    C     C_R   0.657809 0.625344 0.597806 0.560737
O5    O     O_R   0.744850 0.503430 0.576380 -0.500206
O6    O     O_R   0.699080 0.276500 0.571950 -0.482353
C3    C     C_R   0.621054 0.238007 0.605036 0.558451
O7    O     O_R   0.498860 0.256520 0.419860 -0.543679
O8    O     O_R   0.272490 0.528150 0.429140 -0.528247
C4    C     C_R   0.287311 0.621421 0.392996 0.552063
O9    O     O_R   0.252110 0.740440 0.423010 -0.555247
O10   O     O_R   0.524510 0.695820 0.424050 -0.546678
C5    C     C_R   0.646641 0.620634 0.393585 0.517978
O11   O     O_R   0.736370 0.504260 0.414810 -0.468840
O12   O     O_R   0.691220 0.277270 0.422180 -0.503113
C6    C     C_R   0.616864 0.226408 0.396884 0.532157
Cr1   Cr    Cr6+3 0.392940 0.397950 0.502230 0.972381
Cr2   Cr    Cr6+3 0.398400 0.708500 0.501260 1.012698
Cr3   Cr    Cr6+3 0.708640 0.393530 0.496460 1.050761
O13   O     O_3   0.499990 0.499990 0.499980 -0.273273
C7    C     C_3   0.674990 0.827226 0.766250 -0.068235
H1    H     H_    0.592970 0.915035 0.796767 0.188183
C8    C     C_3   0.626879 0.811143 0.689990 -0.046310
H2    H     H_    0.658520 0.858390 0.648215 0.140769
H3    H     H_    0.947561 0.606196 0.782847 0.164217
H4    H     H_    0.881588 0.654916 0.657471 0.129892
C9    C     C_3   0.867772 0.587293 0.768619 -0.209473
C10   C     C_3   0.627902 0.647672 0.804259 -0.182227
C11   C     C_3   0.732721 0.693319 0.807877 0.018961
H5    H     H_    0.646799 0.570399 0.845231 0.182057
H6    H     H_    0.523946 0.734060 0.816270 0.161021
C12   C     C_3   0.687714 0.658381 0.671918 0.062103
C13   C     C_3   0.844339 0.594506 0.684840 -0.250929
C14   C     C_3   0.635738 0.594206 0.728214 0.177864
H7    H     H_    0.910808 0.485217 0.790845 0.179268
H8    H     H_    0.906827 0.492468 0.660152 0.198653
H9    H     H_    0.437468 0.330683 0.713242 0.166111
C15   C     C_R   0.692243 0.168947 0.829827 0.062535
C16   C     C_R   0.803005 0.130694 0.782665 0.009151
C17   C     C_R   0.781702 0.130375 0.707282 0.012548
C18   C     C_R   0.538594 0.260352 0.731557 -0.081688
C19   C     C_R   0.564182 0.253967 0.805743 0.085178
C20   C     C_R   0.929731 0.104928 0.807365 -0.110277
C21   C     C_R   0.034157 0.084190 0.758524 0.335200
C22   C     C_R   0.014875 0.073013 0.683303 0.349998
C23   C     C_R   0.893142 0.081224 0.660567 -0.108755
C24   C     C_R   0.648206 0.194649 0.680948 0.032623
H10   H     H_    0.938607 0.122557 0.863449 0.144544
H11   H     H_    0.878955 0.060192 0.605566 0.105095
H12   H     H_    0.200610 0.840124 0.697174 0.230028
C25   C     C_R   0.168343 0.669313 0.830694 0.063293
C26   C     C_R   0.174914 0.559581 0.789867 0.033238
C27   C     C_R   0.161538 0.570336 0.713848 -0.002499
C28   C     C_R   0.171636 0.774148 0.720536 -0.102598
C29   C     C_R   0.178208 0.768053 0.794181 -0.100587
C30   C     C_R   0.191736 0.440362 0.820968 -0.158397
C31   C     C_R   0.204096 0.334535 0.777305 -0.097847
C32   C     C_R   0.178587 0.351382 0.703929 0.276075
C33   C     C_R   0.147243 0.473602 0.674285 -0.109919
C34   C     C_R   0.166337 0.675163 0.678448 0.021509
H13   H     H_    0.206324 0.422467 0.878003 0.171421
H14   H     H_    0.194186 0.840330 0.822824 0.168943
H15   H     H_    0.236517 0.238940 0.800430 0.183317
H16   H     H_    0.110369 0.493144 0.619629 0.118432
H17   H     H_    0.557086 0.864121 0.328471 0.112070
C35   C     C_R   0.662259 0.678374 0.171915 0.009664
C36   C     C_R   0.728849 0.548258 0.201422 -0.007551
C37   C     C_R   0.766365 0.535922 0.274142 0.034872
C38   C     C_R   0.611787 0.776418 0.293219 -0.171826
C39   C     C_R   0.612445 0.791782 0.218797 -0.138087
C40   C     C_R   0.777456 0.430921 0.157609 -0.095015
C41   C     C_R   0.885730 0.309378 0.179856 -0.175223
C42   C     C_R   0.940854 0.300725 0.247524 -0.104733
C43   C     C_R   0.886963 0.413179 0.294445 0.322239
C44   C     C_R   0.681597 0.647466 0.321518 -0.006255
H18   H     H_    0.739614 0.435763 0.103564 0.145269
H19   H     H_    0.570350 0.892592 0.197889 0.150147
H20   H     H_    0.930933 0.223182 0.143075 0.121124
H21   H     H_    0.028065 0.206073 0.263053 0.115187
H22   H     H_    0.851532 0.118949 0.321580 0.137973
C45   C     C_R   0.653196 0.157998 0.176929 -0.000663
C46   C     C_R   0.529471 0.194257 0.211949 0.026003
C47   C     C_R   0.533784 0.168962 0.285533 0.039586
C48   C     C_R   0.764031 0.132261 0.291679 -0.157008
C49   C     C_R   0.770523 0.123013 0.217854 -0.142570
C50   C     C_R   0.405033 0.243134 0.174943 -0.079630
C51   C     C_R   0.293650 0.246463 0.208000 -0.145638
C52   C     C_R   0.302511 0.207765 0.278988 -0.163552
C53   C     C_R   0.423576 0.161563 0.316036 -0.098921
C54   C     C_R   0.644701 0.160210 0.326337 0.000559
H23   H     H_    0.393203 0.278712 0.120338 0.144911
H24   H     H_    0.870010 0.083374 0.193415 0.154351
H25   H     H_    0.200421 0.279290 0.178594 0.116177
H26   H     H_    0.216968 0.209531 0.305232 0.140044
H27   H     H_    0.429341 0.120695 0.368863 0.130719
H28   H     H_    0.224587 0.463805 0.314263 0.157552
C55   C     C_R   0.190797 0.650210 0.169722 0.001137
C56   C     C_R   0.262608 0.712725 0.194146 0.034834
C57   C     C_R   0.282511 0.717937 0.268932 0.028008
C58   C     C_R   0.228959 0.539350 0.282936 -0.156040
C59   C     C_R   0.179435 0.559404 0.213488 -0.162052
C60   C     C_R   0.298967 0.784392 0.146533 -0.076953
C61   C     C_R   0.317025 0.887560 0.172709 -0.115398
C62   C     C_R   0.316574 0.907317 0.246418 -0.148389
C63   C     C_R   0.310686 0.818273 0.293807 -0.100630
C64   C     C_R   0.267038 0.626868 0.314296 -0.000264
H29   H     H_    0.302448 0.768127 0.088704 0.136564
H30   H     H_    0.124102 0.510741 0.195742 0.141415
H31   H     H_    0.334078 0.950234 0.136194 0.122514
H32   H     H_    0.336840 0.981998 0.267413 0.117333
H33   H     H_    0.328005 0.834237 0.348680 0.172427
O14   O     O_R   0.089570 0.825450 0.930590 -0.536748
O15   O     O_R   0.818700 0.054260 0.929860 -0.514127
C65   C     C_R   0.704199 0.100110 0.897399 0.586580
O16   O     O_R   0.606310 0.077010 0.915520 -0.504638
O17   O     O_R   0.646730 0.806540 0.917560 -0.512295
C66   C     C_R   0.756916 0.709660 0.884208 0.573975
O18   O     O_R   0.837290 0.593240 0.915240 -0.524058
O19   O     O_R   0.065320 0.635310 0.931580 -0.520292
C67   C     C_R   0.114639 0.706576 0.905144 0.563428
O20   O     O_R   0.068470 0.828620 0.091850 -0.528667
O21   O     O_R   0.799150 0.057200 0.079350 -0.511563
C68   C     C_R   0.675648 0.105905 0.103438 0.543118
O22   O     O_R   0.585220 0.080180 0.076770 -0.528224
O23   O     O_R   0.627170 0.809480 0.067050 -0.509591
C69   C     C_R   0.697387 0.692499 0.097807 0.542459
O24   O     O_R   0.816200 0.596410 0.076500 -0.515741
O25   O     O_R   0.045770 0.638240 0.081070 -0.506914
C70   C     C_R   0.099448 0.706590 0.108674 0.542316
Cr4   Cr    Cr6+3 0.937880 0.938320 0.007620 0.991461
Cr5   Cr    Cr6+3 0.625560 0.937220 0.994510 1.009189
Cr6   Cr    Cr6+3 0.938080 0.625010 0.001190 1.005427
O26   O     O_3   0.833840 0.833520 0.001110 -0.280050
I1    I     I_    0.838081 0.860605 0.754586 -0.552786
I2    I     I_    0.765896 0.393078 0.729718 -0.392539
I3    I     I_    0.464470 0.412076 0.883986 -0.440476
O27   O     O_3   0.157303 0.071485 0.780553 -0.508998
C71   C     C_3   0.170310 0.084161 0.855954 -0.149034
H34   H     H_    0.275851 0.060194 0.867064 0.144490
H35   H     H_    0.155949 0.011697 0.887898 0.115055
H36   H     H_    0.099427 0.189419 0.875268 0.109289
O28   O     O_3   0.119989 0.049665 0.635473 -0.489127
C72   C     C_3   0.089052 0.049051 0.561575 -0.066422
H37   H     H_    0.003532 0.149361 0.545841 0.129391
H38   H     H_    0.068780 0.966408 0.547870 0.121352
H39   H     H_    0.178966 0.026355 0.528180 0.119202
O29   O     O_3   0.176926 0.251276 0.662339 -0.491912
C73   C     C_3   0.273070 0.213490 0.605630 -0.030128
H40   H     H_    0.376029 0.172856 0.628222 0.169234
H41   H     H_    0.247641 0.295892 0.567312 0.104531
H42   H     H_    0.276770 0.130566 0.573373 0.149521
I4    I     I_    0.413161 0.921271 0.689875 -0.326828
O30   O     O_3   0.960574 0.398127 0.356833 -0.567935
C74   C     C_3   0.981943 0.507886 0.368872 -0.111534
H43   H     H_    0.987927 0.555218 0.318270 0.101525
H44   H     H_    0.078507 0.469992 0.398391 0.148432
H45   H     H_    0.901921 0.585969 0.404647 0.138342
I5    I     I_    0.478520 0.566023 0.707045 -0.295727

loop_
_geom_bond_atom_site_label_1
_geom_bond_atom_site_label_2
_geom_bond_distance
_ccdc_geom_bond_type
C57   C63   1.413491 A    
C45   C49   1.412275 A    
C27   C34   1.405771 A    
O11   Cr3   2.117552 S    
O20   Cr4   2.102988 S    
H3    C9    1.068042 S    
C16   C17   1.420870 A    
C26   C27   1.420433 A    
C55   C59   1.388736 A    
C71   H36   1.112190 S    
C42   C43   1.399633 A    
O16   Cr5   2.121116 S    
C69   O24   1.295034 A    
C72   H37   1.112335 S    
C47   C53   1.418014 A    
O4    Cr2   1.985290 S    
C62   H32   1.062343 S    
C20   C21   1.412886 A    
C28   C29   1.370361 A    
C4    O9    1.325058 A    
O8    Cr1   1.989346 S    
C8    I4    2.099860 S    
C7    I1    2.089342 S    
C59   H30   1.080661 S    
C74   H43   1.112287 S    
C71   H35   1.106605 S    
C39   H19   1.083515 S    
C25   C67   1.476344 S    
C60   H29   1.083648 S    
C62   C63   1.386811 A    
C5    O11   1.273530 A    
C49   H24   1.080015 S    
C56   C60   1.413551 A    
C65   O16   1.314315 A    
O21   Cr4   1.969969 S    
C12   C13   1.568784 S    
C40   C41   1.384944 A    
O17   C66   1.325340 A    
C63   H33   1.068057 S    
C21   C22   1.427477 A    
C33   H16   1.081657 S    
C23   H11   1.076222 S    
C45   C46   1.405737 A    
H4    C13   1.108166 S    
C35   C36   1.410298 A    
C73   H42   1.097998 S    
C7    H1    1.111446 S    
C58   C64   1.398898 A    
O19   Cr6   1.989280 S    
C10   H5    1.114520 S    
C14   I2    2.016605 S    
C35   C69   1.466587 S    
O18   Cr6   2.098744 S    
C10   H6    1.112809 S    
C35   C39   1.409037 A    
C8    C12   1.554399 S    
C28   C34   1.393992 A    
C57   C64   1.431512 A    
C61   H31   1.082844 S    
C31   C32   1.389507 A    
C41   H20   1.081710 S    
Cr3   O13   2.050141 S    
C37   C44   1.432592 A    
O25   Cr6   1.977845 S    
C45   C68   1.449155 S    
C60   C61   1.380925 A    
C72   H38   1.109485 S    
C47   C54   1.434056 A    
O6    Cr3   1.998205 S    
O15   Cr4   1.985363 S    
O1    Cr1   2.112233 S    
C41   C42   1.387602 A    
O10   Cr2   1.978371 S    
C13   H8    1.106832 S    
O1    C3    1.284214 A    
C71   H34   1.109561 S    
O22   Cr5   2.093576 S    
O23   Cr5   2.001157 S    
C4    C64   1.476891 S    
C25   C29   1.382606 A    
C48   C49   1.371733 A    
C42   H21   1.081537 S    
H9    C18   1.078716 S    
C30   C31   1.394402 A    
H28   C58   1.074023 S    
C22   O28   1.399125 S    
O12   Cr3   1.981317 S    
C2    C12   1.505466 S    
C32   C33   1.385133 A    
O3    Cr2   2.095229 S    
C51   H25   1.082286 S    
C18   C19   1.403563 A    
C22   C23   1.407110 A    
O7    Cr1   2.086947 S    
C40   H18   1.083658 S    
Cr1   O13   2.075017 S    
O12   C6    1.330444 A    
O6    C3    1.329361 A    
C3    C24   1.482927 S    
C8    H2    1.112139 S    
C17   C23   1.391617 A    
C46   C47   1.397236 A    
C66   O18   1.321293 A    
C36   C40   1.409883 A    
C11   C66   1.470756 S    
O19   C67   1.305107 A    
C2    O5    1.294120 A    
O17   Cr5   1.976518 S    
C15   C16   1.404909 A    
Cr2   O13   2.064538 S    
C37   C43   1.440574 A    
C68   O22   1.302636 A    
C73   H41   1.109559 S    
O23   C69   1.307542 A    
C38   C44   1.391432 A    
C72   H39   1.106120 S    
C29   H14   1.068448 S    
C26   C30   1.415882 A    
C1    C34   1.479599 S    
C30   H13   1.079057 S    
C50   H23   1.082389 S    
C19   I3    2.123844 S    
O9    Cr2   2.104206 S    
O20   C70   1.303470 A    
O2    Cr1   1.967496 S    
C73   H40   1.105999 S    
O14   Cr4   2.090882 S    
C74   H45   1.107236 S    
C18   C24   1.424541 A    
C46   C50   1.416634 A    
O28   C72   1.417624 S    
C15   C65   1.463686 S    
O27   C71   1.420442 S    
C25   C26   1.427320 A    
Cr6   O26   2.064369 S    
C10   C14   1.513752 S    
C61   C62   1.382660 A    
C9    C13   1.574876 S    
C43   O30   1.391815 S    
C55   C56   1.404489 A    
C55   C70   1.460514 S    
C6    C54   1.453732 S    
C74   H44   1.106783 S    
O2    C1    1.317177 A    
C53   H27   1.082166 S    
C5    C44   1.476506 S    
C38   C39   1.396310 A    
C9    C11   1.565208 S    
O5    Cr3   2.103536 S    
O29   C73   1.412708 S    
C31   H15   1.063603 S    
H22   C48   1.083975 S    
C10   C11   1.528331 S    
C52   C53   1.389563 A    
O4    C2    1.317902 A    
C20   H10   1.071802 S    
O7    C6    1.277055 A    
Cr4   O26   2.074237 S    
C27   C33   1.397570 A    
C56   C57   1.412115 A    
C12   C14   1.565651 S    
O25   C70   1.312910 A    
H17   C38   1.082124 S    
C32   O29   1.381121 S    
C7    C8    1.560077 S    
C58   C59   1.383567 A    
C36   C37   1.404314 A    
C14   I5    2.012095 S    
C17   C24   1.405199 A    
O24   Cr6   2.112017 S    
O14   C67   1.322491 A    
H12   C28   1.064963 S    
C15   C19   1.362442 A    
C50   C51   1.391126 A    
C52   H26   1.079475 S    
C9    H7    1.104229 S    
O30   C74   1.412963 S    
Cr5   O26   2.051278 S    
C16   C20   1.398380 A    
O10   C5    1.328755 A    
O21   C68   1.298020 A    
C48   C54   1.383163 A    
O15   C65   1.288217 A    
C51   C52   1.385451 A    
C1    O3    1.312181 A    
O8    C4    1.353536 A    
C7    C11   1.552957 S    
C21   O27   1.397241 S    
