data_mof_unit_17802.cif
_audit_creation_date              2013-03-05T16:35:15-0500
_audit_creation_method            fapswitch 2.2
_symmetry_space_group_name_H-M    P1
_symmetry_Int_Tables_number       1
_space_group_crystal_system       triclinic
_cell_length_a                    10.861006
_cell_length_b                    9.205923
_cell_length_c                    7.772714
_cell_angle_alpha                 90.037965
_cell_angle_beta                  89.982581
_cell_angle_gamma                 90.075345
_cell_volume                      777.158477571

loop_
_atom_site_label
_atom_site_type_symbol
_atom_site_description
_atom_site_fract_x
_atom_site_fract_y
_atom_site_fract_z
_atom_type_partial_charge
O1    O     O_R   0.500000 0.288400 0.642760 -0.543720
O2    O     O_R   0.500000 0.288400 0.357240 -0.545490
C1    C     C_R   0.499569 0.219775 0.499982 0.965314
O3    O     O_R   0.317700 0.499990 0.642790 -0.586385
O4    O     O_R   0.317700 0.499990 0.357210 -0.575254
O5    O     O_R   0.682300 0.499990 0.642790 -0.588097
O6    O     O_R   0.682300 0.499990 0.357210 -0.572331
N1    N     N_1   0.500000 0.499970 0.076820 -0.033337
N2    N     N_1   0.500000 0.499970 0.923180 -0.030809
C2    C     C_R   0.260215 0.492528 0.500141 0.940046
C3    C     C_R   0.740915 0.499831 0.499724 0.913869
Cu1   Cu    Cu3+1 0.500000 0.500010 0.669080 1.069067
Cu2   Cu    Cu3+1 0.500000 0.500010 0.330920 1.069960
O7    O     O_R   0.500000 0.711620 0.642810 -0.598034
O8    O     O_R   0.500000 0.711620 0.357190 -0.595186
C4    C     C_R   0.494580 0.780050 0.500179 0.784051
C5    C     C_1   0.497379 0.065073 0.500061 -0.077170
C6    C     C_3   0.072800 0.415800 0.666173 0.093670
C7    C     C_3   0.070975 0.412437 0.333248 0.096869
C8    C     C_3   0.929332 0.424296 0.670791 0.102688
C9    C     C_3   0.927328 0.412364 0.337353 0.101086
H1    H     H_    0.104410 0.477142 0.778567 0.136066
H2    H     H_    0.095165 0.476060 0.218488 0.071647
H3    H     H_    0.905044 0.499710 0.776425 0.085359
H4    H     H_    0.897838 0.473884 0.221826 0.109666
C10   C     C_1   0.495537 0.934809 0.500281 -0.167237
C11   C     C_3   0.081101 0.660269 0.503007 0.336045
C12   C     C_3   0.931379 0.663534 0.490747 0.349176
C13   C     C_3   0.123621 0.493046 0.500313 -0.308999
C14   C     C_3   0.879343 0.498128 0.499596 -0.315472
N3    N     N_R   0.125716 0.270820 0.696021 0.196920
O9    O     O_R   0.080880 0.155568 0.624137 -0.309800
O10   O     O_R   0.212836 0.254845 0.809429 -0.306191
N4    N     N_R   0.124927 0.269481 0.291057 0.203275
O11   O     O_R   0.224233 0.222468 0.365790 -0.371799
O12   O     O_R   0.093351 0.208195 0.146666 -0.274610
N5    N     N_R   0.871525 0.286241 0.724648 0.197514
O13   O     O_R   0.775671 0.232360 0.647391 -0.358494
O14   O     O_R   0.900642 0.233084 0.874224 -0.277078
N6    N     N_R   0.869081 0.268856 0.314419 0.202386
O15   O     O_R   0.911959 0.153105 0.387666 -0.318918
O16   O     O_R   0.780312 0.253713 0.203359 -0.309663
N7    N     N_2   0.134309 0.736158 0.655506 -0.393093
H5    H     H_    0.226261 0.762421 0.642328 0.270329
C15   C     C_3   0.099897 0.735527 0.836641 -0.674385
H6    H     H_    0.172132 0.679415 0.912818 0.210935
H7    H     H_    0.011024 0.683634 0.864344 0.218152
H8    H     H_    0.096208 0.849216 0.883902 0.271531
N8    N     N_2   0.138077 0.733646 0.352133 -0.493624
H9    H     H_    0.140910 0.685381 0.233650 0.227839
C16   C     C_3   0.145605 0.890512 0.337799 -0.480109
H10   H     H_    0.214769 0.919114 0.238061 0.235382
H11   H     H_    0.176529 0.941958 0.458819 0.268821
H12   H     H_    0.056129 0.935848 0.296211 0.283651
N9    N     N_2   0.878834 0.747928 0.634524 -0.483568
H13   H     H_    0.800111 0.712136 0.694198 0.235447
C17   C     C_3   0.890128 0.903976 0.641247 -0.368408
H14   H     H_    0.899140 0.939191 0.777154 0.242658
H15   H     H_    0.806667 0.956162 0.588039 0.237739
H16   H     H_    0.971537 0.938990 0.569737 0.299293
N10   N     N_2   0.895702 0.731152 0.325338 -0.442780
H17   H     H_    0.939089 0.699619 0.213779 0.228266
C18   C     C_3   0.776718 0.795894 0.294075 -0.560588
H18   H     H_    0.729058 0.737221 0.188409 0.224492
H19   H     H_    0.789381 0.910623 0.254229 0.270328
H20   H     H_    0.719121 0.792715 0.409789 0.211092

loop_
_geom_bond_atom_site_label_1
_geom_bond_atom_site_label_2
_geom_bond_distance
_ccdc_geom_bond_type
C7    H2    1.099042 S    
N7    H5    1.032308 S    
C18   H19   1.109237 S    
N1    Cu2   1.975046 S    
C11   N7    1.491747 S    
C11   C13   1.607923 S    
C9    C14   1.576267 S    
O4    Cu2   1.990417 S    
N3    O9    1.293470 A    
Cu2   O8    1.958602 S    
N9    H13   1.026629 S    
C16   H12   1.106581 S    
C12   N10   1.480739 S    
C11   C12   1.629272 S    
C12   C14   1.625012 S    
O2    C1    1.277118 A    
C18   H20   1.095793 S    
O4    C2    1.276062 A    
N5    O14   1.300973 A    
C6    C13   1.572291 S    
C8    C14   1.590595 S    
C15   H6    1.111166 S    
O6    C3    1.277797 A    
C8    N5    1.477534 S    
N7    C15   1.456580 S    
C2    C13   1.483560 S    
C17   H14   1.109099 S    
N5    O13   1.299656 A    
O1    Cu1   1.958644 S    
C5    C10   1.199337 T    
N6    O16   1.301585 A    
N6    O15   1.295677 A    
C7    C9    1.560458 S    
C12   N9    1.475744 S    
Cu1   O7    1.958871 S    
C1    C5    1.424347 S    
N4    O12   1.301688 A    
N9    C17   1.442544 S    
O5    Cu1   1.990417 S    
N10   H17   1.028591 S    
N2    Cu1   1.975046 S    
O7    C4    1.276884 A    
C17   H15   1.106870 S    
O3    Cu1   1.990541 S    
N3    O10   1.301920 A    
C16   H11   1.105046 S    
O3    C2    1.274401 A    
C16   H10   1.110852 S    
C7    C13   1.600603 S    
C11   N8    1.487946 S    
O6    Cu2   1.990540 S    
C4    C10   1.424726 S    
Cu1   Cu2   2.628422 S    
C6    C8    1.560674 S    
N10   C18   1.444533 S    
N4    O11   1.299986 A    
C15   H7    1.097756 S    
O5    C3    1.281177 A    
N8    H9    1.022721 S    
O2    Cu2   1.958914 S    
C9    H4    1.109508 S    
C17   H16   1.092618 S    
C6    N3    1.472412 S    
C15   H8    1.109745 S    
N8    C16   1.450659 S    
C6    H1    1.094975 S    
C8    H3    1.106936 S    
O8    C4    1.278551 A    
C18   H18   1.110489 S    
C3    C14   1.503577 S    
N1    N2    1.194201 T    
O1    C1    1.276633 A    
C7    N4    1.477912 S    
C9    N6    1.474754 S    
