data_mof_unit_40438.cif
_audit_creation_date              2012-12-10T17:16:36-0500
_audit_creation_method            fapswitch 2.2
_symmetry_space_group_name_H-M    P1
_symmetry_Int_Tables_number       1
_space_group_crystal_system       triclinic
_cell_length_a                    10.144402
_cell_length_b                    10.714086
_cell_length_c                    10.831957
_cell_angle_alpha                 91.052589
_cell_angle_beta                  95.277309
_cell_angle_gamma                 81.76049
_cell_volume                      1160.19621929

loop_
_atom_site_label
_atom_site_type_symbol
_atom_type_description
_atom_site_fract_x
_atom_site_fract_y
_atom_site_fract_z
_atom_type_partial_charge
C1    C     C_R   0.443906 0.506751 0.267349 0.862738
C2    C     C_R   0.555934 0.487200 0.732313 0.885677
C3    C     C_2   0.411759 0.499011 0.135224 0.470905
C4    C     C_2   0.587691 0.469697 0.863760 0.464220
C5    C     C_2   0.510682 0.457566 0.065242 -0.175046
C6    C     C_2   0.487828 0.458913 0.932914 -0.274299
C7    C     C_2   0.072561 0.489509 0.489563 -0.100262
C8    C     C_2   0.927449 0.510463 0.510460 -0.097142
C9    C     C_R   0.498523 0.260875 0.496815 0.961423
C10   C     C_R   0.501548 0.739002 0.503370 0.975044
C11   C     C_R   0.539898 0.113831 0.272566 0.612076
C12   C     C_R   0.462802 0.885113 0.728185 0.621056
C13   C     C_R   0.566293 0.039828 0.168233 -0.194206
C14   C     C_R   0.436088 0.959066 0.832455 -0.185633
C15   C     C_R   0.569102 0.910524 0.172628 -0.223064
C16   C     C_R   0.431661 0.088584 0.827751 -0.234356
C17   C     C_R   0.545501 0.854629 0.281500 -0.143182
C18   C     C_R   0.454099 0.144814 0.718648 -0.149524
C19   C     C_R   0.523947 0.927087 0.391073 -0.002543
C20   C     C_R   0.476217 0.072466 0.609189 0.003755
C21   C     C_R   0.521060 0.058056 0.387144 -0.042187
C22   C     C_R   0.480016 0.941354 0.613305 -0.051742
C23   C     C_R   0.503055 0.871155 0.503391 -0.156649
C24   C     C_R   0.497240 0.128513 0.496883 -0.151630
H1    H     H_    0.412335 0.145788 0.909275 0.180775
H2    H     H_    0.588373 0.853210 0.091134 0.185604
H3    H     H_    0.583190 0.083524 0.082918 0.169767
H4    H     H_    0.420222 0.915175 0.917981 0.172945
H5    H     H_    0.544534 0.754036 0.277721 0.148203
H6    H     H_    0.453831 0.245545 0.722181 0.135200
H7    H     H_    0.385594 0.459975 0.892137 0.211256
H8    H     H_    0.612582 0.429255 0.105559 0.222711
H9    H     H_    0.879657 0.383996 0.384449 0.187262
H10   H     H_    0.120332 0.616018 0.615533 0.190054
N1    N     N_2   0.157300 0.551390 0.551120 -0.188672
N2    N     N_2   0.842700 0.448610 0.448880 -0.188618
O1    O     O_R   0.568940 0.489660 0.307530 -0.625238
O2    O     O_R   0.431060 0.510340 0.692470 -0.617300
O3    O     O_R   0.348880 0.522640 0.340350 -0.575250
O4    O     O_R   0.651120 0.477360 0.659650 -0.577499
O5    O     O_R   0.610030 0.300280 0.483580 -0.575184
O6    O     O_R   0.389970 0.699720 0.516420 -0.572994
O7    O     O_R   0.389970 0.333270 0.516400 -0.633437
O8    O     O_R   0.610030 0.666730 0.483600 -0.627254
Zn1   Zn    Zn3+2 0.646940 0.477980 0.478080 1.012936
Zn2   Zn    Zn3+2 0.353060 0.522020 0.521920 1.014982
F1    F     F_    0.530693 0.239655 0.257832 -0.713194
F2    F     F_    0.474655 0.758899 0.743421 -0.688935
F3    F     F_    0.715916 0.468178 0.914283 -0.639799
F4    F     F_    0.283969 0.534484 0.085295 -0.642075
H11   H     H_    0.891831 0.579267 0.578994 0.180028
H12   H     H_    0.108185 0.420690 0.421043 0.178300

loop_
_geom_bond_atom_site_label_1
_geom_bond_atom_site_label_2
_ccdc_geom_bond_type
C1    C3    S    
C19   C23   A    
C9    C24   S    
C18   H6    S    
O1    Zn1   S    
C2    O4    A    
C10   C23   S    
C10   O6    A    
C17   H5    S    
C2    O2    A    
C11   F1    S    
C1    O1    A    
C4    F3    S    
C12   F2    S    
C5    H8    S    
C14   H4    S    
C6    H7    S    
N2    Zn1   S    
C11   C13   A    
C8    H11   S    
C5    C6    S    
O3    Zn2   S    
C2    C4    S    
C16   C18   A    
C19   C21   A    
C3    F4    S    
C12   C14   A    
C7    H12   S    
C18   C20   A    
C13   C15   A    
O6    Zn2   S    
O4    Zn1   S    
O7    Zn2   S    
C14   C16   A    
O2    Zn2   S    
C9    O7    A    
C1    O3    A    
C10   O8    A    
C12   C22   A    
C7    C8    S    
H9    N2    S    
O8    Zn1   S    
C4    C6    D    
H10   N1    S    
C8    N2    D    
C21   C24   A    
C16   H1    S    
C15   C17   A    
O5    Zn1   S    
C22   C23   A    
C13   H3    S    
C15   H2    S    
C9    O5    A    
C17   C19   A    
N1    Zn2   S    
C7    N1    D    
C11   C21   A    
C20   C24   A    
C20   C22   A    
C3    C5    D    
