data_mof_unit_8065.cif
_audit_creation_date              2012-12-10T19:04:45-0500
_audit_creation_method            fapswitch 2.2
_symmetry_space_group_name_H-M    P1
_symmetry_Int_Tables_number       1
_space_group_crystal_system       triclinic
_cell_length_a                    15.856965
_cell_length_b                    10.823421
_cell_length_c                    9.603699
_cell_angle_alpha                 89.781304
_cell_angle_beta                  88.385938
_cell_angle_gamma                 92.136643
_cell_volume                      1646.43128253

loop_
_atom_site_label
_atom_site_type_symbol
_atom_type_description
_atom_site_fract_x
_atom_site_fract_y
_atom_site_fract_z
_atom_type_partial_charge
C1    C     C_R   0.499581 0.262500 0.499738 0.855159
C2    C     C_3   0.083209 0.487891 0.505601 0.008369
C3    C     C_3   0.972536 0.580856 0.587104 -0.363456
C4    C     C_3   0.917569 0.496634 0.492510 0.015075
C5    C     C_3   0.034722 0.601137 0.461664 0.445088
C6    C     C_3   0.980423 0.517431 0.368760 0.357242
C7    C     C_1   0.174755 0.489394 0.507750 0.056379
C8    C     C_1   0.825773 0.498763 0.490881 0.046059
C9    C     C_R   0.443718 0.058999 0.585315 0.037908
C10   C     C_R   0.497368 0.128752 0.494858 -0.228858
C11   C     C_R   0.541014 0.067447 0.385736 0.444714
C12   C     C_R   0.340001 0.498144 0.501757 0.836931
C13   C     C_R   0.540025 0.936832 0.387741 -0.332365
C14   C     C_R   0.497977 0.870055 0.495794 -0.119325
C15   C     C_R   0.446863 0.932838 0.588444 0.067904
C16   C     C_3   0.431409 0.924095 0.741656 -0.483560
C17   C     C_3   0.422919 0.064012 0.738008 0.241386
C18   C     C_R   0.569329 0.541706 0.069648 0.160595
C19   C     C_R   0.437503 0.439081 0.079043 0.431722
C20   C     C_R   0.435172 0.445035 0.931011 0.330435
C21   C     C_R   0.569633 0.540761 0.923114 0.123340
C22   C     C_3   0.612804 0.665394 0.914577 -0.524186
C23   C     C_R   0.500426 0.737222 0.499524 0.810131
C24   C     C_3   0.612743 0.665824 0.073599 0.265630
C25   C     C_R   0.660158 0.500479 0.498133 0.815823
C26   C     C_3   0.966451 0.383919 0.537065 0.501187
C27   C     C_3   0.028846 0.402529 0.411462 -0.404386
C28   C     C_1   0.250318 0.493183 0.505969 -0.091724
C29   C     C_1   0.750094 0.499883 0.493423 -0.131123
C30   C     C_3   0.021800 0.466154 0.632058 -0.255086
Cu1   Cu    Cu3+1 0.500000 0.499980 0.640670 1.003319
Cu2   Cu    Cu3+1 0.500000 0.500020 0.359330 1.018279
H1    H     H_    0.052955 0.328955 0.342418 0.151933
H2    H     H_    0.488047 0.896198 0.797529 0.152327
H3    H     H_    0.470280 0.116970 0.799474 0.110033
H4    H     H_    0.676829 0.661820 0.864785 0.216000
H5    H     H_    0.572313 0.736349 0.870678 0.166021
H6    H     H_    0.572814 0.736475 0.124122 0.069490
H7    H     H_    0.948670 0.653618 0.657516 0.165940
H8    H     H_    0.040490 0.442444 0.739038 0.163038
H9    H     H_    0.575825 0.887163 0.311018 0.129197
H10   H     H_    0.372213 0.870249 0.769439 0.240311
N1    N     N_R   0.500530 0.500930 0.147930 -0.278116
N2    N     N_R   0.500530 0.500890 0.852020 -0.236233
O1    O     O_R   0.500000 0.319640 0.618810 -0.567987
O2    O     O_R   0.500010 0.319680 0.381230 -0.543869
O3    O     O_R   0.379070 0.499970 0.618770 -0.510687
O4    O     O_R   0.379080 0.500010 0.381190 -0.530981
O5    O     O_R   0.499990 0.680320 0.618770 -0.581919
O6    O     O_R   0.500000 0.680360 0.381190 -0.594634
O7    O     O_R   0.620920 0.499990 0.618810 -0.582338
O8    O     O_R   0.620930 0.500030 0.381230 -0.534055
Cl1   Cl    Cl    0.315671 0.103628 0.767346 -0.585155
O9    O     O_3   0.371005 0.382319 0.154217 -0.520707
C31   C     C_3   0.378306 0.252419 0.151340 0.088324
H11   H     H_    0.443100 0.224567 0.173670 0.154005
H12   H     H_    0.361585 0.213942 0.048528 0.207687
C32   C     C_3   0.317818 0.193473 0.260388 -0.719040
H13   H     H_    0.251711 0.213956 0.235965 0.247776
H14   H     H_    0.324544 0.091703 0.261360 0.200619
H15   H     H_    0.331881 0.230130 0.365339 0.242147
Cl2   Cl    Cl    0.341604 0.387743 0.857842 -0.537311
O10   O     O_3   0.694559 0.656012 0.125892 -0.529332
C33   C     C_3   0.730473 0.775371 0.146959 0.050360
H16   H     H_    0.700201 0.818212 0.239313 0.132462
H17   H     H_    0.724689 0.835743 0.053630 0.129023
C34   C     C_3   0.823442 0.765536 0.175749 -0.733172
H18   H     H_    0.855440 0.720916 0.086188 0.269498
H19   H     H_    0.852628 0.859235 0.190806 0.178591
H20   H     H_    0.831177 0.709708 0.271452 0.262433
O11   O     O_3   0.924122 0.271467 0.575678 -0.568873
C35   C     C_3   0.983506 0.185334 0.615983 0.097995
H21   H     H_    0.016049 0.216928 0.711378 0.157722
H22   H     H_    0.031230 0.170399 0.531073 0.146391
C36   C     C_3   0.937868 0.062030 0.648366 -0.790534
H23   H     H_    0.905005 0.027541 0.554741 0.244438
H24   H     H_    0.984036 0.993195 0.679789 0.210013
H25   H     H_    0.890763 0.073002 0.734809 0.250908
O12   O     O_3   0.956155 0.547454 0.232795 -0.589118
C37   C     C_3   0.025889 0.536354 0.139312 0.098295
H26   H     H_    0.035375 0.437127 0.116272 0.161148
H27   H     H_    0.085198 0.578390 0.181138 0.174474
C38   C     C_3   0.009053 0.602421 0.003436 -0.801760
H28   H     H_    0.002085 0.702662 0.022600 0.238170
H29   H     H_    0.063054 0.591353 0.929010 0.222028
H30   H     H_    0.950719 0.562952 0.956814 0.256478
O13   O     O_3   0.078391 0.712937 0.424230 -0.572423
C39   C     C_3   0.020276 0.802641 0.389414 0.062191
H31   H     H_    0.972626 0.815383 0.474993 0.135347
H32   H     H_    0.987872 0.776458 0.292388 0.181365
C40   C     C_3   0.067602 0.925736 0.363490 -0.775592
H33   H     H_    0.114961 0.916718 0.277036 0.258336
H34   H     H_    0.022505 0.997037 0.334811 0.197698
H35   H     H_    0.100380 0.955637 0.459049 0.261494
O14   O     O_3   0.592076 0.137572 0.292014 -0.559727
C41   C     C_3   0.594753 0.086083 0.156825 0.044630
H36   H     H_    0.531860 0.047400 0.125968 0.121096
H37   H     H_    0.641887 0.012922 0.151422 0.131021
C42   C     C_3   0.622945 0.186088 0.051923 -0.748236
H38   H     H_    0.626062 0.146180 0.945609 0.187454
H39   H     H_    0.577604 0.261653 0.053049 0.221615
H40   H     H_    0.686389 0.224881 0.077841 0.265667

loop_
_geom_bond_atom_site_label_1
_geom_bond_atom_site_label_2
_ccdc_geom_bond_type
C31   H11   S    
C35   H22   S    
C16   H10   S    
C18   C21   A    
O14   C41   S    
C12   O4    A    
C13   H9    S    
C27   H1    S    
C26   C27   S    
C12   C28   S    
C38   H28   S    
C18   C24   S    
C8    C29   T    
C12   O3    A    
C5    C6    S    
C1    O2    A    
C23   O5    A    
C32   H14   S    
C15   C16   S    
C41   C42   S    
Cu2   O8    S    
C16   H2    S    
C2    C7    S    
C16   C17   S    
C41   H37   S    
C24   H6    S    
C2    C27   S    
C9    C10   A    
C4    C8    S    
C32   H15   S    
C3    H7    S    
Cu1   O3    S    
C21   C22   S    
C26   O11   S    
Cu2   O4    S    
Cu1   O5    S    
C35   C36   S    
C20   N2    A    
C19   N1    A    
C25   C29   S    
Cu1   N2    S    
C34   H18   S    
C33   C34   S    
C4    C6    S    
C40   H33   S    
C37   H26   S    
C23   O6    A    
C32   H13   S    
C22   H5    S    
C7    C28   T    
O12   C37   S    
C34   H19   S    
C33   H17   S    
C14   C23   S    
C3    C30   S    
C36   H23   S    
C25   O7    A    
C40   H34   S    
C21   N2    A    
C6    C27   S    
C39   C40   S    
C41   H36   S    
C38   H30   S    
C30   H8    S    
C9    C17   S    
C36   H24   S    
Cu2   O6    S    
C19   O9    S    
C37   H27   S    
C38   H29   S    
C39   H32   S    
C26   C30   S    
C24   O10   S    
C31   H12   S    
C22   C24   S    
C2    C5    S    
C3    C4    S    
C17   Cl1   S    
C37   C38   S    
C11   O14   S    
O9    C31   S    
C42   H39   S    
Cu2   O2    S    
Cu1   Cu2   S    
C1    C10   S    
Cu1   O7    S    
C35   H21   S    
C3    C5    S    
C4    C26   S    
C22   H4    S    
C42   H38   S    
C2    C30   S    
C34   H20   S    
C33   H16   S    
C19   C20   A    
C9    C15   A    
C25   O8    A    
O11   C35   S    
C18   N1    A    
C40   H35   S    
C11   C13   A    
C1    O1    A    
C6    O12   S    
Cu2   N1    S    
C20   Cl2   S    
C36   H25   S    
C10   C11   A    
O10   C33   S    
C5    O13   S    
C42   H40   S    
C39   H31   S    
O13   C39   S    
Cu1   O1    S    
C31   C32   S    
C14   C15   A    
C17   H3    S    
C13   C14   A    
