data_mof_unit_54352.cif
_audit_creation_date              2012-12-11T17:37:43-0500
_audit_creation_method            fapswitch 2.2
_symmetry_space_group_name_H-M    P1
_symmetry_Int_Tables_number       1
_space_group_crystal_system       triclinic
_cell_length_a                    12.935361
_cell_length_b                    12.980089
_cell_length_c                    15.296056
_cell_angle_alpha                 116.215825
_cell_angle_beta                  64.170061
_cell_angle_gamma                 96.879341
_cell_volume                      2065.44548198

loop_
_atom_site_label
_atom_site_type_symbol
_atom_type_description
_atom_site_fract_x
_atom_site_fract_y
_atom_site_fract_z
_atom_type_partial_charge
C1    C     C_R   0.000745 0.833013 0.053327 -0.090893
C2    C     C_R   0.673959 0.534261 0.322193 0.052688
C3    C     C_R   0.661914 0.460514 0.926285 0.170171
C4    C     C_R   0.076448 0.789881 0.300730 0.057736
C5    C     C_R   0.338045 0.516068 0.950413 -0.105505
C6    C     C_R   0.967829 0.179205 0.782015 -0.115151
C7    C     C_R   0.198255 0.510639 0.695929 -0.163336
C8    C     C_R   0.053754 0.254780 0.087033 -0.143580
C9    C     C_R   0.953207 0.170994 0.992619 -0.121677
C10   C     C_R   0.296284 0.598589 0.793952 -0.128945
C11   C     C_R   0.259584 0.416252 0.047932 -0.165452
C12   C     C_R   0.679325 0.465708 0.220322 -0.151345
C13   C     C_R   0.049917 0.279266 0.684631 -0.136138
C14   C     C_R   0.361912 0.434388 0.974912 0.149026
C15   C     C_R   0.033128 0.170380 0.679685 0.045914
C16   C     C_R   0.292226 0.571655 0.698402 0.122714
C17   C     C_R   0.011420 0.150749 0.042147 0.064230
C18   C     C_R   0.430534 0.703305 0.204736 -0.112370
C19   C     C_R   0.319471 0.753740 0.282521 -0.136531
C20   C     C_R   0.292054 0.872956 0.325176 0.124701
C21   C     C_R   0.378493 0.940680 0.289524 -0.171023
C22   C     C_R   0.489549 0.889843 0.211750 -0.112750
C23   C     C_R   0.754970 0.520614 0.893393 -0.190762
C24   C     C_R   0.515496 0.771274 0.169274 -0.083788
C25   C     C_R   0.159165 0.023984 0.503825 -0.254933
C26   C     C_R   0.047571 0.069208 0.584498 0.069740
C27   C     C_R   0.949357 0.019129 0.572630 0.009267
C28   C     C_R   0.964198 0.925832 0.478180 -0.249479
C29   C     C_R   0.074395 0.881228 0.396865 0.067147
C30   C     C_R   0.174200 0.926848 0.408472 0.027830
C31   C     C_R   0.767513 0.013525 0.722692 -0.173309
C32   C     C_R   0.649382 0.043997 0.787549 -0.123213
C33   C     C_R   0.592060 0.122868 0.780748 -0.092916
C34   C     C_R   0.017146 0.696122 0.301177 -0.161756
C35   C     C_R   0.653262 0.173197 0.710726 -0.082016
C36   C     C_R   0.771869 0.144912 0.647511 -0.146502
C37   C     C_R   0.829393 0.064297 0.652712 0.139271
C38   C     C_R   0.854757 0.325942 0.380127 -0.115502
C39   C     C_R   0.752723 0.371256 0.394377 -0.118974
C40   C     C_R   0.698308 0.478000 0.481668 0.116839
C41   C     C_R   0.745809 0.536499 0.555963 -0.188385
C42   C     C_R   0.846931 0.490038 0.542079 -0.122158
C43   C     C_R   0.901725 0.385164 0.453902 -0.113716
C44   C     C_R   0.494559 0.545592 0.591823 -0.276013
C45   C     C_R   0.676230 0.422305 0.990915 -0.126410
C46   C     C_R   0.386960 0.580860 0.608907 0.106266
C47   C     C_R   0.373260 0.606664 0.534160 0.082988
C48   C     C_R   0.470347 0.591367 0.439604 -0.266659
C49   C     C_R   0.577010 0.551643 0.421437 0.065075
C50   C     C_R   0.589960 0.527979 0.497958 0.024983
C51   C     C_R   0.218595 0.588711 0.473506 -0.258377
C52   C     C_R   0.113995 0.627192 0.487082 -0.115739
C53   C     C_R   0.050099 0.725927 0.578682 -0.163733
C54   C     C_R   0.090737 0.786574 0.657089 -0.271916
C55   C     C_R   0.197104 0.749899 0.643497 0.654469
C56   C     C_R   0.097412 0.798436 0.208229 -0.132091
C57   C     C_R   0.260584 0.648517 0.551805 -0.049694
C58   C     C_2   0.475391 0.394428 0.948016 -0.234900
C59   C     C_2   0.567205 0.439338 0.896953 -0.202027
C60   C     C_2   0.834040 0.957420 0.086968 -0.213453
C61   C     C_2   0.819158 0.040074 0.183891 -0.185159
C62   C     C_R   0.783371 0.557747 0.313955 -0.110169
C63   C     C_R   0.901243 0.748065 0.955351 -0.141688
C64   C     C_R   0.913260 0.852589 0.030929 0.144137
H1    H     H_    0.030001 0.895099 0.111202 0.086656
H2    H     H_    0.933450 0.110032 0.804215 0.091149
H3    H     H_    0.165431 0.483950 0.635837 0.101938
H4    H     H_    0.091519 0.273953 0.142506 0.089927
H5    H     H_    0.898024 0.112680 0.960926 0.089857
H6    H     H_    0.352882 0.655204 0.825236 0.097408
H7    H     H_    0.249789 0.362265 0.087595 0.093047
H8    H     H_    0.090857 0.302802 0.618384 0.098845
H9    H     H_    0.601502 0.732186 0.109184 0.116392
H10   H     H_    0.450831 0.611577 0.172306 0.116574
H11   H     H_    0.255319 0.699901 0.310127 0.120296
H12   H     H_    0.609191 0.428634 0.199475 0.097021
H13   H     H_    0.359701 0.032574 0.321165 0.108947
H14   H     H_    0.555535 0.942436 0.184365 0.115039
H15   H     H_    0.233411 0.063167 0.516438 0.132149
H16   H     H_    0.888436 0.889204 0.466656 0.143019
H17   H     H_    0.810395 0.948881 0.725302 0.098972
H18   H     H_    0.601800 0.004525 0.841234 0.105668
H19   H     H_    0.500031 0.144117 0.828996 0.103340
H20   H     H_    0.608512 0.232907 0.704250 0.119476
H21   H     H_    0.818002 0.182356 0.591722 0.112457
H22   H     H_    0.980473 0.349699 0.442857 0.101365
H23   H     H_    0.777212 0.549410 0.831422 0.098519
H24   H     H_    0.897590 0.244902 0.311921 0.110730
H25   H     H_    0.716807 0.323959 0.337035 0.118540
H26   H     H_    0.704831 0.618417 0.624202 0.113313
H27   H     H_    0.882999 0.535537 0.599538 0.117106
H28   H     H_    0.503220 0.522341 0.648511 0.130115
H29   H     H_    0.463212 0.610498 0.380076 0.140186
H30   H     H_    0.266620 0.511519 0.402128 0.135241
H31   H     H_    0.082259 0.579758 0.426637 0.120276
H32   H     H_    0.968753 0.755162 0.589147 0.130676
H33   H     H_    0.039677 0.862272 0.728422 0.129459
H34   H     H_    0.992931 0.661340 0.359212 0.098526
H35   H     H_    0.479085 0.348316 0.990910 0.127168
H36   H     H_    0.564946 0.481039 0.850053 0.123740
H37   H     H_    0.781014 0.965120 0.050981 0.126684
H38   H     H_    0.866547 0.035918 0.226015 0.132122
H39   H     H_    0.630208 0.359370 0.018269 0.086480
H40   H     H_    0.148736 0.859213 0.180349 0.095736
H41   H     H_    0.809149 0.606864 0.378234 0.107617
H42   H     H_    0.837909 0.731767 0.923606 0.093860
H43   H     H_    0.396387 0.554961 0.900222 0.083803
N1    N     N_R   0.037320 0.720000 0.995830 -0.042933
N2    N     N_R   0.946240 0.290870 0.848020 -0.038528
N3    N     N_R   0.146160 0.501170 0.788610 -0.039576
N4    N     N_R   0.025750 0.332680 0.063570 -0.037042
N5    N     N_R   0.962680 0.280000 0.004170 -0.043167
N6    N     N_R   0.209230 0.553860 0.848010 -0.045761
N7    N     N_R   0.175100 0.482030 0.063570 -0.039156
N8    N     N_R   0.996810 0.351820 0.788610 -0.038022
N9    N     N_R   0.790770 0.446140 0.151990 -0.040093
N10   N     N_R   0.824900 0.517970 0.936430 -0.040835
N11   N     N_R   0.003190 0.648180 0.211390 -0.037608
N12   N     N_R   0.774330 0.457010 0.995830 -0.043728
N13   N     N_R   0.053760 0.709130 0.151980 -0.042596
N14   N     N_R   0.853840 0.498830 0.211390 -0.041287
N15   N     N_R   0.974250 0.667320 0.936430 -0.037884
N16   N     N_R   0.225670 0.542990 0.004170 -0.045639
Ni1   Ni    Ni4+2 0.130310 0.630310 0.000000 0.218368
Ni2   Ni    Ni4+2 0.869690 0.369690 0.000000 0.211185
Ni3   Ni    Ni4+2 0.985660 0.509480 0.863750 0.216316
Ni4   Ni    Ni4+2 0.014340 0.490520 0.136250 0.211375
O1    O     O_3   0.236965 0.809640 0.721513 -0.630717
C65   C     C_3   0.273817 0.914760 0.717246 -0.263109
H44   H     H_    0.199710 0.974556 0.744700 0.142773
H45   H     H_    0.339089 0.900670 0.634816 0.139218
H46   H     H_    0.315422 0.957133 0.772873 0.173942

loop_
_geom_bond_atom_site_label_1
_geom_bond_atom_site_label_2
_ccdc_geom_bond_type
C34   N11   A    
C41   C42   A    
C3    C23   A    
C19   C20   A    
C2    C12   A    
O1    C65   S    
N16   Ni1   S    
C62   H41   S    
C20   C30   S    
C53   C54   A    
C28   C29   A    
C26   C27   A    
N8    Ni3   S    
C18   C24   A    
C36   C37   A    
C9    H5    S    
N14   Ni4   S    
N10   N12   A    
C38   C39   A    
C11   C14   A    
C11   H7    S    
C24   H9    S    
C44   C50   A    
C52   H31   S    
C18   C19   A    
C11   N7    A    
C45   H39   S    
C33   C35   A    
C6    C15   A    
C46   C47   A    
C31   C32   A    
C1    H1    S    
C54   H33   S    
C51   C57   A    
N10   Ni3   S    
C4    C29   S    
C44   H28   S    
C65   H46   S    
C45   N12   A    
C9    N5    A    
C41   H26   S    
C18   H10   S    
C23   H23   S    
C21   C22   A    
C4    C56   A    
C53   H32   S    
C59   H36   S    
C56   N13   A    
N1    Ni1   S    
C44   C46   A    
C14   C58   S    
C4    C34   A    
C48   H29   S    
C51   C52   A    
C56   H40   S    
N9    N14   A    
C8    N4    A    
C16   C46   S    
C39   C40   A    
C15   C26   S    
C51   H30   S    
C58   C59   D    
C3    C45   A    
C31   C37   A    
C38   H24   S    
C60   C61   D    
C35   C36   A    
N15   Ni3   S    
C29   C30   A    
C2    C49   S    
C47   C57   S    
C47   C48   A    
C5    C14   A    
C55   O1    S    
C63   H42   S    
C33   H19   S    
N3    N6    A    
C22   H14   S    
N5    Ni2   S    
C13   N8    A    
C10   N6    A    
N3    Ni3   S    
N7    N16   A    
N12   Ni2   S    
N2    Ni2   S    
C40   C41   A    
C8    H4    S    
N9    Ni2   S    
C55   C57   A    
C12   H12   S    
N4    Ni4   S    
C6    N2    A    
C22   C24   A    
N11   Ni4   S    
C60   H37   S    
C1    C64   A    
C10   H6    S    
C63   N15   A    
C52   C53   A    
C65   H44   S    
C5    H43   S    
C9    C17   A    
C25   C30   A    
C54   C55   A    
C48   C49   A    
N4    N5    A    
C25   H15   S    
C43   H22   S    
C7    C16   A    
C58   H35   S    
N1    N15   A    
C23   N10   A    
C35   H20   S    
C13   H8    S    
C36   H21   S    
C32   H18   S    
C5    N16   A    
C8    C17   A    
C31   H17   S    
C7    N3    A    
C60   C64   S    
C32   C33   A    
C13   C15   A    
C61   H38   S    
C25   C26   A    
C38   C43   A    
C10   C16   A    
N7    Ni4   S    
N6    Ni1   S    
C27   C37   S    
C40   C50   S    
C19   H11   S    
C34   H34   S    
C28   H16   S    
N11   N13   A    
N2    N8    A    
C1    N1    A    
C7    H3    S    
C63   C64   A    
N13   Ni1   S    
C6    H2    S    
C20   C21   A    
C49   C50   A    
C42   C43   A    
C21   H13   S    
C27   C28   A    
C65   H45   S    
C2    C62   A    
C39   H25   S    
C62   N14   A    
C42   H27   S    
C12   N9    A    
C3    C59   S    
