data_mof_unit_9124.cif
_audit_creation_date              2012-10-26T21:08:11-0400
_audit_creation_method            fapswitch 2.2
_symmetry_space_group_name_H-M    P1
_symmetry_Int_Tables_number       1
_space_group_crystal_system       triclinic
_cell_length_a                    15.856773
_cell_length_b                    10.864431
_cell_length_c                    9.576666
_cell_angle_alpha                 89.38037
_cell_angle_beta                  90.13678
_cell_angle_gamma                 92.565192
_cell_volume                      1648.06579305

loop_
_atom_site_label
_atom_site_type_symbol
_atom_type_description
_atom_site_fract_x
_atom_site_fract_y
_atom_site_fract_z
_atom_type_partial_charge
C1    C     C_R   0.505526 0.262425 0.501908 0.557934
C2    C     C_R   0.472695 0.047003 0.887631 -0.133900
C3    C     C_R   0.432891 0.931660 0.872499 -0.118306
C4    C     C_R   0.339844 0.499555 0.499828 0.548416
C5    C     C_R   0.432314 0.875102 0.742807 -0.080493
C6    C     C_R   0.472099 0.933785 0.625810 0.026375
C7    C     C_R   0.496702 0.059591 0.634908 -0.001708
C8    C     C_R   0.512140 0.127675 0.508154 -0.014780
C9    C     C_R   0.524686 0.063779 0.382729 0.228656
C10   C     C_R   0.514659 0.936581 0.381177 -0.134101
C11   C     C_R   0.489403 0.870743 0.501126 -0.040604
C12   C     C_3   0.082653 0.500028 0.499273 0.010229
C13   C     C_R   0.608850 0.668316 0.142830 -0.101685
C14   C     C_R   0.659510 0.754420 0.070357 -0.200045
C15   C     C_R   0.659891 0.755866 0.925915 -0.007096
C16   C     C_R   0.494299 0.736958 0.499795 0.546979
C17   C     C_R   0.609261 0.668611 0.854604 -0.052671
C18   C     C_R   0.553586 0.583015 0.924571 0.119933
C19   C     C_R   0.553447 0.582973 0.074123 0.142118
C20   C     C_R   0.449409 0.420636 0.074718 0.002223
C21   C     C_R   0.449396 0.420720 0.926687 -0.016801
C22   C     C_R   0.660105 0.500351 0.500179 0.542161
C23   C     C_3   0.975757 0.612401 0.539257 -0.131303
C24   C     C_3   0.969514 0.414416 0.591689 -0.138784
C25   C     C_3   0.024112 0.387841 0.462091 -0.100646
C26   C     C_1   0.250025 0.499638 0.499438 -0.034733
C27   C     C_1   0.749831 0.500703 0.500665 -0.011399
C28   C     C_3   0.029661 0.525815 0.629150 -0.118872
C29   C     C_2   0.714300 0.848875 0.850698 0.217886
C30   C     C_3   0.997645 0.427420 0.145586 -0.010051
C31   C     C_3   0.957208 0.403785 0.003606 -0.370498
C32   C     C_3   0.633912 0.140689 0.250862 0.004039
C33   C     C_3   0.657298 0.213683 0.119027 -0.358668
C34   C     C_3   0.917132 0.501015 0.501804 0.070981
C35   C     C_3   0.030412 0.587434 0.409249 -0.099473
C36   C     C_3   0.971206 0.475771 0.374581 0.306941
C37   C     C_1   0.174398 0.499774 0.499216 -0.065154
C38   C     C_1   0.825415 0.500945 0.501252 -0.015153
C39   C     C_R   0.504793 0.110463 0.770721 -0.094999
Cu1   Cu    Cu3+1 0.499990 0.499990 0.640660 0.913004
Cu2   Cu    Cu3+1 0.500010 0.500010 0.359340 0.940428
H1    H     H_    0.045112 0.296225 0.430113 0.097098
H2    H     H_    0.943080 0.344476 0.666853 0.109353
H3    H     H_    0.056467 0.657642 0.334066 0.098904
H4    H     H_    0.954462 0.703704 0.571805 0.123474
H5    H     H_    0.055525 0.546741 0.734493 0.113278
H6    H     H_    0.539425 0.195936 0.791261 0.148308
H7    H     H_    0.477637 0.088343 0.989808 0.155290
H8    H     H_    0.753939 0.914242 0.909068 0.100583
H9    H     H_    0.032098 0.344321 0.176503 0.124686
H10   H     H_    0.043212 0.507948 0.134962 0.123833
H11   H     H_    0.924331 0.486496 0.967378 0.162731
H12   H     H_    0.404648 0.884346 0.962055 0.118075
H13   H     H_    0.006602 0.382835 0.926506 0.089044
H14   H     H_    0.910911 0.324158 0.010516 0.157095
H15   H     H_    0.663611 0.049803 0.245859 0.120404
H16   H     H_    0.659900 0.192925 0.342103 0.141051
H17   H     H_    0.635074 0.162203 0.025410 0.139134
H18   H     H_    0.627921 0.304568 0.120358 0.184059
H19   H     H_    0.726928 0.228809 0.112982 0.107403
H20   H     H_    0.399499 0.786064 0.735354 0.142584
H21   H     H_    0.527775 0.889505 0.284962 0.145396
H22   H     H_    0.408009 0.355568 0.130692 0.130184
H23   H     H_    0.616188 0.673074 0.252709 0.192655
H24   H     H_    0.699463 0.819623 0.128088 0.101754
H25   H     H_    0.616456 0.671013 0.744829 0.223776
H26   H     H_    0.407966 0.355754 0.871881 0.120064
N1    N     N_R   0.500800 0.501210 0.147910 -0.244928
N2    N     N_R   0.500830 0.501290 0.852040 -0.251500
O1    O     O_R   0.499990 0.319640 0.618810 -0.527206
O2    O     O_3   0.934062 0.450642 0.243299 -0.554932
O3    O     O_3   0.545184 0.124811 0.259069 -0.557363
O4    O     O_R   0.500000 0.319660 0.381240 -0.446459
O5    O     O_R   0.379070 0.499980 0.618770 -0.499677
O6    O     O_R   0.379080 0.500000 0.381190 -0.496841
O7    O     O_R   0.500000 0.680340 0.618760 -0.523768
O8    O     O_R   0.500010 0.680360 0.381190 -0.528156
O9    O     O_R   0.620920 0.500000 0.618810 -0.518667
O10   O     O_R   0.620930 0.500020 0.381230 -0.516692
O11   O     O_2   0.715252 0.854375 0.723252 -0.530408

loop_
_geom_bond_atom_site_label_1
_geom_bond_atom_site_label_2
_ccdc_geom_bond_type
C30   H10   S    
C33   H17   S    
C23   H4    S    
C1    C8    S    
C35   C36   S    
C9    O3    S    
C31   H11   S    
C30   O2    S    
C7    C8    A    
C32   O3    S    
C29   H8    S    
C13   H23   S    
C28   H5    S    
C17   H25   S    
Cu1   O1    S    
C12   C28   S    
C22   O10   A    
C16   O8    A    
Cu2   O8    S    
C30   C31   S    
C27   C38   T    
C18   C19   A    
C12   C37   S    
C4    O6    A    
C2    C39   A    
C8    C9    A    
C9    C10   A    
C4    O5    A    
C36   O2    S    
C18   N2    A    
C30   H9    S    
C33   H18   S    
C34   C38   S    
C13   C14   A    
C21   H26   S    
C10   H21   S    
C32   H16   S    
C15   C29   S    
Cu2   N1    S    
Cu1   N2    S    
C13   C19   A    
C24   C25   S    
C22   O9    A    
C6    C11   A    
C2    H7    S    
C24   C34   S    
Cu1   O7    S    
C21   N2    A    
Cu2   O6    S    
C11   C16   S    
C23   C34   S    
C17   C18   A    
C5    H20   S    
C19   N1    A    
C23   C28   S    
C12   C35   S    
C35   H3    S    
Cu1   Cu2   S    
C33   H19   S    
C23   C35   S    
C22   C27   S    
Cu1   O9    S    
C39   H6    S    
C15   C17   A    
C16   O7    A    
C20   N1    A    
C24   C28   S    
C3    C5    A    
C25   H1    S    
Cu2   O10   S    
C4    C26   S    
C26   C37   T    
C6    C7    A    
C1    O1    A    
C12   C25   S    
C1    O4    A    
C32   C33   S    
C20   H22   S    
C2    C3    A    
C3    H12   S    
C5    C6    A    
C29   O11   D    
C14   H24   S    
Cu1   O5    S    
C34   C36   S    
C31   H13   S    
C10   C11   A    
C25   C36   S    
Cu2   O4    S    
C20   C21   A    
C24   H2    S    
C7    C39   A    
C14   C15   A    
C31   H14   S    
C32   H15   S    
