data_mof_unit_36275.cif
_audit_creation_date              2012-12-11T16:18:06-0500
_audit_creation_method            fapswitch 2.2
_symmetry_space_group_name_H-M    P1
_symmetry_Int_Tables_number       1
_space_group_crystal_system       triclinic
_cell_length_a                    13.978306
_cell_length_b                    14.040308
_cell_length_c                    30.099853
_cell_angle_alpha                 97.165042
_cell_angle_beta                  96.941695
_cell_angle_gamma                 61.269365
_cell_volume                      5127.06625422

loop_
_atom_site_label
_atom_site_type_symbol
_atom_type_description
_atom_site_fract_x
_atom_site_fract_y
_atom_site_fract_z
_atom_type_partial_charge
C1    C     C_R   0.386038 0.709805 0.441781 0.570456
C2    C     C_R   0.815784 0.258502 0.383766 0.273948
C3    C     C_3   0.647446 0.883827 0.224583 -0.355391
C4    C     C_2   0.493551 0.844048 0.087473 0.282788
C5    C     C_2   0.133049 0.497232 0.907974 0.259345
C6    C     C_3   0.172579 0.604694 0.700036 -0.013451
C7    C     C_3   0.150452 0.698184 0.672511 -0.382509
C8    C     C_2   0.501033 0.180275 0.809118 0.235002
C9    C     C_3   0.550854 0.193250 0.926866 0.017471
C10   C     C_3   0.646447 0.098807 0.949553 -0.325622
C11   C     C_3   0.516836 0.084538 0.666796 -0.014985
C12   C     C_3   0.564878 0.001039 0.701796 -0.330712
C13   C     C_R   0.841261 0.229941 0.338224 0.292714
C14   C     C_3   0.879173 0.530683 0.715194 -0.006200
C15   C     C_3   0.849244 0.637870 0.696296 -0.348259
C16   C     C_3   0.999971 0.052050 0.777447 -0.011623
C17   C     C_3   0.025907 0.938001 0.787137 -0.357100
C18   C     C_2   0.844215 0.138824 0.681668 0.237056
C19   C     C_2   0.467597 0.556559 0.720911 0.202580
C20   C     C_2   0.417210 0.625815 0.813965 0.193487
C21   C     C_2   0.300781 0.014718 0.783208 0.205325
C22   C     C_2   0.323552 0.949768 0.688748 0.185985
C23   C     C_2   0.525539 0.179309 0.288864 0.187176
C24   C     C_R   0.398580 0.381065 0.426498 0.547156
C25   C     C_3   0.982552 0.471547 0.132939 0.017513
C26   C     C_3   0.005537 0.551034 0.111970 -0.342498
C27   C     C_3   0.794423 0.120730 0.407643 0.010630
C28   C     C_3   0.795777 0.077645 0.451801 -0.347038
C29   C     C_R   0.814268 0.313881 0.310029 -0.005653
C30   C     C_R   0.764845 0.422696 0.326630 -0.195439
C31   C     C_R   0.738768 0.450516 0.370846 -0.192210
C32   C     C_R   0.861070 0.376905 0.165039 -0.160806
C33   C     C_R   0.882796 0.378581 0.121162 0.246414
C34   C     C_R   0.861412 0.214875 0.100082 -0.015437
C35   C     C_R   0.845057 0.212150 0.145290 0.291413
C36   C     C_R   0.407976 0.258082 0.221358 -0.160598
C37   C     C_R   0.851014 0.290403 0.177587 -0.026467
C38   C     C_1   0.843083 0.286952 0.224100 0.021402
C39   C     C_1   0.833598 0.293441 0.263494 0.007568
C40   C     C_R   0.710650 0.405142 0.442583 0.575704
C41   C     C_R   0.890030 0.293203 0.088833 -0.054177
C42   C     C_R   0.364135 0.769177 0.401452 -0.022540
C43   C     C_R   0.437919 0.804224 0.392037 -0.191584
C44   C     C_R   0.430420 0.842168 0.350440 -0.182793
C45   C     C_R   0.350065 0.844135 0.317637 0.004136
C46   C     C_R   0.273984 0.812046 0.326721 0.296015
C47   C     C_R   0.419370 0.259747 0.268215 -0.007973
C48   C     C_R   0.277706 0.779150 0.369275 0.250798
C49   C     C_R   0.221973 0.919697 0.165260 -0.023854
C50   C     C_R   0.210791 0.912489 0.118287 0.204577
C51   C     C_R   0.398908 0.877474 0.114917 -0.032182
C52   C     C_R   0.410173 0.663157 0.571904 0.561978
C53   C     C_R   0.413731 0.874393 0.162161 0.251699
C54   C     C_R   0.324633 0.898422 0.187066 -0.031015
C55   C     C_1   0.342475 0.884720 0.234295 0.070078
C56   C     C_1   0.349945 0.869295 0.273111 0.053159
C57   C     C_R   0.293569 0.906416 0.093443 -0.081919
C58   C     C_R   0.331169 0.337932 0.293254 0.053986
C59   C     C_R   0.366265 0.365522 0.593399 -0.062387
C60   C     C_R   0.437951 0.276459 0.618124 -0.117795
C61   C     C_R   0.416623 0.270348 0.661735 0.236793
C62   C     C_R   0.324329 0.356774 0.680974 0.051218
C63   C     C_R   0.248979 0.443895 0.655796 0.243038
C64   C     C_R   0.402239 0.383601 0.552680 0.547745
C65   C     C_R   0.269090 0.446056 0.611662 -0.116629
C66   C     C_R   0.228597 0.421130 0.838631 -0.144034
C67   C     C_R   0.222649 0.407044 0.883131 -0.029506
C68   C     C_R   0.398578 0.241080 0.879570 0.275021
C69   C     C_R   0.311589 0.331870 0.199329 -0.016155
C70   C     C_R   0.404068 0.256431 0.834722 0.030447
C71   C     C_R   0.315356 0.344457 0.814070 -0.049237
C72   C     C_1   0.310698 0.355013 0.767072 -0.036283
C73   C     C_1   0.312564 0.358059 0.727618 0.033047
C74   C     C_R   0.302123 0.309485 0.902240 0.006149
C75   C     C_1   0.761331 0.376851 0.612610 0.065512
C76   C     C_R   0.712699 0.407998 0.568620 0.547397
C77   C     C_R   0.813009 0.418396 0.728764 0.257268
C78   C     C_R   0.827489 0.404945 0.774741 -0.145947
C79   C     C_R   0.861642 0.217590 0.759538 0.234060
C80   C     C_1   0.299939 0.321463 0.151285 -0.070435
C81   C     C_R   0.841494 0.231351 0.712882 -0.006410
C82   C     C_R   0.818300 0.332695 0.697677 0.025186
C83   C     C_R   0.851734 0.305634 0.790208 -0.007250
C84   C     C_1   0.876017 0.292759 0.837641 -0.007600
C85   C     C_1   0.791310 0.354567 0.650922 0.098706
C86   C     C_1   0.904724 0.282375 0.876900 0.000920
C87   C     C_1   0.403134 0.696840 0.618723 0.058795
C88   C     C_1   0.364490 0.363210 0.381032 0.043637
C89   C     C_R   0.418850 0.674871 0.736540 -0.026368
C90   C     C_R   0.393859 0.708658 0.781930 -0.032522
C91   C     C_1   0.344789 0.351132 0.341385 0.059977
C92   C     C_R   0.333346 0.898674 0.766901 -0.037498
C93   C     C_R   0.352313 0.865673 0.721055 -0.030605
C94   C     C_R   0.393116 0.754307 0.705990 0.043579
C95   C     C_R   0.350413 0.820492 0.796817 0.024304
C96   C     C_1   0.325751 0.855939 0.843221 0.084931
C97   C     C_1   0.398927 0.722903 0.658359 0.079382
C98   C     C_1   0.299868 0.893286 0.880743 0.073652
C99   C     C_R   0.948694 0.273889 0.047881 0.537794
C100  C     C_R   0.232808 0.410888 0.270933 0.244680
C101  C     C_R   0.275308 0.270345 0.065459 0.540069
C102  C     C_1   0.290044 0.303613 0.111382 -0.027948
C103  C     C_R   0.260819 0.953725 0.049127 0.535274
C104  C     C_R   0.952094 0.269083 0.922093 0.537846
C105  C     C_R   0.278133 0.268134 0.940453 0.580247
C106  C     C_R   0.262575 0.949392 0.923266 0.553431
C107  C     C_R   0.224089 0.407728 0.223889 -0.113773
C108  C     C_3   0.061593 0.467500 0.292152 -0.006077
C109  C     C_3   0.971745 0.553847 0.320497 -0.368619
C110  C     C_3   0.718371 0.161694 0.157191 0.009042
C111  C     C_3   0.703904 0.062161 0.160365 -0.347072
C112  C     C_2   0.844098 0.139889 0.064434 0.278352
C113  C     C_R   0.761330 0.369769 0.399454 0.002978
C114  C     C_3   0.833490 0.086664 0.295364 -0.018234
C115  C     C_3   0.895767 0.964016 0.284891 -0.345222
C116  C     C_3   0.135390 0.808494 0.085023 -0.004793
C117  C     C_3   0.030019 0.808361 0.065411 -0.316517
C118  C     C_2   0.123861 0.950364 0.190172 0.260524
C119  C     C_3   0.232059 0.710616 0.270669 0.017111
C120  C     C_3   0.139138 0.707616 0.239586 -0.354556
C121  C     C_3   0.109005 0.830442 0.391480 0.030116
C122  C     C_3   0.027730 0.790059 0.396297 -0.363766
C123  C     C_3   0.532012 0.926370 0.202605 0.025057
Cr1   Cr    Cr6+3 0.581000 0.584320 0.508140 1.034495
Cr2   Cr    Cr6+3 0.339110 0.576430 0.496080 1.029419
Cr3   Cr    Cr6+3 0.579910 0.339270 0.495810 1.027304
Cr4   Cr    Cr6+3 0.082090 0.079210 0.982490 1.052607
Cr5   Cr    Cr6+3 0.082460 0.324610 0.994920 1.072357
Cr6   Cr    Cr6+3 0.323630 0.087860 0.996130 1.055347
H1    H     H_    0.504214 0.798255 0.416219 0.146803
H2    H     H_    0.743842 0.487006 0.304876 0.125657
H3    H     H_    0.695730 0.536193 0.382030 0.148977
H4    H     H_    0.088521 0.386653 0.304990 0.150116
H5    H     H_    0.026465 0.467925 0.256897 0.113773
H6    H     H_    0.941572 0.635209 0.307857 0.141916
H7    H     H_    0.902598 0.535237 0.318641 0.102664
H8    H     H_    0.003678 0.555431 0.356062 0.164616
H9    H     H_    0.674117 0.198724 0.125324 0.138628
H10   H     H_    0.680921 0.221431 0.186056 0.107291
H11   H     H_    0.746733 0.998350 0.133551 0.207549
H12   H     H_    0.149341 0.464726 0.206634 0.094738
H13   H     H_    0.738203 0.028881 0.193520 0.122598
H14   H     H_    0.615896 0.084626 0.156132 0.092951
H15   H     H_    0.825785 0.160662 0.029819 0.084940
H16   H     H_    0.808567 0.124717 0.262928 0.155121
H17   H     H_    0.758674 0.106074 0.311943 0.117110
H18   H     H_    0.972119 0.942052 0.269071 0.236561
H19   H     H_    0.916257 0.921663 0.316082 0.136349
H20   H     H_    0.844925 0.936394 0.261420 0.074026
H21   H     H_    0.165087 0.759523 0.114937 0.094053
H22   H     H_    0.196872 0.768608 0.059304 0.145703
H23   H     H_    0.489972 0.865662 0.343231 0.138874
H24   H     H_    0.997816 0.856053 0.035337 0.198837
H25   H     H_    0.046017 0.723405 0.055413 0.097803
H26   H     H_    0.968195 0.844259 0.090878 0.184484
H27   H     H_    0.055355 0.940636 0.173616 0.167860
H28   H     H_    0.261225 0.644408 0.293799 0.178594
H29   H     H_    0.299818 0.694344 0.249919 0.114656
H30   H     H_    0.104258 0.775248 0.217192 0.139560
H31   H     H_    0.170340 0.629610 0.218453 0.101639
H32   H     H_    0.073785 0.715054 0.259603 0.173131
H33   H     H_    0.071660 0.894826 0.367247 0.183934
H34   H     H_    0.164527 0.491973 0.822764 0.116267
H35   H     H_    0.124993 0.866541 0.424804 0.145540
H36   H     H_    0.062024 0.727207 0.421030 0.168619
H37   H     H_    0.950278 0.858691 0.408003 0.080129
H38   H     H_    0.010129 0.753990 0.363404 0.160237
H39   H     H_    0.473575 0.974403 0.228828 0.124052
H40   H     H_    0.521195 0.981148 0.176525 0.154192
H41   H     H_    0.708087 0.839311 0.198931 0.179492
H42   H     H_    0.659770 0.952608 0.240930 0.075628
H43   H     H_    0.660760 0.827950 0.250460 0.154402
H44   H     H_    0.486551 0.824140 0.051635 0.103914
H45   H     H_    0.211741 0.514357 0.592747 0.149093
H46   H     H_    0.057022 0.550090 0.889903 0.096242
H47   H     H_    0.256155 0.572357 0.717130 0.119959
H48   H     H_    0.115026 0.638089 0.727140 0.145970
H49   H     H_    0.066479 0.731925 0.655970 0.163967
H50   H     H_    0.158114 0.763739 0.694860 0.103627
H51   H     H_    0.210489 0.669287 0.646567 0.150645
H52   H     H_    0.514271 0.203096 0.778234 0.152732
H53   H     H_    0.503777 0.255647 0.953520 0.116322
H54   H     H_    0.584263 0.229055 0.905952 0.138374
H55   H     H_    0.695742 0.035390 0.923842 0.185580
H56   H     H_    0.514220 0.215449 0.604809 0.153249
H57   H     H_    0.699336 0.128297 0.970486 0.084765
H58   H     H_    0.615784 0.062569 0.971349 0.170300
H59   H     H_    0.579033 0.060875 0.642109 0.140616
H60   H     H_    0.442772 0.081927 0.649548 0.173541
H61   H     H_    0.503912 0.020913 0.726570 0.171936
H62   H     H_    0.587287 0.918495 0.685274 0.138853
H63   H     H_    0.639305 0.000986 0.719593 0.173019
H64   H     H_    0.941535 0.463338 0.694230 0.145610
H65   H     H_    0.915166 0.532038 0.750218 0.124046
H66   H     H_    0.787878 0.706976 0.716729 0.159270
H67   H     H_    0.474189 0.198024 0.201810 0.092404
H68   H     H_    0.923285 0.648277 0.696967 0.128804
H69   H     H_    0.814540 0.638382 0.661069 0.172474
H70   H     H_    0.039931 0.084025 0.804975 0.194269
H71   H     H_    0.035204 0.045609 0.745186 0.120442
H72   H     H_    0.986544 0.904095 0.760213 0.143302
H73   H     H_    0.115650 0.883922 0.788443 0.120778
H74   H     H_    0.995414 0.940506 0.819892 0.180508
H75   H     H_    0.849526 0.067949 0.694974 0.150099
H76   H     H_    0.451675 0.501596 0.737314 0.093062
H77   H     H_    0.488277 0.546033 0.810898 0.109932
H78   H     H_    0.820650 0.472367 0.798448 0.130617
H79   H     H_    0.328363 0.060990 0.766911 0.114591
H80   H     H_    0.258027 0.031922 0.695043 0.101552
H81   H     H_    0.594673 0.134899 0.268303 0.073155
H82   H     H_    0.057216 0.390479 0.131753 0.136800
H83   H     H_    0.965232 0.502114 0.168468 0.105704
H84   H     H_    0.933888 0.633702 0.114099 0.161898
H85   H     H_    0.077857 0.554834 0.130086 0.074875
H86   H     H_    0.022292 0.524202 0.076177 0.189917
H87   H     H_    0.835111 0.049330 0.383491 0.152918
H88   H     H_    0.707300 0.170837 0.395369 0.165965
H89   H     H_    0.855156 0.441923 0.189961 0.118740
H90   H     H_    0.754219 0.146169 0.477134 0.189742
H91   H     H_    0.752619 0.027827 0.446522 0.094928
H92   H     H_    0.881442 0.026113 0.464744 0.151740
O1    O     O_R   0.688580 0.499770 0.460490 -0.522298
O2    O     O_R   0.346150 0.177650 0.050510 -0.508336
O3    O     O_R   0.314200 0.996600 0.036060 -0.520370
O4    O     O_R   0.480400 0.672610 0.462660 -0.506911
O5    O     O_R   0.168690 0.969990 0.933130 -0.508885
O6    O     O_R   0.991920 0.175870 0.937430 -0.496908
O7    O     O_R   0.974010 0.342590 0.941330 -0.504138
O8    O     O_R   0.182630 0.317940 0.955040 -0.460268
O9    O     O_R   0.347320 0.174720 0.953250 -0.465692
O10   O     O_R   0.315290 0.993890 0.945900 -0.485196
O11   O     O_3   0.162730 0.163890 0.991180 -0.260012
O12   O     O_R   0.348600 0.476260 0.536540 -0.520731
O13   O     O_R   0.315310 0.685650 0.451800 -0.462166
O14   O     O_R   0.346220 0.474990 0.446280 -0.488534
O15   O     O_R   0.492270 0.312460 0.441630 -0.505200
O16   O     O_R   0.669740 0.350480 0.455640 -0.486889
O17   O     O_R   0.691150 0.501150 0.557860 -0.511928
O18   O     O_R   0.482790 0.673890 0.552920 -0.474628
O19   O     O_R   0.317880 0.687030 0.549170 -0.516575
O20   O     O_3   0.149363 0.491675 0.295358 -0.565247
O21   O     O_3   0.831298 0.128743 0.158431 -0.514129
O22   O     O_2   0.848604 0.055174 0.073051 -0.493115
O23   O     O_R   0.494840 0.313840 0.539010 -0.508263
O24   O     O_3   0.901738 0.121332 0.323291 -0.521958
O25   O     O_3   0.115536 0.916854 0.096837 -0.513040
O26   O     O_2   0.115738 0.991450 0.228660 -0.469459
O27   O     O_3   0.193907 0.814362 0.294256 -0.526708
O28   O     O_3   0.206284 0.741483 0.376412 -0.531137
O29   O     O_3   0.517499 0.836689 0.183468 -0.513722
O30   O     O_2   0.580486 0.837085 0.104194 -0.478268
O31   O     O_2   0.145529 0.517843 0.948211 -0.502582
O32   O     O_3   0.152957 0.524677 0.673175 -0.573193
O33   O     O_2   0.566914 0.090964 0.821802 -0.465657
O34   O     O_R   0.672120 0.351750 0.545910 -0.487206
O35   O     O_3   0.484896 0.154339 0.900064 -0.482464
O36   O     O_3   0.491761 0.188430 0.688298 -0.573163
O37   O     O_3   0.784074 0.519040 0.714219 -0.530165
O38   O     O_3   0.885430 0.119496 0.775324 -0.565611
O39   O     O_2   0.841827 0.139132 0.641023 -0.526052
O40   O     O_2   0.528216 0.518432 0.690167 -0.495326
O41   O     O_2   0.356259 0.644805 0.843463 -0.515481
O42   O     O_2   0.241936 0.060669 0.814213 -0.539955
O43   O     O_2   0.373626 0.929152 0.655300 -0.522763
O44   O     O_2   0.537122 0.159748 0.328115 -0.538077
O45   O     O_3   0.500010 0.500010 0.500010 -0.274331
O46   O     O_3   0.891598 0.466107 0.108983 -0.511587
O47   O     O_3   0.853661 0.179937 0.414441 -0.544320
O48   O     O_R   0.167510 0.972920 0.030390 -0.444717
O49   O     O_R   0.990840 0.178580 0.027590 -0.509272
O50   O     O_R   0.972840 0.345510 0.038590 -0.455708
O51   O     O_R   0.181550 0.320660 0.045200 -0.501673

loop_
_geom_bond_atom_site_label_1
_geom_bond_atom_site_label_2
_ccdc_geom_bond_type
C8    H52   S    
C13   O24   S    
C55   C56   T    
C63   C65   A    
C93   C94   A    
C122  H37   S    
Cr2   O45   S    
C109  H6    S    
C10   H55   S    
C95   C96   S    
C20   H77   S    
C5    C67   S    
C86   C104  S    
Cr2   O14   S    
C116  H21   S    
C114  C115  S    
C69   C107  A    
C90   C95   A    
C77   C78   A    
C108  C109  S    
Cr6   O11   S    
C59   C64   S    
C44   H23   S    
C33   O46   S    
C26   H84   S    
C19   C89   S    
C11   O36   S    
C21   H79   S    
C13   C29   A    
C110  H10   S    
C35   C37   A    
C84   C86   T    
C119  H29   S    
C38   C39   T    
C65   H45   S    
C2    C113  A    
C3    H43   S    
C114  O24   S    
C68   C74   A    
C30   H2    S    
C22   H80   S    
C115  H18   S    
C48   O28   S    
C18   C81   S    
C34   C112  S    
C116  C117  S    
C36   C47   A    
C109  H8    S    
C34   C35   A    
C7    H51   S    
C99   O50   A    
C89   C94   A    
C17   H74   S    
C76   O34   A    
C68   O35   S    
C78   H78   S    
C92   C93   A    
C9    H53   S    
C52   O18   A    
C20   O41   D    
C106  O10   A    
C110  C111  S    
C78   C83   A    
C75   C85   T    
C112  O22   D    
C27   O47   S    
C45   C56   S    
C3    C123  S    
C16   C17   S    
C79   C83   A    
Cr4   O49   S    
C96   C98   T    
C108  O20   S    
C117  H26   S    
C120  H30   S    
C106  O5    A    
C62   C73   S    
C118  H27   S    
Cr3   O34   S    
C51   C57   A    
C61   O36   S    
C107  H12   S    
C29   C30   A    
Cr3   O15   S    
C58   C91   S    
C18   O39   D    
C111  H13   S    
C60   H56   S    
C119  H28   S    
C15   H66   S    
C101  O2    A    
C66   C67   A    
C14   H65   S    
C59   C60   A    
C28   H91   S    
C122  H36   S    
C109  H7    S    
Cr4   O6    S    
C10   H57   S    
C5    H46   S    
C5    O31   D    
C115  H20   S    
C17   H73   S    
C34   C41   A    
Cr6   O3    S    
C12   H63   S    
C25   O46   S    
C21   O42   D    
C111  H11   S    
C104  O7    A    
Cr5   O51   S    
C52   C87   S    
C57   C103  S    
C101  O51   A    
C46   C48   A    
C23   C47   S    
C4    C51   S    
C11   H59   S    
C101  C102  S    
Cr1   O4    S    
C110  H9    S    
C58   C100  A    
C114  H17   S    
C123  O29   S    
C14   O37   S    
C22   O43   D    
C79   C81   A    
C16   O38   S    
C118  O26   D    
C28   H92   S    
C87   C97   T    
C94   C97   S    
C25   C26   S    
C53   C54   A    
C121  H35   S    
C20   C90   S    
C115  H19   S    
C23   O44   D    
C40   C113  S    
C81   C82   A    
C7    H49   S    
C40   O1    A    
C60   C61   A    
C51   C53   A    
C105  O8    A    
C25   H83   S    
C75   C76   S    
C36   H67   S    
C108  H5    S    
C37   C38   S    
C24   O15   A    
C76   O17   A    
C103  O3    A    
C19   O40   D    
Cr1   O17   S    
C110  O21   S    
C121  O28   S    
C66   C71   A    
C88   C91   T    
C1    O13   A    
Cr5   O7    S    
C2    O47   S    
C29   C39   S    
C62   C63   A    
C25   H82   S    
C10   H58   S    
C7    H50   S    
C67   C74   A    
C42   C48   A    
C32   C37   A    
C17   H72   S    
C24   C88   S    
C121  C122  S    
C123  H40   S    
Cr2   O19   S    
C120  H32   S    
C123  H39   S    
C68   C70   A    
C9    H54   S    
C14   H64   S    
C116  O25   S    
C27   H88   S    
C28   H90   S    
C4    H44   S    
C6    H48   S    
Cr3   O23   S    
C27   H87   S    
Cr5   O50   S    
C83   C84   S    
C9    O35   S    
C42   C43   A    
Cr5   O8    S    
C103  O48   A    
C27   C28   S    
C70   C71   A    
C36   C69   A    
C104  O6    A    
C120  H31   S    
C9    C10   S    
C1    O4    A    
C15   H69   S    
C12   H62   S    
C54   C55   S    
C100  C107  A    
C122  H38   S    
C114  H16   S    
C16   H70   S    
C50   C57   A    
C43   H1    S    
C44   C45   A    
C4    O30   D    
Cr1   O1    S    
C72   C73   T    
C16   H71   S    
C41   C99   S    
C119  C120  S    
C3    H41   S    
C6    C7    S    
C64   O23   A    
C23   H81   S    
C111  H14   S    
C82   C85   S    
C12   H61   S    
Cr6   O10   S    
C99   O49   A    
C8    C70   S    
C98   C106  S    
C26   H85   S    
C77   O37   S    
C33   C41   A    
C105  O9    A    
C112  H15   S    
C79   O38   S    
C108  H4    S    
C24   O14   A    
C32   C33   A    
C74   C105  S    
C117  H24   S    
Cr1   O45   S    
C40   O16   A    
C3    H42   S    
C31   H3    S    
C63   O32   S    
C6    H47   S    
C77   C82   A    
C43   C44   A    
C119  O27   S    
C15   H68   S    
C121  H33   S    
Cr6   O9    S    
C8    O33   D    
Cr4   O11   S    
C22   C93   S    
Cr4   O5    S    
C66   H34   S    
Cr1   O18   S    
C53   O29   S    
C92   C95   A    
C61   C62   A    
C30   C31   A    
C32   H89   S    
Cr2   O12   S    
C52   O19   A    
C46   O27   S    
C26   H86   S    
C49   C118  S    
C45   C46   A    
C1    C42   S    
C64   O12   A    
C2    C13   A    
C71   C72   S    
C6    O32   S    
C35   O21   S    
Cr5   O11   S    
C49   C50   A    
Cr4   O48   S    
C80   C102  T    
C117  H25   S    
C19   H76   S    
C14   C15   S    
Cr3   O45   S    
C69   C80   S    
C18   H75   S    
Cr2   O13   S    
C11   H60   S    
C89   C90   A    
C50   O25   S    
Cr3   O16   S    
Cr6   O2    S    
C31   C113  A    
C116  H22   S    
C59   C65   A    
C100  O20   S    
C49   C54   A    
C11   C12   S    
C47   C58   A    
C21   C92   S    
