data_mof_unit_45941.cif
_audit_creation_date              2012-10-26T18:50:25-0400
_audit_creation_method            fapswitch 2.2
_symmetry_space_group_name_H-M    P1
_symmetry_Int_Tables_number       1
_space_group_crystal_system       triclinic
_cell_length_a                    9.608521
_cell_length_b                    10.775109
_cell_length_c                    15.47172
_cell_angle_alpha                 87.12903
_cell_angle_beta                  74.319706
_cell_angle_gamma                 89.903513
_cell_volume                      1540.16617438

loop_
_atom_site_label
_atom_site_type_symbol
_atom_type_description
_atom_site_fract_x
_atom_site_fract_y
_atom_site_fract_z
_atom_type_partial_charge
C1    C     C_R   0.998719 0.262567 0.503244 0.539901
C2    C     C_R   0.240999 0.564299 0.042611 -0.010523
C3    C     C_R   0.334455 0.517435 0.092472 0.022682
C4    C     C_R   0.918409 0.498049 0.672048 0.533150
C5    C     C_R   0.092013 0.568068 0.082058 -0.139039
C6    C     C_R   0.032948 0.532860 0.172873 0.045954
C7    C     C_R   0.275977 0.492425 0.185451 -0.151894
C8    C     C_R   0.083988 0.118698 0.645958 -0.107605
C9    C     C_R   0.126769 0.048818 0.712428 -0.120236
C10   C     C_R   0.126576 0.919754 0.712454 -0.102700
C11   C     C_R   0.083715 0.859745 0.645951 -0.081298
C12   C     C_R   0.682235 0.511823 0.909582 0.046933
C13   C     C_R   0.042324 0.928668 0.576826 0.031745
C14   C     C_R   0.042480 0.059964 0.576848 0.026987
C15   C     C_R   0.996057 0.128302 0.509394 0.002631
C16   C     C_R   0.998679 0.737030 0.502882 0.525843
C17   C     C_R   0.944435 0.068044 0.446306 -0.143723
C18   C     C_R   0.944343 0.940049 0.446241 -0.151993
C19   C     C_R   0.995745 0.870357 0.509315 0.009929
C20   C     C_R   0.693540 0.673127 0.386541 -0.053417
C21   C     C_R   0.644065 0.763752 0.335537 -0.150191
C22   C     C_R   0.501105 0.763191 0.334407 -0.172867
C23   C     C_R   0.776676 0.460587 0.957653 0.049425
C24   C     C_R   0.406323 0.673596 0.385705 -0.090050
C25   C     C_R   0.449651 0.585383 0.444068 0.159685
C26   C     C_R   0.599040 0.585239 0.444222 0.173436
C27   C     C_R   0.550696 0.419167 0.553541 0.013840
C28   C     C_R   0.081587 0.498772 0.327362 0.538347
C29   C     C_R   0.402849 0.419267 0.553579 0.008592
C30   C     C_R   0.874214 0.492405 0.770609 -0.001957
C31   C     C_R   0.127544 0.504192 0.227339 -0.026381
C32   C     C_R   0.921633 0.437834 0.913243 -0.138280
C33   C     C_R   0.971222 0.457081 0.820268 -0.137786
C34   C     C_R   0.538258 0.543918 0.956342 0.014228
C35   C     C_R   0.730508 0.516630 0.815369 -0.087938
C36   C     C_2   0.873397 0.527618 0.205610 0.543612
C37   C     C_2   0.499196 0.706160 0.837654 0.549443
C38   C     C_R   0.483392 0.501005 0.048129 0.017384
C39   C     C_R   0.578236 0.439971 0.091749 -0.125841
C40   C     C_R   0.723201 0.424752 0.048044 -0.098558
C41   C     C_R   0.445725 0.615030 0.914959 0.039106
C42   C     C_R   0.297145 0.613412 0.955145 -0.136223
Cu1   Cu    Cu3+1 0.140660 0.499990 0.500010 0.920224
Cu2   Cu    Cu3+1 0.859340 0.500010 0.499990 0.970997
H1    H     H_    0.792327 0.378164 0.083994 0.144444
H2    H     H_    0.807378 0.673762 0.376186 0.177390
H3    H     H_    0.718889 0.831151 0.293204 0.144815
H4    H     H_    0.345823 0.469739 0.227680 0.134866
H5    H     H_    0.463974 0.830682 0.291622 0.134330
H6    H     H_    0.301120 0.677550 0.376080 0.184821
H7    H     H_    0.328674 0.353127 0.597576 0.107031
H8    H     H_    0.225430 0.660298 0.920997 0.150474
H9    H     H_    0.995418 0.401681 0.950092 0.111243
H10   H     H_    0.082823 0.437112 0.786971 0.130609
H11   H     H_    0.655156 0.533358 0.775669 0.147128
H12   H     H_    0.021065 0.598175 0.041358 0.151615
H13   H     H_    0.543611 0.400726 0.159638 0.124548
H14   H     H_    0.684379 0.601930 0.197410 0.341205
H15   H     H_    0.465430 0.792844 0.726516 0.343306
H16   H     H_    0.907123 0.120642 0.395462 0.144613
H17   H     H_    0.081148 0.218460 0.650642 0.123498
H18   H     H_    0.158289 0.095013 0.764869 0.116926
H19   H     H_    0.157821 0.865785 0.764969 0.152274
H20   H     H_    0.080816 0.759387 0.650617 0.154585
H21   H     H_    0.907183 0.895135 0.395267 0.111165
H22   H     H_    0.586720 0.352884 0.597495 0.117440
N1    N     N_R   0.648320 0.501210 0.499140 -0.236222
N2    N     N_R   0.352470 0.501290 0.499110 -0.241414
O1    O     O_R   0.118810 0.319640 0.500010 -0.502858
O2    O     O_R   0.792181 0.618593 0.174530 -0.719957
O3    O     O_2   0.611492 0.764484 0.829621 -0.507518
O4    O     O_R   0.418548 0.728240 0.775631 -0.728229
O5    O     O_R   0.881240 0.319660 0.500000 -0.492203
O6    O     O_R   0.055570 0.499980 0.629840 -0.514312
O7    O     O_R   0.818000 0.500010 0.629830 -0.501609
O8    O     O_R   0.118760 0.680340 0.500000 -0.528527
O9    O     O_R   0.881190 0.680360 0.499990 -0.518023
O10   O     O_R   0.182000 0.499990 0.370170 -0.527493
O11   O     O_R   0.944430 0.500020 0.370160 -0.470199
O12   O     O_2   0.812483 0.439424 0.253717 -0.515337

loop_
_geom_bond_atom_site_label_1
_geom_bond_atom_site_label_2
_ccdc_geom_bond_type
C27   C29   A    
C41   C42   A    
C5    H12   S    
C10   H19   S    
Cu1   O10   S    
C25   N2    A    
C12   C23   A    
C30   C35   A    
C26   N1    A    
Cu2   O9    S    
C18   C19   A    
C3    C7    A    
C5    C6    A    
C23   C40   A    
C39   H13   S    
C33   H10   S    
C16   O9    A    
C28   O11   A    
C4    O7    A    
C3    C38   A    
C8    C9    A    
C1    C15   S    
C28   O10   A    
C9    C10   A    
C4    O6    A    
H15   O4    S    
Cu1   O6    S    
C6    C31   A    
Cu1   O1    S    
C34   C38   A    
C13   C14   A    
C34   C41   A    
C36   O2    S    
Cu2   O11   S    
C24   H6    S    
C40   H1    S    
C7    C31   A    
C13   C19   A    
C35   H11   S    
C9    H18   S    
C24   C25   A    
C11   H20   S    
C36   O12   D    
C39   C40   A    
H14   O2    S    
C25   C26   A    
C1    O1    A    
C18   H21   S    
Cu2   O7    S    
Cu1   Cu2   S    
C29   N2    A    
C17   C18   A    
C12   C35   A    
C22   H5    S    
C37   O3    D    
C22   C24   A    
C2    C5    A    
C12   C34   A    
C32   H9    S    
C29   H7    S    
Cu1   O8    S    
C15   C17   A    
C8    C14   A    
C30   C33   A    
C16   O8    A    
C28   C31   S    
C23   C32   A    
C8    H17   S    
C1    O5    A    
C32   C33   A    
C2    C3    A    
C27   H22   S    
C7    H4    S    
C11   C13   A    
C38   C39   A    
C20   C26   A    
C2    C42   A    
C16   C19   S    
C6    C36   S    
C37   C41   S    
Cu2   O5    S    
C20   H2    S    
C27   N1    A    
C10   C11   A    
C17   H16   S    
C20   C21   A    
C37   O4    S    
C14   C15   A    
Cu2   N1    S    
C21   C22   A    
C4    C30   S    
C42   H8    S    
C21   H3    S    
Cu1   N2    S    
