data_mof_unit_57977.cif
_audit_creation_date              2012-12-11T15:22:28-0500
_audit_creation_method            fapswitch 2.2
_symmetry_space_group_name_H-M    P1
_symmetry_Int_Tables_number       1
_space_group_crystal_system       triclinic
_cell_length_a                    22.439013
_cell_length_b                    12.976186
_cell_length_c                    27.032089
_cell_angle_alpha                 90.114465
_cell_angle_beta                  90.549129
_cell_angle_gamma                 89.983463
_cell_volume                      7870.63172955

loop_
_atom_site_label
_atom_site_type_symbol
_atom_type_description
_atom_site_fract_x
_atom_site_fract_y
_atom_site_fract_z
_atom_type_partial_charge
C1    C     C_R   0.720346 0.344057 0.177916 0.580506
C2    C     C_R   0.279593 0.344763 0.821792 0.608726
C3    C     C_R   0.220344 0.844062 0.177914 0.580333
C4    C     C_R   0.779595 0.844759 0.821794 0.608678
C5    C     C_R   0.474615 0.166575 0.871860 0.025539
C6    C     C_R   0.524461 0.165442 0.128534 0.023343
C7    C     C_R   0.974564 0.666536 0.871883 0.025451
C8    C     C_R   0.024411 0.665471 0.128557 0.023377
C9    C     C_R   0.518933 0.261378 0.104149 0.252030
C10   C     C_R   0.477079 0.262233 0.897077 0.249595
C11   C     C_R   0.018936 0.761403 0.104157 0.251979
C12   C     C_R   0.977094 0.762205 0.897084 0.249680
C13   C     C_R   0.506619 0.264033 0.052672 -0.032111
C14   C     C_R   0.488837 0.264580 0.948625 -0.035844
C15   C     C_R   0.006593 0.764046 0.052685 -0.032052
C16   C     C_R   0.988817 0.764560 0.948637 -0.035759
C17   C     C_R   0.502594 0.170085 0.026198 -0.035386
C18   C     C_R   0.495403 0.170428 0.974369 -0.045969
C19   C     C_R   0.002481 0.670087 0.026230 -0.035283
C20   C     C_R   0.995290 0.670408 0.974401 -0.046059
C21   C     C_R   0.500107 0.357527 0.026630 0.493044
C22   C     C_R   0.492524 0.357855 0.975404 0.494366
C23   C     C_R   0.000144 0.857537 0.026629 0.492989
C24   C     C_R   0.992567 0.857846 0.975403 0.494556
C25   C     C_R   0.741601 0.949350 0.131104 -0.021724
C26   C     C_R   0.259719 0.951483 0.869281 -0.018154
C27   C     C_R   0.241584 0.449402 0.131090 -0.021667
C28   C     C_R   0.759680 0.451431 0.869269 -0.018269
C29   C     C_R   0.799328 0.947411 0.109841 0.204778
C30   C     C_R   0.202199 0.945538 0.890726 0.237308
C31   C     C_R   0.299322 0.447326 0.109852 0.204896
C32   C     C_R   0.702171 0.445896 0.890773 0.237122
C33   C     C_R   0.805262 0.928751 0.059242 0.488523
C34   C     C_R   0.197066 0.927372 0.941466 0.439753
C35   C     C_R   0.305271 0.428674 0.059253 0.488806
C36   C     C_R   0.697062 0.427838 0.941522 0.439676
C37   C     C_R   0.755263 0.905109 0.029971 -0.009689
C38   C     C_R   0.247980 0.910298 0.970709 -0.008685
C39   C     C_R   0.255270 0.405204 0.029957 -0.009512
C40   C     C_R   0.747977 0.410406 0.970716 -0.008781
C41   C     C_R   0.699405 0.896409 0.051623 -0.184022
C42   C     C_R   0.303926 0.906825 0.948900 -0.128361
C43   C     C_R   0.199390 0.396664 0.051579 -0.183999
C44   C     C_R   0.803891 0.406457 0.948848 -0.128347
C45   C     C_R   0.553349 0.157590 0.177634 0.569305
C46   C     C_R   0.446428 0.157820 0.822502 0.563030
C47   C     C_R   0.053340 0.657595 0.177639 0.569334
C48   C     C_R   0.946419 0.657814 0.822507 0.562946
C49   C     C_R   0.691824 0.917700 0.102002 0.213232
C50   C     C_R   0.310505 0.925443 0.898397 0.192300
C51   C     C_R   0.191797 0.417936 0.101958 0.213153
C52   C     C_R   0.810448 0.425005 0.898332 0.192415
C53   C     C_R   0.727682 0.951117 0.943589 -0.107721
C54   C     C_R   0.215534 0.971329 0.053186 -0.065039
C55   C     C_R   0.227856 0.451407 0.943573 -0.107658
C56   C     C_R   0.715824 0.471649 0.053248 -0.064969
C57   C     C_R   0.732425 0.937389 0.892535 0.377412
C58   C     C_R   0.211125 0.959215 0.104206 0.371253
C59   C     C_R   0.232591 0.437652 0.892521 0.377410
C60   C     C_R   0.711395 0.459444 0.104265 0.371414
C61   C     C_R   0.802382 0.797563 0.906940 -0.181964
C62   C     C_R   0.266686 0.799130 0.098544 -0.184067
C63   C     C_R   0.302228 0.297407 0.906940 -0.182067
C64   C     C_R   0.766401 0.298792 0.098484 -0.183979
C65   C     C_R   0.797898 0.810604 0.958169 0.280174
C66   C     C_R   0.269999 0.809467 0.047128 0.224994
C67   C     C_R   0.297766 0.310493 0.958168 0.280008
C68   C     C_R   0.769719 0.309218 0.047073 0.225203
C69   C     C_R   0.760747 0.888846 0.976444 0.050061
C70   C     C_R   0.243815 0.896042 0.024424 0.036522
C71   C     C_R   0.260771 0.388942 0.976433 0.050125
C72   C     C_R   0.743834 0.396136 0.024432 0.036474
C73   C     C_R   0.770157 0.860914 0.874329 0.025397
C74   C     C_R   0.235957 0.872011 0.127141 -0.009965
C75   C     C_R   0.270145 0.360937 0.874323 0.025371
C76   C     C_R   0.735954 0.371939 0.127137 -0.009898
C77   C     C_R   0.531629 0.169699 0.372201 -0.095168
C78   C     C_R   0.472233 0.168654 0.629130 -0.100528
C79   C     C_R   0.031630 0.669699 0.372201 -0.095161
C80   C     C_R   0.972233 0.668654 0.629130 -0.100529
C81   C     C_R   0.552390 0.251479 0.401843 -0.103568
C82   C     C_R   0.460376 0.257312 0.600981 -0.112074
C83   C     C_R   0.052391 0.751478 0.401843 -0.103567
C84   C     C_R   0.960377 0.757313 0.600981 -0.112072
C85   C     C_R   0.541837 0.252565 0.452423 0.375104
C86   C     C_R   0.472993 0.259294 0.550723 0.391761
C87   C     C_R   0.041838 0.752564 0.452423 0.375102
C88   C     C_R   0.972994 0.759294 0.550723 0.391761
C89   C     C_R   0.731509 0.000611 0.179475 0.558300
C90   C     C_R   0.268635 0.000913 0.820533 0.551524
C91   C     C_R   0.231505 0.500623 0.179471 0.558366
C92   C     C_R   0.768628 0.500896 0.820529 0.551527
C93   C     C_R   0.508735 0.173118 0.474100 0.095230
C94   C     C_R   0.498934 0.173180 0.527913 0.094231
C95   C     C_R   0.008734 0.673118 0.474100 0.095227
C96   C     C_R   0.998934 0.673180 0.527913 0.094232
C97   C     C_R   0.485315 0.093719 0.444118 0.390408
C98   C     C_R   0.514413 0.086806 0.556655 0.381709
C99   C     C_R   0.985314 0.593720 0.444118 0.390409
C100  C     C_R   0.014412 0.586804 0.556655 0.381707
C101  C     C_R   0.497485 0.091386 0.393553 -0.104804
C102  C     C_R   0.500597 0.084321 0.606866 -0.081065
C103  C     C_R   0.997484 0.591387 0.393552 -0.104799
C104  C     C_R   0.000596 0.584320 0.606866 -0.081062
C105  C     C_R   0.740236 0.956568 0.371983 0.000488
C106  C     C_R   0.259025 0.953785 0.628545 0.001440
C107  C     C_R   0.240235 0.456571 0.371983 0.000483
C108  C     C_R   0.759027 0.453788 0.628545 0.001433
C109  C     C_R   0.796514 0.956751 0.395268 0.359513
C110  C     C_R   0.307432 0.908125 0.603803 0.363170
C111  C     C_R   0.296513 0.456748 0.395268 0.359510
C112  C     C_R   0.807436 0.408138 0.603801 0.363166
C113  C     C_R   0.801059 0.938801 0.446453 0.311815
C114  C     C_R   0.304357 0.892212 0.552581 0.261960
C115  C     C_R   0.301058 0.438798 0.446453 0.311813
C116  C     C_R   0.804362 0.392227 0.552579 0.261959
C117  C     C_R   0.748612 0.922341 0.473505 0.045356
C118  C     C_R   0.251480 0.917837 0.527134 0.050683
C119  C     C_R   0.248612 0.422343 0.473505 0.045357
C120  C     C_R   0.751482 0.417844 0.527133 0.050683
C121  C     C_R   0.693541 0.913891 0.449337 -0.190574
C122  C     C_R   0.201516 0.952891 0.552692 -0.120853
C123  C     C_R   0.193540 0.413902 0.449338 -0.190577
C124  C     C_R   0.701518 0.452888 0.552691 -0.120855
C125  C     C_R   0.689419 0.929820 0.398934 -0.198414
C126  C     C_R   0.205293 0.971260 0.603081 -0.198181
C127  C     C_R   0.189418 0.429831 0.398936 -0.198424
C128  C     C_R   0.705294 0.471256 0.603081 -0.198188
C129  C     C_R   0.776100 0.991099 0.557037 0.304285
C130  C     C_R   0.231060 0.990405 0.443141 0.268019
C131  C     C_R   0.276100 0.491098 0.557038 0.304274
C132  C     C_R   0.731056 0.490408 0.443140 0.268015
C133  C     C_R   0.721024 0.346793 0.321810 0.586085
C134  C     C_R   0.278804 0.347171 0.678220 0.592103
C135  C     C_R   0.221024 0.846792 0.321810 0.586035
C136  C     C_R   0.778804 0.847171 0.678220 0.592096
C137  C     C_R   0.783743 0.973332 0.608440 0.237764
C138  C     C_R   0.222831 0.973319 0.391667 0.242694
C139  C     C_R   0.283742 0.473332 0.608440 0.237766
C140  C     C_R   0.722826 0.473320 0.391666 0.242700
C141  C     C_R   0.728640 0.812254 0.599297 -0.172449
C142  C     C_R   0.258302 0.797025 0.402778 -0.170522
C143  C     C_R   0.228642 0.312252 0.599296 -0.172455
C144  C     C_R   0.758311 0.297034 0.402777 -0.170529
C145  C     C_R   0.724907 0.826449 0.548850 -0.157226
C146  C     C_R   0.261689 0.811322 0.453078 -0.104114
C147  C     C_R   0.224909 0.326448 0.548850 -0.157226
C148  C     C_R   0.761698 0.311332 0.453076 -0.104113
C149  C     C_R   0.750523 0.913163 0.527361 0.087449
C150  C     C_R   0.247760 0.906806 0.473512 0.097763
C151  C     C_R   0.250525 0.413163 0.527361 0.087451
C152  C     C_R   0.747763 0.406812 0.473511 0.097759
C153  C     C_R   0.760557 0.882200 0.629011 0.032374
C154  C     C_R   0.237354 0.876171 0.372016 0.035574
C155  C     C_R   0.260558 0.382200 0.629011 0.032377
C156  C     C_R   0.737355 0.376176 0.372015 0.035565
C157  C     C_R   0.554976 0.159021 0.321926 0.549137
C158  C     C_R   0.445549 0.158803 0.678324 0.553650
C159  C     C_R   0.054976 0.659021 0.321926 0.549118
C160  C     C_R   0.945549 0.658802 0.678324 0.553693
C161  C     C_R   0.731698 0.002101 0.323031 0.574926
C162  C     C_R   0.268282 0.001644 0.677039 0.567373
C163  C     C_R   0.231698 0.502101 0.323031 0.574900
C164  C     C_R   0.768283 0.501644 0.677039 0.567375
C165  C     C_R   0.514213 0.073854 0.102340 -0.151218
C166  C     C_R   0.487185 0.075320 0.897397 -0.139519
C167  C     C_R   0.014058 0.573887 0.102387 -0.151164
C168  C     C_R   0.987009 0.575258 0.897448 -0.139700
C169  C     C_R   0.506034 0.075113 0.051413 0.020449
C170  C     C_R   0.494831 0.075940 0.948397 0.014575
C171  C     C_R   0.005844 0.575126 0.051463 0.020467
C172  C     C_R   0.994631 0.575899 0.948449 0.014554
C173  C     C_R   0.499431 0.982508 0.973928 -0.109953
C174  C     C_R   0.503996 0.982050 0.025176 -0.109005
C175  C     C_R   0.999131 0.482472 0.973998 -0.109876
C176  C     C_R   0.003705 0.482045 0.025245 -0.109055
Cr1   Cr    Cr6+3 0.756570 0.170940 0.251190 1.090863
Cr2   Cr    Cr6+3 0.243430 0.170940 0.748810 1.071546
Cr3   Cr    Cr6+3 0.256570 0.670940 0.251190 1.090782
Cr4   Cr    Cr6+3 0.743430 0.670940 0.748810 1.071633
Cr5   Cr    Cr6+3 0.623740 0.299110 0.249580 1.137884
Cr6   Cr    Cr6+3 0.376260 0.299110 0.750420 1.115302
Cr7   Cr    Cr6+3 0.123740 0.799110 0.249580 1.138019
Cr8   Cr    Cr6+3 0.876260 0.799110 0.750420 1.115231
Cr9   Cr    Cr6+3 0.625990 0.036240 0.250480 1.090404
Cr10  Cr    Cr6+3 0.374010 0.036240 0.749520 1.144770
Cr11  Cr    Cr6+3 0.125990 0.536240 0.250480 1.090404
Cr12  Cr    Cr6+3 0.874010 0.536240 0.749520 1.144754
H1    H     H_    0.486161 0.001991 0.878113 0.168584
H2    H     H_    0.517687 0.000130 0.120949 0.164972
H3    H     H_    0.985920 0.501911 0.878182 0.168596
H4    H     H_    0.017482 0.500171 0.121011 0.164909
H5    H     H_    0.831225 0.737977 0.892271 0.095955
H6    H     H_    0.284756 0.730317 0.115691 0.157131
H7    H     H_    0.330952 0.237659 0.892276 0.096129
H8    H     H_    0.784234 0.229736 0.115584 0.156942
H9    H     H_    0.661315 0.875185 0.028816 0.132440
H10   H     H_    0.343065 0.892940 0.971760 0.164078
H11   H     H_    0.161297 0.375578 0.028751 0.132423
H12   H     H_    0.843026 0.392233 0.971668 0.164021
H13   H     H_    0.580224 0.311469 0.386519 0.176942
H14   H     H_    0.437685 0.322897 0.617012 0.184814
H15   H     H_    0.080227 0.811467 0.386520 0.176942
H16   H     H_    0.937687 0.822898 0.617012 0.184814
H17   H     H_    0.510207 0.015230 0.627906 0.189298
H18   H     H_    0.481464 0.027402 0.371334 0.177074
H19   H     H_    0.010205 0.515229 0.627906 0.189299
H20   H     H_    0.981462 0.527404 0.371334 0.177080
H21   H     H_    0.498495 0.909608 0.954295 0.134934
H22   H     H_    0.507086 0.908821 0.044244 0.131962
H23   H     H_    0.998126 0.409557 0.954379 0.134739
H24   H     H_    0.006732 0.408822 0.044327 0.132065
H25   H     H_    0.703686 0.767671 0.526249 0.174762
H26   H     H_    0.274349 0.746911 0.476295 0.202088
H27   H     H_    0.203689 0.267670 0.526248 0.174763
H28   H     H_    0.774364 0.246924 0.476293 0.202093
H29   H     H_    0.710857 0.741379 0.614300 0.165370
H30   H     H_    0.267857 0.720805 0.388402 0.168623
H31   H     H_    0.210861 0.241377 0.614300 0.165369
H32   H     H_    0.767871 0.220816 0.388400 0.168631
H33   H     H_    0.653189 0.899516 0.469932 0.188496
H34   H     H_    0.160215 0.969568 0.533194 0.213132
H35   H     H_    0.153189 0.399533 0.469935 0.188499
H36   H     H_    0.660215 0.469558 0.533195 0.213135
H37   H     H_    0.645517 0.928818 0.381910 0.177936
H38   H     H_    0.167226 0.004788 0.621482 0.170542
H39   H     H_    0.145515 0.428836 0.381913 0.177936
H40   H     H_    0.667226 0.504777 0.621482 0.170537
H41   H     H_    0.698781 0.011109 0.957655 0.158094
H42   H     H_    0.196314 0.039077 0.035921 0.190477
H43   H     H_    0.199079 0.511565 0.957634 0.158184
H44   H     H_    0.696823 0.539635 0.036027 0.190232
O1    O     O_R   0.769900 0.064540 0.196060 -0.512188
O2    O     O_R   0.230100 0.064540 0.803940 -0.508865
O3    O     O_R   0.269900 0.564540 0.196060 -0.512164
O4    O     O_R   0.730100 0.564540 0.803940 -0.508797
O5    O     O_R   0.574760 0.239320 0.300850 -0.496526
O6    O     O_R   0.425240 0.239320 0.699150 -0.507133
O7    O     O_R   0.074760 0.739320 0.300850 -0.496542
O8    O     O_R   0.925240 0.739320 0.699150 -0.507096
O9    O     O_R   0.566290 0.069580 0.305400 -0.511784
O10   O     O_R   0.433710 0.069580 0.694600 -0.469552
O11   O     O_R   0.066290 0.569580 0.305400 -0.511801
O12   O     O_R   0.933710 0.569580 0.694600 -0.469521
O13   O     O_R   0.680760 0.993330 0.302620 -0.519544
O14   O     O_R   0.319240 0.993330 0.697380 -0.422612
O15   O     O_R   0.180760 0.493330 0.302620 -0.519576
O16   O     O_R   0.819240 0.493330 0.697380 -0.422582
O17   O     O_3   0.668770 0.168760 0.250420 -0.301237
O18   O     O_3   0.331230 0.168760 0.749580 -0.302571
O19   O     O_3   0.168770 0.668760 0.250420 -0.301202
O20   O     O_3   0.831230 0.668760 0.749580 -0.302605
O21   O     O_R   0.750800 0.274080 0.199250 -0.516639
O22   O     O_R   0.249200 0.274080 0.800750 -0.485328
O23   O     O_R   0.250800 0.774080 0.199250 -0.516737
O24   O     O_R   0.749200 0.774080 0.800750 -0.485161
O25   O     O_R   0.669990 0.371670 0.194150 -0.430285
O26   O     O_R   0.330010 0.371670 0.805850 -0.485469
O27   O     O_R   0.169990 0.871670 0.194150 -0.429992
O28   O     O_R   0.830010 0.871670 0.805850 -0.485655
O29   O     O_R   0.574600 0.238480 0.197800 -0.450973
O30   O     O_R   0.425400 0.238480 0.802200 -0.457305
O31   O     O_R   0.074600 0.738480 0.197800 -0.450912
O32   O     O_R   0.925400 0.738480 0.802200 -0.457324
O33   O     O_R   0.566130 0.068680 0.194240 -0.495899
O34   O     O_R   0.433870 0.068680 0.805760 -0.493405
O35   O     O_R   0.066130 0.568680 0.194240 -0.495785
O36   O     O_R   0.933870 0.568680 0.805760 -0.493638
O37   O     O_R   0.680610 0.992490 0.199570 -0.422566
O38   O     O_R   0.319390 0.992490 0.800430 -0.428112
O39   O     O_R   0.180610 0.492490 0.199570 -0.422573
O40   O     O_R   0.819390 0.492490 0.800430 -0.428158
O41   O     O_R   0.770060 0.065440 0.307230 -0.442494
O42   O     O_R   0.229940 0.065440 0.692770 -0.535913
O43   O     O_R   0.270060 0.565440 0.307230 -0.442498
O44   O     O_R   0.729940 0.565440 0.692770 -0.535921
O45   O     O_R   0.750960 0.274920 0.302300 -0.514104
O46   O     O_R   0.249040 0.274920 0.697700 -0.517612
O47   O     O_R   0.250960 0.774920 0.302300 -0.514118
O48   O     O_R   0.749040 0.774920 0.697700 -0.517599
O49   O     O_R   0.670160 0.372580 0.305320 -0.462799
O50   O     O_R   0.329840 0.372580 0.694680 -0.452070
O51   O     O_R   0.170160 0.872580 0.305320 -0.462830
O52   O     O_R   0.829840 0.872580 0.694680 -0.452077
O53   O     O_3   0.635833 0.911859 0.122693 -0.642557
H45   H     H_    0.606752 0.887298 0.097462 0.324545
O54   O     O_3   0.366548 0.923027 0.877625 -0.652567
H46   H     H_    0.396201 0.900170 0.902726 0.321257
O55   O     O_3   0.135784 0.412269 0.122619 -0.642606
H47   H     H_    0.106695 0.387828 0.097367 0.324526
O56   O     O_3   0.866461 0.422114 0.877494 -0.652385
H48   H     H_    0.896104 0.399128 0.902576 0.321307
F1    F     F_    0.541865 0.004269 0.535948 -0.591798
F2    F     F_    0.451310 0.017971 0.463864 -0.553047
F3    F     F_    0.041863 0.504267 0.535947 -0.591803
F4    F     F_    0.951308 0.517973 0.463864 -0.553044
F5    F     F_    0.566586 0.328432 0.480543 -0.600146
F6    F     F_    0.456784 0.343185 0.523873 -0.551897
F7    F     F_    0.066588 0.828430 0.480544 -0.600146
F8    F     F_    0.956786 0.843186 0.523874 -0.551901
F9    F     F_    0.846149 0.978178 0.368760 -0.606242
F10   F     F_    0.358911 0.885826 0.628478 -0.612326
F11   F     F_    0.346148 0.478167 0.368758 -0.606249
F12   F     F_    0.858917 0.385846 0.628475 -0.612325
O57   O     O_3   0.792606 0.082441 0.534897 -0.673102
H49   H     H_    0.790418 0.138621 0.559661 0.330827
O58   O     O_3   0.224076 0.086294 0.464644 -0.711933
H50   H     H_    0.232018 0.139976 0.439577 0.337346
O59   O     O_3   0.292606 0.582440 0.534898 -0.673098
H51   H     H_    0.290408 0.638621 0.559661 0.330821
O60   O     O_3   0.724066 0.586295 0.464643 -0.711933
H52   H     H_    0.732003 0.639979 0.439576 0.337348
O61   O     O_3   0.815016 0.040485 0.638746 -0.659806
H53   H     H_    0.844303 0.078588 0.618623 0.358011
O62   O     O_3   0.199671 0.047437 0.360302 -0.666413
H54   H     H_    0.174635 0.095337 0.379668 0.342531
O63   O     O_3   0.315013 0.540486 0.638747 -0.659793
H55   H     H_    0.344298 0.578595 0.618624 0.358017
O64   O     O_3   0.699661 0.547434 0.360303 -0.666361
H56   H     H_    0.674622 0.595328 0.379669 0.342531
O65   O     O_3   0.855361 0.938354 0.471030 -0.578301
H57   H     H_    0.887796 0.949876 0.447074 0.404610
O66   O     O_3   0.352881 0.857246 0.526147 -0.625110
H58   H     H_    0.386646 0.843031 0.548977 0.403698
O67   O     O_3   0.355360 0.438343 0.471029 -0.578304
H59   H     H_    0.387794 0.449870 0.447073 0.404613
O68   O     O_3   0.852887 0.357272 0.526144 -0.625106
H60   H     H_    0.886654 0.343062 0.548973 0.403702
O69   O     O_3   0.465013 0.351432 0.871327 -0.583844
H61   H     H_    0.431342 0.385554 0.888317 0.366876
O70   O     O_3   0.528633 0.350717 0.130621 -0.576431
H62   H     H_    0.561041 0.388309 0.113695 0.379915
O71   O     O_3   0.965136 0.851416 0.871308 -0.583735
H63   H     H_    0.931476 0.885642 0.888268 0.366861
O72   O     O_3   0.028724 0.850744 0.130608 -0.576310
H64   H     H_    0.061150 0.888245 0.113659 0.380090
F13   F     F_    0.490219 0.450822 0.952506 -0.506876
F14   F     F_    0.499829 0.449967 0.050252 -0.499750
F15   F     F_    0.990336 0.950804 0.952490 -0.506953
F16   F     F_    0.999932 0.949995 0.050237 -0.499767
O73   O     O_3   0.850740 0.965121 0.136909 -0.576126
H65   H     H_    0.844080 0.941582 0.171252 0.344738
O74   O     O_3   0.150242 0.957737 0.863671 -0.571663
H66   H     H_    0.157901 0.937002 0.829030 0.336515
O75   O     O_3   0.350730 0.464887 0.136945 -0.576231
H67   H     H_    0.344021 0.441392 0.171288 0.344666
O76   O     O_3   0.650201 0.458418 0.863765 -0.571602
H68   H     H_    0.657753 0.437417 0.829139 0.336538
F17   F     F_    0.701130 0.998995 0.861178 -0.601527
F18   F     F_    0.181312 0.031105 0.130867 -0.574970
F19   F     F_    0.201454 0.499452 0.861157 -0.601464
F20   F     F_    0.681843 0.531560 0.130988 -0.575041
F21   F     F_    0.860017 0.935513 0.038482 -0.523174
F22   F     F_    0.142103 0.924631 0.962079 -0.565623
F23   F     F_    0.360043 0.435265 0.038518 -0.523255
F24   F     F_    0.642117 0.425532 0.962191 -0.565351
O77   O     O_3   0.828352 0.747316 0.990809 -0.653017
H69   H     H_    0.852247 0.696852 0.971797 0.314238
O78   O     O_3   0.296112 0.734167 0.018268 -0.666658
H70   H     H_    0.311546 0.678380 0.039907 0.353820
O79   O     O_3   0.328092 0.247058 0.990816 -0.653117
H71   H     H_    0.351906 0.196477 0.971809 0.314345
O80   O     O_3   0.795533 0.233692 0.018156 -0.666578
H72   H     H_    0.810715 0.177617 0.039751 0.353490

loop_
_geom_bond_atom_site_label_1
_geom_bond_atom_site_label_2
_ccdc_geom_bond_type
C99   C103  A    
C7    C168  A    
O77   H69   S    
C55   C59   A    
C142  C146  A    
C77   C101  A    
O56   H48   S    
C53   C69   A    
C12   O71   S    
C165  C169  A    
C38   C70   S    
C36   F24   S    
O71   H63   S    
C108  C164  S    
Cr12  O36   S    
C60   F20   S    
C137  O61   S    
C26   C50   A    
C95   C99   A    
Cr5   O25   S    
Cr6   O30   S    
C29   C33   A    
C100  C104  A    
C133  O45   A    
Cr12  O20   S    
C3    C74   S    
C9    C13   A    
C146  C150  A    
C129  O57   S    
C12   C16   A    
C56   C72   A    
C169  C174  A    
C172  C175  A    
C141  C145  A    
C108  C112  A    
C84   H16   S    
C45   O33   A    
C6    C165  A    
C4    O28   A    
C21   C22   A    
C126  H38   S    
C100  F3    S    
C2    O22   A    
C41   C49   A    
C34   F22   S    
C18   C170  A    
C25   C29   A    
C27   C31   A    
C97   F2    S    
C28   C32   A    
C21   F14   S    
C99   F4    S    
Cr10  O10   S    
C62   C66   A    
C167  C171  A    
C98   C102  A    
C123  H35   S    
C92   O4    A    
C176  H24   S    
C78   C82   A    
C134  C155  S    
C54   C70   A    
Cr3   O43   S    
C68   C72   A    
C165  H2    S    
C137  C153  A    
Cr8   O28   S    
C146  H26   S    
C161  O41   A    
C158  O6    A    
C20   C172  A    
C28   C52   A    
C132  C152  A    
C62   H6    S    
C130  C138  A    
C123  C127  A    
C47   O35   A    
C84   C88   A    
C31   O75   S    
Cr6   O50   S    
Cr1   O1    S    
C90   O38   A    
C119  C123  A    
C26   C90   S    
C5    C46   S    
C105  C125  A    
C7    C48   S    
C19   C20   A    
C8    C47   S    
C107  C127  A    
C136  C153  S    
C66   C70   A    
C59   F19   S    
C35   F23   S    
Cr8   O32   S    
Cr11  O19   S    
C136  O52   A    
Cr9   O17   S    
O72   H64   S    
C22   F13   S    
C61   C65   A    
C129  C137  A    
Cr4   O4    S    
O65   H57   S    
C122  H34   S    
O78   H70   S    
C39   C71   S    
C117  C149  S    
C129  C149  A    
Cr8   O8    S    
C55   C71   A    
C2    C75   S    
C139  O63   S    
C122  C126  A    
C50   O54   S    
Cr4   O48   S    
C6    C9    A    
Cr9   O33   S    
C121  C125  A    
C131  O59   S    
C64   C68   A    
C144  H32   S    
C147  H27   S    
C3    O27   A    
C91   O3    A    
C158  O10   A    
C104  H19   S    
C89   O1    A    
C142  H30   S    
Cr11  O15   S    
C112  F12   S    
C85   C93   A    
C78   C158  S    
C85   F5    S    
C124  H36   S    
C42   H10   S    
C87   C95   A    
C130  C150  A    
C23   C24   A    
C27   C91   S    
C65   O77   S    
C110  C114  A    
Cr3   O23   S    
C44   C52   A    
C58   F18   S    
C173  C174  A    
Cr12  O40   S    
C79   C103  A    
C11   C15   A    
C111  F11   S    
C148  H28   S    
C27   C51   A    
O55   H47   S    
Cr7   O19   S    
C7    C12   A    
Cr6   O26   S    
C30   C34   A    
C41   H9    S    
C10   C14   A    
Cr2   O2    S    
C9    O70   S    
C160  O12   A    
C116  C120  A    
C144  C156  A    
C147  C151  A    
C161  O13   A    
C37   C69   S    
C45   O29   A    
C139  C155  A    
C128  H40   S    
C17   C18   A    
C5    C166  A    
C142  C154  A    
C4    C73   S    
C42   C50   A    
C113  C117  A    
C107  C163  S    
C26   C30   A    
C115  C119  A    
C105  C161  S    
C98   F1    S    
C114  O66   S    
C4    O24   A    
C52   O56   S    
C61   H5    S    
Cr10  O14   S    
C58   C74   A    
Cr5   O5    S    
C105  C109  A    
C159  O7    A    
C40   C72   S    
C1    C76   S    
C107  C111  A    
C173  H21   S    
C148  C152  A    
C44   H12   S    
Cr2   O22   S    
C117  C121  A    
C171  C176  A    
C13   C17   A    
C166  H1    S    
C14   C22   A    
Cr6   O18   S    
C57   F17   S    
C162  O42   A    
C141  C153  A    
C63   C75   A    
C96   C100  A    
C132  O60   S    
C37   C41   A    
C131  C139  A    
C101  H18   S    
C143  H31   S    
C32   O76   S    
C40   C44   A    
C67   O79   S    
C138  C154  A    
C113  O65   S    
C54   H42   S    
C81   C85   A    
C83   C87   A    
C88   C96   A    
C6    C45   S    
C93   C97   A    
C78   C102  A    
C133  C156  S    
C112  C116  A    
C80   C84   A    
C138  O62   S    
Cr1   O41   S    
C163  O43   A    
C15   C19   A    
C134  O50   A    
C135  C154  S    
C11   O72   S    
C80   C104  A    
C135  O47   A    
C136  O48   A    
C17   C169  A    
C79   C159  S    
C92   O40   A    
C80   C160  S    
C130  O58   S    
C94   C98   A    
C118  C150  S    
C141  H29   S    
O80   H72   S    
C88   F8    S    
C33   F21   S    
Cr9   O37   S    
C124  C128  A    
Cr10  O34   S    
Cr11  O39   S    
O62   H54   S    
C34   C38   A    
C127  H39   S    
C125  H37   S    
C159  O11   A    
C1    O21   A    
C1    O25   A    
C109  F9    S    
O58   H50   S    
C134  O46   A    
C55   H43   S    
C135  O51   A    
C83   H15   S    
O76   H68   S    
C53   C57   A    
Cr9   O9    S    
C61   C73   A    
C86   F6    S    
C33   C37   A    
O66   H58   S    
Cr7   O51   S    
O70   H62   S    
O53   H45   S    
C8    C167  A    
Cr3   O19   S    
O54   H46   S    
C77   C81   A    
C46   O34   A    
Cr1   O17   S    
C145  H25   S    
Cr11  O11   S    
Cr7   O27   S    
C63   H7    S    
Cr12  O12   S    
C32   C36   A    
C82   H14   S    
C140  O64   S    
C164  O44   A    
Cr8   O52   S    
C81   H13   S    
C51   O55   S    
C132  C140  A    
C106  C126  A    
C25   C89   S    
C143  C155  A    
O68   H60   S    
C82   C86   A    
C79   C83   A    
O74   H66   S    
C43   C51   A    
O61   H53   S    
C65   C69   A    
C60   C76   A    
C67   C71   A    
C106  C162  S    
O67   H59   S    
C25   C49   A    
Cr10  O18   S    
C23   F16   S    
O64   H56   S    
C56   C60   A    
C168  C172  A    
Cr5   O29   S    
O57   H49   S    
C121  H33   S    
C62   C74   A    
C145  C149  A    
C53   H41   S    
C170  C173  A    
O60   H52   S    
C93   C94   S    
Cr4   O20   S    
O69   H61   S    
C14   C18   A    
C35   C39   A    
C95   C96   S    
C144  C148  A    
Cr4   O24   S    
O59   H51   S    
C143  C147  A    
C167  H4    S    
C56   H44   S    
C168  H3    S    
C89   O37   A    
Cr8   O20   S    
C19   C171  A    
C38   C42   A    
C91   O39   A    
C118  C122  A    
Cr7   O31   S    
C48   O36   A    
C57   C73   A    
C64   H8    S    
C90   O2    A    
C116  O68   S    
Cr2   O46   S    
C157  O9    A    
C86   C94   A    
Cr7   O7    S    
C66   O78   S    
C175  C176  A    
Cr2   O18   S    
C163  O15   A    
C16   C20   A    
Cr2   O42   S    
C15   C23   A    
Cr3   O47   S    
C16   C24   A    
C119  C151  S    
C63   C67   A    
C120  C152  S    
C13   C21   A    
C36   C40   A    
C103  H20   S    
Cr3   O3    S    
C39   C43   A    
C47   O31   A    
C30   O74   S    
C48   O32   A    
C162  O14   A    
Cr5   O49   S    
Cr10  O38   S    
Cr11  O35   S    
C64   C76   A    
C28   C92   S    
C109  C113  A    
C114  C118  A    
C49   O53   S    
C2    O26   A    
C24   F15   S    
C140  C156  A    
C175  H23   S    
C110  F10   S    
C10   O69   S    
C59   C75   A    
Cr6   O6    S    
Cr9   O13   S    
C54   C58   A    
C157  O5    A    
C160  O8    A    
C174  H22   S    
C43   H11   S    
C68   O80   S    
Cr1   O45   S    
C46   O30   A    
Cr1   O21   S    
O79   H71   S    
C29   O73   S    
C87   F7    S    
C5    C10   A    
Cr4   O44   S    
Cr5   O17   S    
C115  O67   S    
C8    C11   A    
C133  O49   A    
C166  C170  A    
C131  C151  A    
Cr12  O16   S    
C31   C35   A    
O63   H55   S    
C164  O16   A    
C102  H17   S    
C3    O23   A    
C106  C110  A    
O73   H65   S    
C111  C115  A    
C108  C128  A    
O75   H67   S    
C97   C101  A    
C120  C124  A    
C77   C157  S    
