data_mof_unit_35264.cif
_audit_creation_date              2013-03-05T16:04:28-0500
_audit_creation_method            fapswitch 2.2
_symmetry_space_group_name_H-M    P1
_symmetry_Int_Tables_number       1
_space_group_crystal_system       triclinic
_cell_length_a                    10.889757
_cell_length_b                    9.525478
_cell_length_c                    15.023149
_cell_angle_alpha                 90.284229
_cell_angle_beta                  89.943078
_cell_angle_gamma                 90.761186
_cell_volume                      1558.19599657

loop_
_atom_site_label
_atom_site_type_symbol
_atom_site_description
_atom_site_fract_x
_atom_site_fract_y
_atom_site_fract_z
_atom_type_partial_charge
O1    O     O_R   0.319640 0.618740 0.499990 -0.580276
O2    O     O_R   0.680360 0.381260 0.500010 -0.580041
O3    O     O_R   0.680360 0.618740 0.500010 -0.578500
O4    O     O_R   0.319640 0.381260 0.499990 -0.578847
C1    C     C_R   0.262397 0.498938 0.500985 0.824004
C2    C     C_R   0.737637 0.501069 0.499189 0.825010
O5    O     O_R   0.499970 0.618800 0.370260 -0.578613
O6    O     O_R   0.500030 0.381200 0.629740 -0.578811
O7    O     O_R   0.500030 0.618800 0.629740 -0.584324
O8    O     O_R   0.499970 0.381200 0.370260 -0.584282
C3    C     C_R   0.499985 0.499822 0.328915 0.785504
C4    C     C_R   0.499638 0.500157 0.671056 0.785537
Cu1   Cu    Cu3+1 0.500000 0.640660 0.500000 0.944219
Cu2   Cu    Cu3+1 0.500000 0.359340 0.500000 0.944076
C5    C     C_R   0.609802 0.493822 0.812907 -0.231125
C6    C     C_R   0.389759 0.513579 0.187158 -0.230126
C7    C     C_R   0.499361 0.500098 0.767360 -0.051752
C8    C     C_R   0.499833 0.499746 0.232553 -0.051903
C9    C     C_R   0.388663 0.503416 0.813091 -0.221249
C10   C     C_R   0.609915 0.488044 0.186682 -0.220749
C11   C     C_R   0.386282 0.500216 0.906489 0.084464
C12   C     C_R   0.612050 0.487792 0.093307 0.082139
C13   C     C_R   0.499290 0.499314 0.953253 -0.041956
C14   C     C_R   0.499438 0.499700 0.046670 -0.040989
C15   C     C_R   0.612198 0.497657 0.906200 0.085337
C16   C     C_R   0.387046 0.512253 0.093759 0.083972
C17   C     C_R   0.273758 0.499811 0.953651 0.174333
C18   C     C_R   0.724240 0.478016 0.046077 0.175411
C19   C     C_R   0.274556 0.520732 0.046961 0.170093
C20   C     C_R   0.724832 0.497957 0.952906 0.173685
H1    H     H_    0.693078 0.482915 0.774547 0.134495
H2    H     H_    0.306741 0.522786 0.225959 0.133332
H3    H     H_    0.305228 0.509727 0.774669 0.137759
H4    H     H_    0.693571 0.483573 0.224982 0.138760
C21   C     C_R   0.064291 0.421349 0.434769 0.128435
C22   C     C_R   0.935852 0.578888 0.565408 0.130486
C23   C     C_R   0.935137 0.427450 0.431422 0.145340
C24   C     C_R   0.064997 0.572408 0.568949 0.142224
C25   C     C_R   0.871829 0.503658 0.497937 -0.121446
C26   C     C_R   0.128264 0.496327 0.502345 -0.121982
C27   C     C_R   0.431397 0.072863 0.439773 -0.020890
C28   C     C_R   0.568609 0.927135 0.560224 -0.020706
C29   C     C_R   0.568776 0.075889 0.560138 -0.007028
C30   C     C_R   0.431227 0.924110 0.439860 -0.006974
H5    H     H_    0.376776 0.127571 0.391305 0.120944
H6    H     H_    0.623239 0.872424 0.608687 0.120959
H7    H     H_    0.624036 0.133054 0.608282 0.125521
H8    H     H_    0.375971 0.866944 0.391713 0.124820
N1    N     N_R   0.500000 0.852070 0.500000 -0.160619
N2    N     N_R   0.500000 0.147930 0.500000 -0.160755
C31   C     C_3   0.154414 0.468139 0.905486 -0.909138
H9    H     H_    0.167371 0.388595 0.852197 0.233773
H10   H     H_    0.086278 0.418261 0.950421 0.246114
H11   H     H_    0.117511 0.565945 0.876679 0.238568
C32   C     C_3   0.841166 0.440243 0.094620 -0.912659
H12   H     H_    0.823303 0.349637 0.139205 0.233631
H13   H     H_    0.914353 0.404184 0.049156 0.248242
H14   H     H_    0.875168 0.531519 0.134144 0.238308
C33   C     C_3   0.157181 0.556029 0.096312 -0.898810
H15   H     H_    0.083268 0.590888 0.051411 0.246656
H16   H     H_    0.124716 0.463890 0.135201 0.237410
H17   H     H_    0.173476 0.646642 0.141750 0.231760
C34   C     C_3   0.843972 0.529623 0.904437 -0.907982
H18   H     H_    0.912834 0.578049 0.949633 0.246072
H19   H     H_    0.880115 0.432279 0.873781 0.242865
H20   H     H_    0.830616 0.610223 0.852342 0.231397
C35   C     C_3   0.135919 0.335405 0.367000 -0.827495
H21   H     H_    0.176177 0.243443 0.400610 0.237910
H22   H     H_    0.081653 0.293567 0.310488 0.229298
H23   H     H_    0.210370 0.400475 0.337600 0.208116
C36   C     C_3   0.864343 0.665714 0.632733 -0.831700
H24   H     H_    0.824473 0.757532 0.598716 0.238490
H25   H     H_    0.789587 0.601245 0.662203 0.207918
H26   H     H_    0.918647 0.707809 0.689150 0.228621
C37   C     C_3   0.866965 0.357261 0.354604 -0.849221
H27   H     H_    0.767240 0.376050 0.353418 0.230353
H28   H     H_    0.902203 0.399788 0.290749 0.220546
H29   H     H_    0.880052 0.241905 0.356793 0.243073
C38   C     C_3   0.133296 0.642461 0.645829 -0.840468
H30   H     H_    0.232941 0.623032 0.647076 0.229065
H31   H     H_    0.120798 0.757901 0.643382 0.242350
H32   H     H_    0.097907 0.600611 0.709873 0.220023

loop_
_geom_bond_atom_site_label_1
_geom_bond_atom_site_label_2
_geom_bond_distance
_ccdc_geom_bond_type
C30   N1    1.367200 A    
C32   H12   1.110123 S    
C34   H19   1.109909 S    
C3    C8    1.447666 S    
C17   C19   1.414940 A    
O3    C2    1.289953 A    
O5    C3    1.289671 A    
O1    C1    1.293189 A    
C21   C23   1.409382 A    
C14   C16   1.419178 A    
C5    C15   1.402111 A    
C24   C38   1.520961 S    
C28   H6    1.080948 S    
O7    Cu1   1.961222 S    
C19   C33   1.517752 S    
C4    C7    1.446779 S    
C13   C14   1.403398 A    
O3    Cu1   1.977899 S    
C22   C36   1.523380 S    
C10   H4    1.079400 S    
C11   C17   1.414808 A    
C34   H20   1.110072 S    
C33   H15   1.106137 S    
C12   C18   1.416118 A    
Cu1   Cu2   2.679707 S    
O4    Cu2   1.977901 S    
O2    C2    1.293382 A    
O7    C4    1.292021 A    
C18   C32   1.516306 S    
C17   C31   1.514237 S    
C11   C13   1.417806 A    
C6    C16   1.403480 A    
C33   H16   1.110425 S    
C35   H21   1.108832 S    
O8    Cu2   1.961222 S    
C38   H31   1.110597 S    
C34   H18   1.106734 S    
C31   H9    1.109729 S    
C35   H22   1.104628 S    
C37   H27   1.103144 S    
C38   H32   1.110017 S    
C21   C35   1.523892 S    
O6    C4    1.289340 A    
C37   H28   1.109328 S    
Cu1   N1    2.013781 S    
C10   C12   1.402954 A    
C32   H13   1.106139 S    
C9    H3    1.079417 S    
C27   C30   1.416927 A    
C12   C14   1.419081 A    
C1    C26   1.460677 S    
O1    Cu1   1.972384 S    
C28   C29   1.416933 A    
C27   N2    1.367039 A    
C36   H25   1.106592 S    
C15   C20   1.413643 A    
C5    C7    1.386426 A    
C33   H17   1.110298 S    
O6    Cu2   1.959167 S    
C9    C11   1.403821 A    
C22   C25   1.417023 A    
O4    C1    1.289839 A    
C36   H26   1.104612 S    
C29   N2    1.367202 A    
C5    H1    1.079892 S    
C6    H2    1.079508 S    
C31   H11   1.109524 S    
C35   H23   1.106908 S    
C18   C20   1.413476 A    
C21   C26   1.416701 A    
C36   H24   1.108857 S    
C23   C25   1.416162 A    
C24   C26   1.416253 A    
Cu2   N2    2.013782 S    
C22   C24   1.409603 A    
C7    C9    1.387564 A    
C8    C10   1.387618 A    
C13   C15   1.417883 A    
C23   C37   1.520137 S    
O2    Cu2   1.972383 S    
C37   H29   1.110560 S    
O8    C3    1.292092 A    
C28   N1    1.367036 A    
C38   H30   1.103394 S    
O5    Cu1   1.959167 S    
C16   C19   1.416446 A    
C6    C8    1.387794 A    
C32   H14   1.110121 S    
C27   H5    1.080926 S    
C2    C25   1.461296 S    
C31   H10   1.106716 S    
C20   C34   1.514718 S    
C29   H7    1.081670 S    
C30   H8    1.081680 S    
