data_mof_unit_46398.cif
_audit_creation_date              2013-03-05T15:41:38-0500
_audit_creation_method            fapswitch 2.2
_symmetry_space_group_name_H-M    P1
_symmetry_Int_Tables_number       1
_space_group_crystal_system       triclinic
_cell_length_a                    7.770408
_cell_length_b                    8.57938
_cell_length_c                    15.720439
_cell_angle_alpha                 90.828109
_cell_angle_beta                  85.839942
_cell_angle_gamma                 93.609389
_cell_volume                      1043.12154606

loop_
_atom_site_label
_atom_site_type_symbol
_atom_site_description
_atom_site_fract_x
_atom_site_fract_y
_atom_site_fract_z
_atom_type_partial_charge
O1    O     O_R   0.389240 0.738570 0.505550 -0.614113
O2    O     O_R   0.678400 0.711630 0.491050 -0.632016
C1    C     C_R   0.545765 0.794730 0.497823 0.958829
O3    O     O_R   0.355360 0.513470 0.630110 -0.597677
O4    O     O_R   0.644510 0.486530 0.615610 -0.609978
C2    C     C_R   0.502026 0.500037 0.661600 0.901244
Zn1   Zn    Zn3+2 0.306930 0.517990 0.509680 0.964715
Zn2   Zn    Zn3+2 0.693070 0.482010 0.490320 0.958444
O5    O     O_R   0.321600 0.288370 0.508950 -0.628068
O6    O     O_R   0.610760 0.261430 0.494450 -0.612848
O7    O     O_R   0.355490 0.513470 0.384390 -0.625171
O8    O     O_R   0.644640 0.486530 0.369890 -0.614221
C3    C     C_R   0.454236 0.205270 0.502201 0.960872
C4    C     C_R   0.498006 0.499983 0.338392 0.899732
C5    C     C_3   0.388012 0.626687 0.954390 -0.453024
C6    C     C_3   0.691973 0.538345 0.946558 0.196199
C7    C     C_3   0.687087 0.535430 0.045268 -0.455285
H1    H     H_    0.429596 0.744230 0.076049 0.176523
H2    H     H_    0.436348 0.743926 0.930259 0.177411
H3    H     H_    0.732980 0.659842 0.926079 0.102489
H4    H     H_    0.738313 0.650685 0.069303 0.149437
H5    H     H_    0.771716 0.446545 0.067440 0.205767
C8    C     C_1   0.494104 0.500515 0.249624 -0.177391
C9    C     C_3   0.506269 0.499584 0.917157 0.206349
C10   C     C_3   0.383412 0.626893 0.052734 -0.403777
C11   C     C_3   0.498809 0.500516 0.082694 0.301706
C12   C     C_3   0.431744 0.338467 0.049928 -0.391002
C13   C     C_3   0.430367 0.339544 0.951905 -0.347968
C14   C     C_1   0.494452 0.500684 0.174257 -0.096385
C15   C     C_1   0.507632 0.499557 0.825625 -0.040179
C16   C     C_1   0.506364 0.499674 0.750332 -0.113641
H6    H     H_    0.294924 0.318392 0.933767 0.205008
H7    H     H_    0.503040 0.241893 0.923474 0.213702
H8    H     H_    0.298620 0.308487 0.078455 0.177129
H9    H     H_    0.254393 0.604405 0.933930 0.234689
H10   H     H_    0.247734 0.603856 0.079562 0.187846
H11   H     H_    0.515822 0.246687 0.069245 0.188730
C17   C     C_2   0.569862 0.958187 0.496589 -0.372583
H12   H     H_    0.701832 0.009163 0.490017 0.182407
C18   C     C_2   0.430141 0.041815 0.503473 -0.371935
H13   H     H_    0.298171 0.990839 0.510049 0.182827
N1    N     N_2   0.950340 0.457950 0.477370 -0.171668
H14   H     H_    0.013448 0.381733 0.436690 0.190872
N2    N     N_2   0.049660 0.542050 0.522630 -0.164591
H15   H     H_    0.986550 0.618249 0.563321 0.202382
N3    N     N_R   0.819105 0.433805 0.907742 0.208524
O9    O     O_R   0.942478 0.489540 0.854175 -0.414950
O10   O     O_R   0.817287 0.288055 0.929868 -0.425364

loop_
_geom_bond_atom_site_label_1
_geom_bond_atom_site_label_2
_geom_bond_distance
_ccdc_geom_bond_type
C4    C8    1.398072 S    
O4    Zn2   1.978652 S    
Zn1   O7    1.978652 S    
C7    H5    1.113339 S    
C6    H3    1.115667 S    
Zn2   O8    1.958239 S    
C2    C16   1.397803 S    
C6    C9    1.561522 S    
Zn1   N2    2.017950 S    
C5    H2    1.113317 S    
C11   C12   1.548155 S    
C17   H12   1.087649 S    
H1    C10   1.113306 S    
N1    N2    1.271678 D    
C12   H11   1.113345 S    
O3    Zn1   1.958241 S    
O4    C2    1.288233 A    
C7    C11   1.549606 S    
C8    C14   1.184634 T    
C5    H9    1.113410 S    
C5    C9    1.551065 S    
C17   C18   1.335664 D    
Zn2   N1    2.017950 S    
C13   H7    1.110249 S    
O2    C1    1.286947 A    
N3    O10   1.301701 A    
C12   H8    1.113479 S    
C15   C16   1.184410 T    
O7    C4    1.288473 A    
C9    C15   1.438195 S    
C5    C10   1.543806 S    
N1    H14   1.029464 S    
C10   H10   1.113598 S    
C13   H6    1.113502 S    
N2    H15   1.029472 S    
C11   C14   1.437330 S    
O3    C2    1.287324 A    
C6    N3    1.470013 S    
C12   C13   1.541941 S    
Zn1   O5    1.980264 S    
O5    C3    1.286945 A    
N3    O9    1.301387 A    
C18   H13   1.087650 S    
C3    C18   1.403295 S    
C10   C11   1.549147 S    
O1    Zn1   1.959525 S    
Zn2   O6    1.959525 S    
O2    Zn2   1.980265 S    
C9    C13   1.550636 S    
C1    C17   1.403296 S    
O8    C4    1.287180 A    
C6    C7    1.549992 S    
O1    C1    1.277761 A    
O6    C3    1.277761 A    
C7    H4    1.113742 S    
