data_mof_unit_30977.cif
_audit_creation_date              2012-12-10T16:37:23-0500
_audit_creation_method            fapswitch 2.2
_symmetry_space_group_name_H-M    P1
_symmetry_Int_Tables_number       1
_space_group_crystal_system       triclinic
_cell_length_a                    16.960259
_cell_length_b                    16.829281
_cell_length_c                    16.668713
_cell_angle_alpha                 65.782045
_cell_angle_beta                  65.600377
_cell_angle_gamma                 65.669561
_cell_volume                      3779.23209779

loop_
_atom_site_label
_atom_site_type_symbol
_atom_type_description
_atom_site_fract_x
_atom_site_fract_y
_atom_site_fract_z
_atom_type_partial_charge
C1    C     C_R   0.404329 0.042297 0.664759 -0.216632
C2    C     C_R   0.397687 0.654207 0.073777 -0.213282
C3    C     C_R   0.924507 0.602825 0.347132 -0.220448
C4    C     C_R   0.038306 0.403342 0.666164 -0.219691
C5    C     C_R   0.959116 0.179418 0.439225 0.929650
C6    C     C_R   0.024076 0.822272 0.568300 0.897302
C7    C     C_R   0.176956 0.431325 0.977442 0.909126
C8    C     C_R   0.820549 0.562304 0.038016 0.902830
C9    C     C_R   0.438792 0.959554 0.179759 0.894825
C10   C     C_R   0.560881 0.039603 0.820420 0.900153
C11   C     C_R   0.561698 0.820315 0.039193 0.892756
C12   C     C_R   0.601086 0.925389 0.345618 -0.213781
C13   C     C_R   0.438306 0.179422 0.961997 0.897733
C14   C     C_R   0.040237 0.560448 0.820277 0.925422
C15   C     C_R   0.959216 0.438980 0.179992 0.884729
C16   C     C_R   0.822327 0.024039 0.568301 0.894388
C17   C     C_R   0.179416 0.960622 0.438347 0.930068
C18   C     C_R   0.446804 0.065874 0.704118 -0.153240
C19   C     C_R   0.555364 0.916811 0.298362 -0.163708
C20   C     C_R   0.946329 0.736895 0.504930 -0.173756
C21   C     C_R   0.931737 0.288678 0.558488 -0.153836
C22   C     C_R   0.711226 0.445775 0.061338 -0.157225
C23   C     C_R   0.928361 0.695733 0.460212 -0.220061
C24   C     C_R   0.261140 0.494665 0.058135 -0.165286
C25   C     C_R   0.287346 0.938542 0.556575 -0.154254
C26   C     C_R   0.735554 0.951925 0.498840 -0.177218
C27   C     C_R   0.551133 0.295329 0.938407 -0.155000
C28   C     C_R   0.444116 0.702577 0.079677 -0.163785
C29   C     C_R   0.917199 0.556829 0.298811 -0.172563
C30   C     C_R   0.063302 0.445465 0.704887 -0.153518
C31   C     C_R   0.548249 0.992418 0.555624 0.025639
C32   C     C_R   0.461921 0.953686 0.468182 0.024419
C33   C     C_R   0.989029 0.548525 0.557955 0.025140
C34   C     C_R   0.954490 0.328574 0.600868 -0.223517
C35   C     C_R   0.949968 0.462987 0.470033 0.024298
C36   C     C_R   0.536530 0.532681 0.046406 0.026465
C37   C     C_R   0.449307 0.442994 0.011877 0.026978
C38   C     C_R   0.599574 0.957739 0.478883 0.056128
C39   C     C_R   0.413599 0.974328 0.553079 0.048662
C40   C     C_R   0.998401 0.454367 0.594001 0.045373
C41   C     C_R   0.942895 0.556637 0.432524 0.047604
C42   C     C_R   0.442879 0.569289 0.055393 0.045667
C43   C     C_R   0.543323 0.408027 0.000489 0.045779
C44   C     C_R   0.555255 0.945793 0.430362 0.046725
C45   C     C_R   0.670470 0.403472 0.039992 -0.221685
C46   C     C_R   0.454457 0.002448 0.592022 0.045229
C47   C     C_R   0.397863 0.519389 0.046305 0.049145
C48   C     C_R   0.584509 0.447945 0.027005 0.048431
C49   C     C_R   0.969439 0.414161 0.555217 0.048166
C50   C     C_R   0.954012 0.600791 0.481936 0.053540
C51   C     C_R   0.541509 0.048046 0.674614 0.062412
C52   C     C_R   0.461240 0.930110 0.332123 0.057943
C53   C     C_R   0.996387 0.686247 0.568874 0.050965
C54   C     C_R   0.934377 0.326933 0.464626 0.053814
C55   C     C_R   0.673379 0.538608 0.059561 0.055716
C56   C     C_R   0.303051 0.540673 0.073631 -0.217285
C57   C     C_R   0.311580 0.430465 0.007475 0.046812
C58   C     C_R   0.325775 0.938935 0.463155 0.055480
C59   C     C_R   0.685980 0.999310 0.565906 0.054352
C60   C     C_R   0.456434 0.323796 0.956966 0.063747
C61   C     C_R   0.538384 0.669161 0.066889 0.057602
C62   C     C_R   0.929035 0.462268 0.332727 0.056064
C63   C     C_R   0.046563 0.540669 0.675432 0.062487
C64   C     C_R   0.588452 0.061566 0.720033 -0.192102
C65   C     C_R   0.410964 0.930125 0.281242 -0.189179
C66   C     C_R   0.030663 0.726351 0.603944 -0.160088
C67   C     C_R   0.327708 0.961118 0.598527 -0.222857
C68   C     C_R   0.931006 0.279268 0.412554 -0.190147
C69   C     C_R   0.720903 0.589655 0.064174 -0.184241
C70   C     C_R   0.271959 0.395026 0.972814 -0.163000
C71   C     C_R   0.278779 0.933836 0.411510 -0.186879
C72   C     C_R   0.726427 0.031608 0.602965 -0.160044
C73   C     C_R   0.409791 0.278783 0.942716 -0.188295
C74   C     C_R   0.589255 0.719488 0.067075 -0.186774
C75   C     C_R   0.929619 0.411361 0.281562 -0.183928
C76   C     C_R   0.061505 0.587720 0.720063 -0.193938
C77   C     C_R   0.673522 0.072051 0.673433 -0.107643
C78   C     C_R   0.693939 0.933679 0.455067 -0.220165
C79   C     C_R   0.326335 0.915840 0.327128 -0.106602
C80   C     C_R   0.072095 0.673145 0.673171 -0.114979
C81   C     C_R   0.914793 0.326422 0.327518 -0.106446
C82   C     C_R   0.673701 0.673502 0.081820 -0.100827
C83   C     C_R   0.325001 0.325216 0.931828 -0.107128
C84   C     C_R   0.591590 0.014799 0.597625 0.072298
C85   C     C_R   0.416443 0.940389 0.421311 0.075159
C86   C     C_R   0.012295 0.591425 0.599592 0.073057
C87   C     C_R   0.937143 0.417606 0.422612 0.075385
C88   C     C_R   0.582653 0.580152 0.057929 0.073799
C89   C     C_R   0.593495 0.335521 0.960919 -0.217030
C90   C     C_R   0.406068 0.400115 0.990691 0.073012
C91   C     C_1   0.705309 0.123086 0.700114 0.233570
C92   C     C_1   0.289366 0.880437 0.288559 0.246114
C93   C     C_1   0.123620 0.705162 0.698703 0.240842
C94   C     C_1   0.880791 0.288620 0.288387 0.249287
C95   C     C_1   0.710497 0.711010 0.118472 0.238245
C96   C     C_1   0.294181 0.299837 0.878620 0.233678
H1    H     H_    0.331388 0.058748 0.690238 0.142996
H2    H     H_    0.326267 0.686292 0.081536 0.143998
H3    H     H_    0.918303 0.674410 0.314316 0.140634
H4    H     H_    0.053751 0.329990 0.691463 0.143152
H5    H     H_    0.404175 0.100413 0.756469 0.171136
H6    H     H_    0.596288 0.895708 0.236885 0.178160
H7    H     H_    0.918744 0.808971 0.488157 0.164315
H8    H     H_    0.910031 0.228771 0.602039 0.181950
H9    H     H_    0.770828 0.402048 0.082758 0.183186
H10   H     H_    0.188774 0.509955 0.088505 0.182289
H11   H     H_    0.227404 0.917778 0.600826 0.183879
H12   H     H_    0.672319 0.918131 0.312377 0.140358
H13   H     H_    0.807317 0.926494 0.477896 0.167045
H14   H     H_    0.594029 0.243668 0.903404 0.172760
H15   H     H_    0.403229 0.764285 0.099279 0.180175
H16   H     H_    0.898083 0.597978 0.236550 0.180657
H17   H     H_    0.097854 0.402244 0.756727 0.173495
H18   H     H_    0.890805 0.740055 0.411292 0.133743
H19   H     H_    0.955117 0.293721 0.671499 0.141658
H20   H     H_    0.705014 0.333357 0.039663 0.144117
H21   H     H_    0.259574 0.590313 0.110810 0.143004
H22   H     H_    0.292804 0.962663 0.668986 0.143289
H23   H     H_    0.737985 0.897400 0.404630 0.132527
H24   H     H_    0.666497 0.311053 0.943460 0.144216
N1    N     N_1   0.730324 0.163913 0.721311 -0.233037
N2    N     N_1   0.260130 0.851943 0.258002 -0.218402
N3    N     N_1   0.164815 0.730418 0.718957 -0.213568
N4    N     N_1   0.853415 0.258722 0.257373 -0.215525
N5    N     N_1   0.739601 0.740671 0.147999 -0.236881
N6    N     N_1   0.269959 0.279663 0.836073 -0.233853
O1    O     O_R   0.982940 0.138950 0.510160 -0.636350
O2    O     O_R   0.982940 0.510160 0.138950 -0.648470
O3    O     O_R   0.861050 0.017060 0.489840 -0.653423
O4    O     O_R   0.138950 0.982940 0.510160 -0.638642
O5    O     O_R   0.867700 0.025880 0.612340 -0.621543
O6    O     O_R   0.132300 0.974120 0.387660 -0.602736
O7    O     O_R   0.025880 0.612340 0.867700 -0.601680
O8    O     O_R   0.974120 0.387660 0.132300 -0.615070
O9    O     O_R   0.612340 0.867700 0.025880 -0.610047
O10   O     O_R   0.387660 0.132300 0.974120 -0.609792
O11   O     O_R   0.387660 0.974120 0.132300 -0.611082
O12   O     O_R   0.017060 0.861050 0.489840 -0.649974
O13   O     O_R   0.612340 0.025880 0.867700 -0.609423
O14   O     O_R   0.132300 0.387660 0.974120 -0.617388
O15   O     O_R   0.867700 0.612340 0.025880 -0.610979
O16   O     O_R   0.974120 0.132300 0.387660 -0.604034
O17   O     O_R   0.025880 0.867700 0.612340 -0.622540
O18   O     O_R   0.138950 0.510160 0.982940 -0.641153
O19   O     O_R   0.861050 0.489840 0.017060 -0.639218
O20   O     O_R   0.510160 0.982940 0.138950 -0.630469
O21   O     O_R   0.489840 0.017060 0.861050 -0.629803
O22   O     O_R   0.489840 0.861050 0.017060 -0.633097
O23   O     O_R   0.510160 0.138950 0.982940 -0.631711
O24   O     O_R   0.017060 0.489840 0.861050 -0.629905
Zn1   Zn    Zn3+2 0.004880 0.004880 0.583590 0.955028
Zn2   Zn    Zn3+2 0.995120 0.995120 0.416410 0.966303
Zn3   Zn    Zn3+2 0.004880 0.583590 0.004880 0.960833
Zn4   Zn    Zn3+2 0.995120 0.416410 0.995120 0.961239
Zn5   Zn    Zn3+2 0.583590 0.004880 0.004880 0.965604
Zn6   Zn    Zn3+2 0.416410 0.995120 0.995120 0.965902

loop_
_geom_bond_atom_site_label_1
_geom_bond_atom_site_label_2
_ccdc_geom_bond_type
C15   C75   S    
C37   C43   A    
C65   C79   A    
C64   C77   A    
C9    O20   A    
C29   H16   S    
C36   C42   A    
C8    O19   A    
C16   C72   S    
C15   O8    A    
C7    C70   S    
C71   C79   A    
C20   H7    S    
O8    Zn4   S    
C36   C88   A    
C1    C18   A    
C26   C78   A    
C37   C90   A    
O7    Zn3   S    
C68   C81   A    
C52   C85   A    
C92   N2    T    
C27   C60   A    
C54   C87   A    
O10   Zn6   S    
C19   H6    S    
C11   O22   A    
C54   C68   A    
C63   C76   A    
C83   C96   S    
C40   C49   A    
C60   C73   A    
C55   C88   A    
O9    Zn5   S    
C56   H21   S    
C32   C39   A    
O16   Zn2   S    
O18   Zn3   S    
C3    C29   A    
C16   O5    A    
C69   C82   A    
O1    Zn1   S    
C21   H8    S    
C9    O11   A    
C19   C52   A    
C3    C41   A    
O20   Zn5   S    
C4    C40   A    
C27   H14   S    
C24   C57   A    
C31   C46   A    
C25   C67   A    
C35   C49   A    
C89   H24   S    
C36   C48   A    
C53   C86   A    
C57   C70   A    
C37   C47   A    
C43   C48   A    
C10   O21   A    
C28   C61   A    
O17   Zn1   S    
C30   C63   A    
C17   O6    A    
C5    O1    A    
C35   C87   A    
C74   C82   A    
C5    C68   S    
C35   C41   A    
C7    O18   A    
C18   C51   A    
C28   H15   S    
C32   C44   A    
C33   C40   A    
C57   C90   A    
C70   C83   A    
C59   C84   A    
O3    Zn2   S    
C1    H1    S    
C12   H12   S    
C75   C81   A    
C23   C50   A    
C21   C34   A    
C38   C78   A    
O12   Zn2   S    
C34   H19   S    
C6    O17   A    
C31   C84   A    
O11   Zn6   S    
C18   H5    S    
C14   C76   S    
C6    O12   A    
C33   C86   A    
C38   C44   A    
C72   C77   A    
C16   O3    A    
C61   C88   A    
C11   O9    A    
C95   N5    T    
C20   C23   A    
O13   Zn5   S    
C14   O24   A    
C8    C69   S    
C96   N6    T    
C43   C89   A    
C93   N3    T    
O21   Zn6   S    
C26   H13   S    
C79   C92   S    
C8    O15   A    
O2    Zn3   S    
C39   C46   A    
O19   Zn4   S    
C13   C73   S    
C17   C71   S    
C15   O2    A    
C4    H4    S    
C63   C86   A    
C91   N1    T    
O6    Zn2   S    
C13   O10   A    
C62   C75   A    
C24   H10   S    
C10   O13   A    
C58   C85   A    
C41   C50   A    
C25   H11   S    
C25   C58   A    
C26   C59   A    
C45   C48   A    
C29   C62   A    
C77   C91   S    
C34   C49   A    
C82   C95   S    
C17   O4    A    
C39   C67   A    
C10   C64   S    
C51   C64   A    
C76   C80   A    
C20   C53   A    
C11   C74   S    
C22   C55   A    
C14   O7    A    
C60   C90   A    
C61   C74   A    
C24   C56   A    
C22   H9    S    
C66   C80   A    
C62   C87   A    
C59   C72   A    
C31   C38   A    
C55   C69   A    
C78   H23   S    
C33   C50   A    
C13   O23   A    
C12   C44   A    
C53   C66   A    
C23   H18   S    
C81   C94   S    
C45   H20   S    
O15   Zn3   S    
C5    O16   A    
C21   C54   A    
C2    C42   A    
C32   C85   A    
C12   C19   A    
O5    Zn1   S    
C27   C89   A    
C42   C47   A    
O23   Zn5   S    
C1    C46   A    
C67   H22   S    
C9    C65   S    
C58   C71   A    
C3    H3    S    
C7    O14   A    
C6    C66   S    
C22   C45   A    
C2    H2    S    
O24   Zn4   S    
O4    Zn1   S    
C2    C28   A    
O22   Zn6   S    
C80   C93   S    
C51   C84   A    
C73   C83   A    
C4    C30   A    
C52   C65   A    
O14   Zn4   S    
C47   C56   A    
C30   H17   S    
C94   N4    T    
