data_mof_unit_32075.cif
_audit_creation_date              2012-12-11T15:29:41-0500
_audit_creation_method            fapswitch 2.2
_symmetry_space_group_name_H-M    P1
_symmetry_Int_Tables_number       1
_space_group_crystal_system       triclinic
_cell_length_a                    21.402739
_cell_length_b                    7.244481
_cell_length_c                    14.743653
_cell_angle_alpha                 89.98754
_cell_angle_beta                  74.27636
_cell_angle_gamma                 90.013911
_cell_volume                      2200.48566435

loop_
_atom_site_label
_atom_site_type_symbol
_atom_type_description
_atom_site_fract_x
_atom_site_fract_y
_atom_site_fract_z
_atom_type_partial_charge
O1    O     O_R   0.464160 0.506670 0.130070 -0.545874
O2    O     O_R   0.535840 0.006670 0.869930 -0.545407
O3    O     O_R   0.589710 0.179080 0.006710 -0.546676
O4    O     O_R   0.410290 0.679080 0.993290 -0.546325
C1    C     C_R   0.616364 0.344123 0.001929 0.730091
C2    C     C_R   0.383643 0.844096 0.998043 0.729767
O5    O     O_R   0.467940 0.177220 0.138010 -0.527460
O6    O     O_R   0.532060 0.677220 0.861990 -0.525747
O7    O     O_R   0.413200 0.002810 0.002170 -0.544931
O8    O     O_R   0.586800 0.502810 0.997830 -0.545165
C3    C     C_R   0.455761 0.345579 0.174523 0.853854
C4    C     C_R   0.544178 0.845704 0.825481 0.851819
O9    O     O_3   0.482180 0.337850 0.955280 -0.385240
O10   O     O_3   0.517820 0.837850 0.044720 -0.386802
V1    V     V_3+5 0.503310 0.064600 0.008300 1.535349
V2    V     V_3+5 0.496690 0.564600 0.991700 1.537559
C5    C     C_R   0.572527 0.857475 0.723412 -0.166043
C6    C     C_R   0.427190 0.356370 0.276591 -0.167580
C7    C     C_R   0.930142 0.866881 0.277504 -0.129527
C8    C     C_R   0.069549 0.366518 0.722373 -0.122090
C9    C     C_R   0.563878 0.940359 0.568529 -0.200911
C10   C     C_R   0.436596 0.423798 0.432853 -0.201860
C11   C     C_R   0.534569 0.916260 0.665062 0.297443
C12   C     C_R   0.465753 0.404286 0.335971 0.296300
C13   C     C_R   0.639218 0.826051 0.686428 0.479315
C14   C     C_R   0.360106 0.331121 0.312926 0.478638
C15   C     C_R   0.670687 0.868722 0.590958 -0.074096
C16   C     C_R   0.329082 0.368506 0.409139 -0.073687
C17   C     C_R   0.631155 0.917954 0.531303 -0.108922
C18   C     C_R   0.369070 0.406720 0.469668 -0.108368
C19   C     C_R   0.739766 0.867347 0.552752 0.032449
C20   C     C_R   0.260028 0.371345 0.447372 0.027624
C21   C     C_R   0.767014 0.880610 0.453692 -0.024872
C22   C     C_R   0.232879 0.377747 0.546662 -0.025556
C23   C     C_R   0.725835 0.930840 0.397487 -0.239744
C24   C     C_R   0.274481 0.417263 0.603794 -0.238762
C25   C     C_R   0.659389 0.950155 0.435451 0.660627
C26   C     C_R   0.341116 0.432633 0.566129 0.661097
C27   C     C_R   0.782365 0.874776 0.610553 -0.133080
C28   C     C_R   0.217589 0.389493 0.389754 -0.122830
C29   C     C_R   0.849194 0.892146 0.573250 0.350516
C30   C     C_R   0.150895 0.409450 0.427329 0.359847
C31   C     C_R   0.877383 0.882894 0.474498 -0.059095
C32   C     C_R   0.122658 0.391455 0.525737 -0.068377
C33   C     C_R   0.835602 0.863550 0.414406 -0.079646
C34   C     C_R   0.164180 0.364019 0.585599 -0.076867
C35   C     C_R   0.945699 0.896469 0.434477 0.308870
C36   C     C_R   0.054318 0.398288 0.565605 0.303849
C37   C     C_R   0.971635 0.893432 0.335090 0.205778
C38   C     C_R   0.028976 0.406471 0.664843 0.186835
C39   C     C_R   0.864006 0.833951 0.316414 0.216447
C40   C     C_R   0.135238 0.327094 0.682910 0.217960
H1    H     H_    0.534169 0.981483 0.523011 0.191714
H2    H     H_    0.466712 0.456397 0.479113 0.191971
H3    H     H_    0.744853 0.968029 0.324220 0.198497
H4    H     H_    0.255768 0.448687 0.677825 0.197136
H5    H     H_    0.764833 0.890197 0.685851 0.207457
H6    H     H_    0.235414 0.412077 0.314947 0.207415
C41   C     C_3   0.212227 0.659362 0.995984 -0.320291
C42   C     C_3   0.787788 0.159332 0.003778 -0.320169
H7    H     H_    0.183053 0.578976 0.057286 0.162332
H8    H     H_    0.816970 0.079206 0.942418 0.160063
H9    H     H_    0.206386 0.591639 0.930981 0.165209
H10   H     H_    0.793612 0.091320 0.068732 0.167165
C43   C     C_3   0.284384 0.652712 0.995506 -0.291155
C44   C     C_3   0.715637 0.152721 0.004221 -0.291298
H11   H     H_    0.312439 0.578883 0.931125 0.203329
H12   H     H_    0.687578 0.078526 0.068511 0.203460
H13   H     H_    0.289146 0.571328 0.057367 0.147969
H14   H     H_    0.710883 0.071686 0.942263 0.144858
H15   H     H_    0.168904 0.876024 0.155047 0.185594
H16   H     H_    0.831123 0.376779 0.844891 0.184889
H17   H     H_    0.276645 0.869496 0.152947 0.187825
H18   H     H_    0.723354 0.370376 0.847009 0.188909
C45   C     C_3   0.198082 0.950737 0.091721 -0.323808
C46   C     C_3   0.801942 0.451170 0.908298 -0.327337
C47   C     C_3   0.229818 0.967346 0.914633 -0.355529
C48   C     C_3   0.770213 0.466961 0.085394 -0.356536
C49   C     C_3   0.187237 0.861776 0.001310 0.015394
C50   C     C_3   0.812782 0.361753 0.998630 0.017635
H19   H     H_    0.213992 0.113987 0.916656 0.130099
H20   H     H_    0.786035 0.613619 0.083473 0.130089
H21   H     H_    0.223011 0.906246 0.848712 0.184642
H22   H     H_    0.777036 0.405613 0.151265 0.183664
C51   C     C_3   0.312313 0.850617 0.998780 -0.021135
C52   C     C_3   0.687705 0.350662 0.001162 -0.020360
C53   C     C_3   0.271032 0.945304 0.089967 -0.420584
C54   C     C_3   0.728985 0.445813 0.910068 -0.419009
C55   C     C_3   0.302802 0.960635 0.912912 0.537332
C56   C     C_3   0.697228 0.460212 0.087139 0.537335
H23   H     H_    0.320870 0.104245 0.914894 0.061576
H24   H     H_    0.679135 0.603818 0.085344 0.059594
H25   H     H_    0.181139 0.096577 0.097890 0.170744
H26   H     H_    0.818896 0.597031 0.902262 0.169995
H27   H     H_    0.288630 0.088683 0.094469 0.191772
H28   H     H_    0.711398 0.589241 0.905732 0.190272
O11   O     O_R   0.913210 0.208550 0.002110 -0.546156
O12   O     O_R   0.086790 0.708550 0.997890 -0.545901
O13   O     O_R   0.032060 0.539960 0.861980 -0.541034
O14   O     O_R   0.967940 0.039960 0.138020 -0.542614
C57   C     C_R   0.043721 0.372651 0.825203 0.839329
C58   C     C_R   0.956221 0.872665 0.174743 0.845716
O15   O     O_R   0.910290 0.538020 0.993280 -0.539341
O16   O     O_R   0.089710 0.038020 0.006720 -0.539377
O17   O     O_R   0.964160 0.712340 0.130090 -0.530635
O18   O     O_R   0.035840 0.212340 0.869910 -0.530578
C59   C     C_R   0.884061 0.369717 0.997720 0.690882
C60   C     C_R   0.115947 0.869743 0.002251 0.693594
O19   O     O_3   0.017820 0.379210 0.044690 -0.382781
O20   O     O_3   0.982180 0.879210 0.955310 -0.383047
V3    V     V_3+5 0.996690 0.652500 0.991710 1.485834
V4    V     V_3+5 0.003310 0.152500 0.008290 1.486011
F1    F     F_    0.622663 0.002685 0.377802 -0.654131
F2    F     F_    0.378343 0.474512 0.624748 -0.656082
O21   O     O_3   0.986069 0.914535 0.492781 -0.630046
H29   H     H_    0.020902 0.003509 0.463747 0.311728
O22   O     O_3   0.013416 0.392054 0.507425 -0.628048
H30   H     H_    0.970973 0.340255 0.542828 0.298270
F3    F     F_    0.338445 0.880467 0.829569 -0.642012
F4    F     F_    0.661628 0.379531 0.170389 -0.640834
O23   O     O_3   0.829764 0.762092 0.257476 -0.660334
H31   H     H_    0.796389 0.676852 0.295013 0.305917
O24   O     O_3   0.168607 0.245994 0.740582 -0.659538
H32   H     H_    0.201477 0.161534 0.701403 0.305321
O25   O     O_3   0.037426 0.907241 0.291757 -0.650949
H33   H     H_    0.062148 0.863142 0.335261 0.300525
O26   O     O_3   0.964639 0.447573 0.707421 -0.657279
H34   H     H_    0.947465 0.522763 0.663427 0.329116
O27   O     O_3   0.885242 0.921395 0.636224 -0.616253
H35   H     H_    0.905427 0.044848 0.621112 0.317092
O28   O     O_3   0.115479 0.453867 0.365145 -0.616569
H36   H     H_    0.088513 0.562394 0.391600 0.328784
O29   O     O_3   0.469076 0.947433 0.703765 -0.584395
H37   H     H_    0.449489 0.988367 0.653404 0.338616
O30   O     O_3   0.531668 0.429009 0.297952 -0.582913
H38   H     H_    0.551687 0.462119 0.349049 0.340442
F5    F     F_    0.671331 0.745987 0.743957 -0.732390
F6    F     F_    0.327128 0.260621 0.254053 -0.733159

loop_
_geom_bond_atom_site_label_1
_geom_bond_atom_site_label_2
_ccdc_geom_bond_type
C44   H12   S    
C54   H28   S    
C3    C6    S    
C15   C17   A    
C21   C33   A    
C6    C14   A    
H16   C46   S    
O2    C4    A    
C2    O7    A    
O30   H38   S    
C27   C29   A    
O18   V4    S    
C48   C56   S    
C35   O21   S    
C50   C59   S    
C47   C55   S    
C5    C11   A    
C2    C51   S    
C6    C12   A    
C42   H8    S    
C23   C25   A    
C26   F2    S    
C7    C58   S    
C48   C50   S    
C25   F1    S    
C33   C39   A    
O21   H29   S    
C27   H5    S    
C34   C40   A    
O12   C60   A    
C18   C26   A    
C58   O17   A    
O15   V3    S    
C48   H20   S    
O20   V3    S    
H17   C53   S    
C8    C38   A    
C46   H26   S    
C55   F3    S    
C16   C18   A    
C43   H11   S    
C53   H27   S    
C4    C5    S    
C19   C21   A    
C30   O28   S    
C22   C34   A    
C55   H23   S    
C46   C54   S    
O24   H32   S    
O5    V1    S    
O17   V3    S    
C42   C44   S    
O6    V2    S    
H15   C45   S    
C29   C31   A    
C30   C32   A    
C32   C34   A    
O5    C3    A    
C51   C53   S    
C41   H7    S    
C28   H6    S    
C11   O29   S    
C52   C54   S    
C15   C19   A    
C16   C20   A    
C10   H2    S    
C52   C56   S    
O19   V4    S    
C41   C49   S    
O16   V4    S    
O11   V4    S    
C51   C55   S    
C8    C57   S    
O3    C1    A    
C9    C17   A    
C23   H3    S    
C56   F4    S    
O4    V2    S    
C13   F5    S    
C24   H4    S    
C48   H22   S    
C9    H1    S    
C7    C37   A    
C56   H24   S    
C47   H19   S    
O6    C4    A    
O13   V3    S    
O14   C58   A    
C47   C49   S    
O1    V2    S    
O2    V1    S    
C31   C33   A    
O23   H31   S    
C1    C52   S    
C12   O30   S    
C45   C53   S    
O13   C57   A    
O14   V4    S    
C9    C11   A    
O25   H33   S    
C39   O23   S    
C10   C12   A    
O4    C2    A    
C13   C15   A    
O26   H34   S    
O16   C60   A    
O3    V1    S    
C45   H25   S    
O27   H35   S    
C57   O18   A    
C42   C50   S    
O12   V3    S    
C10   C18   A    
C41   H9    S    
C46   C50   S    
C28   C30   A    
C14   F6    S    
C44   C52   S    
C43   C51   S    
C36   O22   S    
C38   O26   S    
C35   C37   A    
C37   O25   S    
C44   H14   S    
C14   C16   A    
C42   H10   S    
C5    C13   A    
C24   C26   A    
O7    V1    S    
C1    O8    A    
C8    C40   A    
C32   C36   A    
O8    V2    S    
O22   H30   S    
C41   C43   S    
C29   O27   S    
C21   C23   A    
O29   H37   S    
C45   C49   S    
C43   H13   S    
C36   C38   A    
C40   O24   S    
C19   C27   A    
C49   C60   S    
C22   C24   A    
C20   C28   A    
O11   C59   A    
C7    C39   A    
O9    V2    S    
C17   C25   A    
C47   H21   S    
O10   V1    S    
O15   C59   A    
O1    C3    A    
H18   C54   S    
C31   C35   A    
O28   H36   S    
C20   C22   A    
