data_mof_unit_68049.cif
_audit_creation_date              2012-12-11T14:39:16-0500
_audit_creation_method            fapswitch 2.2
_symmetry_space_group_name_H-M    P1
_symmetry_Int_Tables_number       1
_space_group_crystal_system       triclinic
_cell_length_a                    7.349031
_cell_length_b                    14.21716
_cell_length_c                    16.149486
_cell_angle_alpha                 89.999592
_cell_angle_beta                  97.861722
_cell_angle_gamma                 89.999568
_cell_volume                      1671.47707915

loop_
_atom_site_label
_atom_site_type_symbol
_atom_type_description
_atom_site_fract_x
_atom_site_fract_y
_atom_site_fract_z
_atom_type_partial_charge
O1    O     O_R   0.525340 0.338340 0.164530 -0.535377
O2    O     O_R   0.474660 0.661660 0.835470 -0.534110
O3    O     O_R   0.974660 0.838340 0.835470 -0.535381
O4    O     O_R   0.025340 0.161660 0.164530 -0.534106
O5    O     O_R   0.253520 0.352000 0.336710 -0.552503
O6    O     O_R   0.746480 0.648000 0.663290 -0.544675
O7    O     O_R   0.246480 0.852000 0.663290 -0.552505
O8    O     O_R   0.753520 0.148000 0.336710 -0.544674
O9    O     O_R   0.083330 0.168380 0.337300 -0.535131
O10   O     O_R   0.916670 0.831620 0.662700 -0.533631
O11   O     O_R   0.416670 0.668380 0.662700 -0.535130
O12   O     O_R   0.583330 0.331620 0.337300 -0.533630
C1    C     C_R   0.431794 0.369480 0.362391 0.685074
C2    C     C_R   0.567108 0.632470 0.635877 0.680126
C3    C     C_R   0.068205 0.869476 0.637607 0.685078
C4    C     C_R   0.932892 0.132465 0.364120 0.680119
O13   O     O_R   0.195840 0.349670 0.165140 -0.541440
O14   O     O_R   0.804160 0.650330 0.834860 -0.541273
O15   O     O_R   0.304160 0.849670 0.834860 -0.541442
O16   O     O_R   0.695840 0.150330 0.165140 -0.541277
C5    C     C_R   0.356718 0.370248 0.136808 0.737146
C6    C     C_R   0.643123 0.629367 0.862911 0.741931
C7    C     C_R   0.143282 0.870245 0.863194 0.737166
C8    C     C_R   0.856880 0.129360 0.137095 0.741896
O17   O     O_3   0.387830 0.193120 0.250910 -0.376951
O18   O     O_3   0.612170 0.806880 0.749090 -0.383882
O19   O     O_3   0.112170 0.693120 0.749090 -0.376952
O20   O     O_3   0.887830 0.306880 0.250910 -0.383877
V1    V     V_3+5 0.113010 0.264540 0.250910 1.352464
V2    V     V_3+5 0.886990 0.735460 0.749090 1.357057
V3    V     V_3+5 0.386990 0.764540 0.749090 1.352447
V4    V     V_3+5 0.613010 0.235460 0.250910 1.357086
C9    C     C_R   0.072143 0.195531 0.531517 -0.198277
C10   C     C_R   0.945322 0.807064 0.471009 -0.207411
C11   C     C_R   0.427853 0.695537 0.468481 -0.198275
C12   C     C_R   0.554684 0.307070 0.528994 -0.207412
C13   C     C_R   0.124781 0.230329 0.613142 0.106067
C14   C     C_R   0.875083 0.773023 0.391818 0.109473
C15   C     C_R   0.375220 0.730340 0.386858 0.106092
C16   C     C_R   0.624939 0.273031 0.608186 0.109481
C17   C     C_R   0.160471 0.165827 0.680465 0.061037
C18   C     C_R   0.845310 0.835952 0.323312 0.097727
C19   C     C_R   0.339521 0.665844 0.319532 0.061060
C20   C     C_R   0.654740 0.335965 0.676688 0.097707
C21   C     C_R   0.128609 0.069113 0.664319 -0.200388
C22   C     C_R   0.883185 0.932325 0.337986 -0.207608
C23   C     C_R   0.371377 0.569126 0.335676 -0.200409
C24   C     C_R   0.616857 0.432336 0.662009 -0.207597
C25   C     C_R   0.069556 0.034500 0.582864 0.040284
C26   C     C_R   0.942337 0.967670 0.419213 0.044552
C27   C     C_R   0.430436 0.534508 0.417131 0.040299
C28   C     C_R   0.557680 0.467677 0.580782 0.044574
C29   C     C_R   0.041285 0.098464 0.515308 0.009676
C30   C     C_R   0.974762 0.903870 0.486544 0.023601
C31   C     C_R   0.458710 0.598470 0.484688 0.009654
C32   C     C_R   0.525244 0.403877 0.513454 0.023589
C33   C     C_R   0.035463 0.937288 0.568249 -0.155112
C34   C     C_R   0.972127 0.065210 0.433879 -0.152744
C35   C     C_R   0.464532 0.437293 0.431748 -0.155110
C36   C     C_R   0.527877 0.565215 0.566117 -0.152764
H1    H     H_    0.049094 0.244946 0.480540 0.126856
H2    H     H_    0.969979 0.756422 0.521324 0.126435
H3    H     H_    0.450903 0.744948 0.519460 0.126851
H4    H     H_    0.530010 0.256427 0.478681 0.126436
H5    H     H_    0.150357 0.020149 0.715625 0.114618
H6    H     H_    0.865190 0.980530 0.286078 0.109826
H7    H     H_    0.349612 0.520164 0.284368 0.114616
H8    H     H_    0.634869 0.480544 0.713913 0.109831
H9    H     H_    0.138186 0.055678 0.065430 0.164008
H10   H     H_    0.862351 0.945354 0.933871 0.159836
H11   H     H_    0.361816 0.555652 0.934552 0.164010
H12   H     H_    0.637657 0.445338 0.066118 0.159906
C37   C     C_2   0.150858 0.935837 0.935343 -0.355561
C38   C     C_2   0.849731 0.062778 0.065665 -0.357082
C39   C     C_2   0.349148 0.435846 0.064662 -0.355543
C40   C     C_2   0.650276 0.562805 0.934354 -0.357107
C41   C     C_2   0.996818 0.967234 0.964106 -0.127086
C42   C     C_2   0.003763 0.032475 0.036171 -0.127204
C43   C     C_2   0.503189 0.467234 0.035894 -0.126979
C44   C     C_2   0.496243 0.532478 0.963831 -0.127224
H13   H     H_    0.716026 0.039050 0.036115 0.133252
H14   H     H_    0.284745 0.958289 0.965741 0.135534
H15   H     H_    0.783985 0.539117 0.963931 0.133237
H16   H     H_    0.215262 0.458311 0.034272 0.135529
C45   C     C_3   0.764645 0.799257 0.237291 -0.391196
C46   C     C_3   0.749702 0.868835 0.164106 -0.326771
C47   C     C_3   0.648280 0.824781 0.084465 -0.753169
H17   H     H_    0.707291 0.755283 0.071578 0.230068
H18   H     H_    0.501024 0.815517 0.091009 0.220462
H19   H     H_    0.657378 0.871592 0.030227 0.211968
H20   H     H_    0.670557 0.932045 0.178259 0.196367
H21   H     H_    0.890155 0.889695 0.153195 0.210111
H22   H     H_    0.841197 0.736921 0.220428 0.178329
H23   H     H_    0.627360 0.773446 0.242506 0.175524
C48   C     C_3   0.239902 0.201657 0.767655 -0.404553
C49   C     C_3   0.281276 0.127310 0.836427 -0.320933
C50   C     C_3   0.362189 0.171945 0.919433 -0.747456
H24   H     H_    0.484210 0.214861 0.911273 0.232589
H25   H     H_    0.259019 0.217415 0.943838 0.226439
H26   H     H_    0.404621 0.116334 0.966276 0.206548
H27   H     H_    0.150766 0.092017 0.845188 0.211378
H28   H     H_    0.380509 0.074588 0.818562 0.194511
H29   H     H_    0.366422 0.240720 0.761521 0.179704
H30   H     H_    0.150056 0.254131 0.791038 0.175959
C51   C     C_3   0.735397 0.299283 0.762719 -0.391215
C52   C     C_3   0.750680 0.368937 0.835846 -0.326849
C53   C     C_3   0.851930 0.324891 0.915526 -0.753987
H31   H     H_    0.792200 0.255734 0.928670 0.230166
H32   H     H_    0.998862 0.315069 0.908888 0.220742
H33   H     H_    0.843741 0.371919 0.969636 0.212000
H34   H     H_    0.830067 0.432023 0.821615 0.196450
H35   H     H_    0.610341 0.389980 0.846751 0.210213
H36   H     H_    0.658691 0.237041 0.779649 0.178417
H37   H     H_    0.872578 0.273345 0.757489 0.175535
C54   C     C_3   0.260070 0.701685 0.232346 -0.404563
C55   C     C_3   0.218718 0.627352 0.163562 -0.320917
C56   C     C_3   0.137867 0.672014 0.080557 -0.747439
H38   H     H_    0.015761 0.714886 0.088696 0.232647
H39   H     H_    0.241043 0.717536 0.056206 0.226455
H40   H     H_    0.095566 0.616416 0.033679 0.206545
H41   H     H_    0.349231 0.592051 0.154811 0.211363
H42   H     H_    0.119456 0.574632 0.181409 0.194473
H43   H     H_    0.133528 0.740734 0.238484 0.179737
H44   H     H_    0.349902 0.754172 0.208966 0.175955
C57   C     C_3   0.138064 0.335666 0.631054 -0.367858
C58   C     C_3   0.056699 0.401907 0.560645 -0.345336
C59   C     C_3   0.051417 0.502625 0.593163 -0.682446
H45   H     H_    0.969107 0.506189 0.645712 0.236010
H46   H     H_    0.192027 0.527396 0.615860 0.235449
H47   H     H_    0.988570 0.550279 0.543125 0.210533
H48   H     H_    0.140199 0.400050 0.508441 0.210055
H49   H     H_    0.914655 0.379812 0.536823 0.208879
H50   H     H_    0.064008 0.350908 0.684670 0.175766
H51   H     H_    0.283117 0.354324 0.650570 0.191205
C60   C     C_3   0.810416 0.671778 0.386229 -0.389485
C61   C     C_3   0.952657 0.602439 0.364719 -0.374305
C62   C     C_3   0.875685 0.502988 0.358081 -0.698336
H52   H     H_    0.825679 0.482144 0.417017 0.226047
H53   H     H_    0.761235 0.498142 0.305629 0.227371
H54   H     H_    0.985300 0.453779 0.346112 0.245283
H55   H     H_    0.991370 0.620655 0.303336 0.216141
H56   H     H_    0.072760 0.604753 0.414117 0.228257
H57   H     H_    0.772061 0.650422 0.447342 0.191469
H58   H     H_    0.688926 0.664485 0.339143 0.200297
C63   C     C_3   0.361938 0.835679 0.368953 -0.367869
C64   C     C_3   0.443299 0.901913 0.439368 -0.345322
C65   C     C_3   0.448581 0.002634 0.406856 -0.682500
H59   H     H_    0.530954 0.006207 0.354332 0.236036
H60   H     H_    0.307983 0.027395 0.384127 0.235459
H61   H     H_    0.511353 0.050289 0.456905 0.210531
H62   H     H_    0.359796 0.900051 0.491571 0.210057
H63   H     H_    0.585345 0.879817 0.463191 0.208872
H64   H     H_    0.435991 0.850930 0.315340 0.175732
H65   H     H_    0.216887 0.854338 0.349438 0.191208
C66   C     C_3   0.689594 0.171783 0.613773 -0.389481
C67   C     C_3   0.547363 0.102456 0.635309 -0.374320
C68   C     C_3   0.624318 0.003001 0.641948 -0.698277
H66   H     H_    0.674316 0.982158 0.583008 0.226041
H67   H     H_    0.738777 0.998148 0.694400 0.227369
H68   H     H_    0.514690 0.953794 0.653915 0.245279
H69   H     H_    0.508694 0.120686 0.696698 0.216158
H70   H     H_    0.427241 0.104771 0.585922 0.228259
H71   H     H_    0.727914 0.150419 0.552655 0.191451
H72   H     H_    0.811103 0.164482 0.660845 0.200310

loop_
_geom_bond_atom_site_label_1
_geom_bond_atom_site_label_2
_ccdc_geom_bond_type
C57   H51   S    
C49   H27   S    
C47   H17   S    
O1    C5    A    
C68   H66   S    
C49   H28   S    
C3    C33   S    
O3    C7    A    
C48   C49   S    
C13   C57   S    
C6    C40   S    
O15   V3    S    
C50   H24   S    
C25   C33   A    
C60   C61   S    
C52   H35   S    
C41   C42   S    
C62   H53   S    
C58   C59   S    
C55   H42   S    
C51   H36   S    
C67   C68   S    
C65   H60   S    
O9    C4    A    
C14   C18   A    
H12   C43   S    
O10   C3    A    
C56   H39   S    
O4    C8    A    
O11   C2    A    
C39   H16   S    
O8    C4    A    
C52   C53   S    
C54   C55   S    
C10   H2    S    
O13   V1    S    
C55   C56   S    
C18   C22   A    
C61   H56   S    
C28   C36   A    
C65   H59   S    
C19   C54   S    
C45   H22   S    
O16   C8    A    
O2    C6    A    
C53   H31   S    
C16   C66   S    
O14   V2    S    
C21   C25   A    
C16   C20   A    
O5    C1    A    
O4    V1    S    
O9    V1    S    
C63   H64   S    
O17   V4    S    
C60   H57   S    
C62   H52   S    
C67   H70   S    
O18   V3    S    
C68   H67   S    
C10   C14   A    
C31   C36   A    
O12   V4    S    
O19   V2    S    
C53   H32   S    
H9    C42   S    
C7    C37   S    
C40   H15   S    
C23   H7    S    
H11   C44   S    
C50   H25   S    
C48   H29   S    
C63   C64   S    
O5    V1    S    
C52   H34   S    
C9    C29   A    
C62   H54   S    
C54   H43   S    
C55   H41   S    
C11   C31   A    
C26   C34   A    
C51   H37   S    
C12   C16   A    
C65   H61   S    
O7    V3    S    
C56   H40   S    
C46   C47   S    
C23   C27   A    
C66   H71   S    
C45   C46   S    
O1    V4    S    
O13   C5    A    
C64   H62   S    
O2    V3    S    
O8    V4    S    
O3    V2    S    
C11   C15   A    
C59   H46   S    
C61   H55   S    
C12   C32   A    
O6    C2    A    
C45   H23   S    
O10   V2    S    
C58   H49   S    
C49   C50   S    
C15   C63   S    
C18   C45   S    
C4    C34   S    
C14   C60   S    
C24   H8    S    
C64   H63   S    
C63   H65   S    
C60   H58   S    
O6    V2    S    
C67   H69   S    
C10   C30   A    
C68   H68   S    
C47   H18   S    
C21   H5    S    
C57   C58   S    
C53   H33   S    
C27   C35   A    
C38   H13   S    
C59   H45   S    
C37   H14   S    
C50   H26   S    
C48   H30   S    
O15   C7    A    
C20   C51   S    
C64   C65   S    
O16   V4    S    
C57   H50   S    
C5    C39   S    
O20   V1    S    
C37   C41   D    
C54   H44   S    
O14   C6    A    
C40   C44   D    
C61   C62   S    
C15   C19   A    
C29   C34   A    
C22   H6    S    
C1    C35   S    
C66   H72   S    
C2    C36   S    
C51   C52   S    
C22   C26   A    
C32   C35   A    
C46   H20   S    
C59   H47   S    
C26   C30   A    
C46   H21   S    
C56   H38   S    
C8    C38   S    
C17   C48   S    
C19   C23   A    
C58   H48   S    
C25   C29   A    
O7    C3    A    
C27   C31   A    
C13   C17   A    
C9    C13   A    
O11   V3    S    
C43   C44   S    
C20   C24   A    
C24   C28   A    
O12   C1    A    
C9    H1    S    
C38   C42   D    
C47   H19   S    
C66   C67   S    
C17   C21   A    
C11   H3    S    
C12   H4    S    
C39   C43   D    
C28   C32   A    
H10   C41   S    
C30   C33   A    
