data_mof_unit_26745.cif
_audit_creation_date              2013-03-05T15:45:32-0500
_audit_creation_method            fapswitch 2.2
_symmetry_space_group_name_H-M    P1
_symmetry_Int_Tables_number       1
_space_group_crystal_system       triclinic
_cell_length_a                    11.361651
_cell_length_b                    11.137063
_cell_length_c                    18.813369
_cell_angle_alpha                 90.166963
_cell_angle_beta                  89.085531
_cell_angle_gamma                 59.699509
_cell_volume                      2054.92494849

loop_
_atom_site_label
_atom_site_type_symbol
_atom_site_description
_atom_site_fract_x
_atom_site_fract_y
_atom_site_fract_z
_atom_type_partial_charge
O1    O     O_R   0.507430 0.255570 0.581420 -0.550147
O2    O     O_R   0.280190 0.527390 0.578910 -0.457695
C1    C     C_R   0.247966 0.644050 0.612594 0.646535
O3    O     O_R   0.260310 0.739740 0.584580 -0.436103
O4    O     O_R   0.532250 0.695150 0.573830 -0.511418
C2    C     C_R   0.650629 0.621325 0.600028 0.650248
O5    O     O_R   0.744930 0.503430 0.576380 -0.462533
O6    O     O_R   0.699250 0.276390 0.571950 -0.410446
C3    C     C_R   0.627496 0.224599 0.600876 0.592838
O7    O     O_R   0.499020 0.256400 0.419850 -0.499846
O8    O     O_R   0.272400 0.528160 0.429140 -0.478286
C4    C     C_R   0.224414 0.647390 0.401411 0.591109
O9    O     O_R   0.251910 0.740570 0.423020 -0.461296
O10   O     O_R   0.524460 0.695920 0.424060 -0.534605
C5    C     C_R   0.639303 0.620889 0.391861 0.544613
O11   O     O_R   0.736530 0.504260 0.414810 -0.478413
O12   O     O_R   0.691460 0.277160 0.422180 -0.484963
C6    C     C_R   0.615884 0.232919 0.394904 0.569054
Cr1   Cr    Cr6+3 0.392930 0.397900 0.502230 1.090496
Cr2   Cr    Cr6+3 0.398240 0.708600 0.501260 1.098033
Cr3   Cr    Cr6+3 0.708800 0.393470 0.496460 1.156089
O13   O     O_3   0.499990 0.499990 0.499980 -0.328635
C7    C     C_3   0.587055 0.813962 0.779814 -0.247454
H1    H     H_    0.606903 0.901262 0.783559 0.227031
H2    H     H_    0.493103 0.848780 0.813073 0.153896
C8    C     C_3   0.556007 0.795681 0.701967 0.107969
H3    H     H_    0.458363 0.796797 0.702874 0.193077
C9    C     C_3   0.839294 0.646496 0.756581 0.448615
C10   C     C_3   0.659183 0.567225 0.800088 0.120415
C11   C     C_3   0.710143 0.673518 0.808326 -0.075402
H4    H     H_    0.548895 0.628268 0.816503 0.115240
C12   C     C_3   0.668251 0.647846 0.673595 -0.016405
C13   C     C_3   0.810598 0.628199 0.678186 0.163662
C14   C     C_3   0.658945 0.533106 0.718855 0.439978
H5    H     H_    0.882744 0.522133 0.662206 0.174174
C15   C     C_R   0.791186 0.100555 0.699757 0.215757
C16   C     C_R   0.802648 0.098370 0.774776 -0.182714
H6    H     H_    0.902329 0.058191 0.797557 0.144927
C17   C     C_R   0.687402 0.139372 0.819688 -0.045661
C18   C     C_R   0.563152 0.170859 0.786726 0.155613
C19   C     C_R   0.558709 0.163351 0.713542 -0.128332
H7    H     H_    0.464201 0.188162 0.690540 0.213157
C20   C     C_R   0.663892 0.153922 0.670369 0.040384
C21   C     C_R   0.200983 0.558366 0.725422 0.191664
C22   C     C_R   0.201534 0.555717 0.799673 -0.089581
H8    H     H_    0.200257 0.472819 0.826385 0.227833
C23   C     C_R   0.199032 0.660888 0.840238 -0.093858
C24   C     C_R   0.223284 0.756841 0.806780 -0.168250
H9    H     H_    0.229515 0.833098 0.839708 0.201213
C25   C     C_R   0.219621 0.770148 0.733019 0.204250
C26   C     C_R   0.213222 0.663819 0.689988 0.061558
C27   C     C_R   0.538514 0.695161 0.274251 -0.165651
H10   H     H_    0.444940 0.702898 0.294333 0.148495
C28   C     C_R   0.552166 0.710146 0.201725 -0.133457
H11   H     H_    0.469106 0.732170 0.166646 0.150111
C29   C     C_R   0.676361 0.688321 0.174785 -0.006883
C30   C     C_R   0.782727 0.662883 0.220871 -0.114058
H12   H     H_    0.877723 0.650754 0.200246 0.140225
C31   C     C_R   0.767819 0.653077 0.293624 0.236862
C32   C     C_R   0.648053 0.661416 0.319745 0.024705
C33   C     C_R   0.598699 0.103272 0.294693 -0.130334
H13   H     H_    0.556036 0.056288 0.329074 0.137304
C34   C     C_R   0.600420 0.085223 0.222246 -0.139080
H14   H     H_    0.564926 0.018210 0.201755 0.154385
C35   C     C_R   0.651948 0.148457 0.176850 0.084596
C36   C     C_R   0.705101 0.228363 0.203672 0.261256
C37   C     C_R   0.699745 0.248752 0.277133 -0.077094
H15   H     H_    0.728388 0.320372 0.298700 0.142869
C38   C     C_R   0.647452 0.185595 0.322236 0.030754
C39   C     C_R   0.082255 0.797035 0.304929 0.128998
C40   C     C_R   0.059803 0.808161 0.232857 -0.182784
H16   H     H_    0.996980 0.911253 0.211390 0.175980
C41   C     C_R   0.116576 0.689823 0.188261 -0.073105
C42   C     C_R   0.185796 0.556132 0.216201 0.195783
C43   C     C_R   0.199235 0.542510 0.289862 0.228237
C44   C     C_R   0.159673 0.663445 0.333253 -0.029045
O14   O     O_R   0.089490 0.825610 0.930610 -0.522512
O15   O     O_R   0.818370 0.054540 0.929880 -0.521100
C45   C     C_R   0.701150 0.102168 0.896341 0.540219
O16   O     O_R   0.605870 0.077310 0.915530 -0.433353
O17   O     O_R   0.646440 0.806700 0.917570 -0.520805
C46   C     C_R   0.730481 0.690472 0.886015 0.529467
O18   O     O_R   0.837200 0.593290 0.915250 -0.527899
O19   O     O_R   0.065330 0.635370 0.931590 -0.523774
C47   C     C_R   0.126483 0.701214 0.909570 0.542933
O20   O     O_R   0.068300 0.828790 0.091860 -0.524003
O21   O     O_R   0.798730 0.057480 0.079370 -0.497215
C48   C     C_R   0.675349 0.103501 0.103831 0.591419
O22   O     O_R   0.584680 0.080480 0.076790 -0.477214
O23   O     O_R   0.626790 0.809640 0.067050 -0.503698
C49   C     C_R   0.700812 0.693812 0.099419 0.544789
O24   O     O_R   0.816010 0.596460 0.076500 -0.515611
O25   O     O_R   0.045680 0.638310 0.081070 -0.465519
C50   C     C_R   0.084921 0.713797 0.113994 0.590919
Cr4   Cr    Cr6+3 0.937620 0.938540 0.007640 1.028145
Cr5   Cr    Cr6+3 0.625150 0.937450 0.994520 1.084079
Cr6   Cr    Cr6+3 0.937990 0.625080 0.001190 1.046653
O26   O     O_3   0.833590 0.833690 0.001120 -0.321823
O27   O     O_3   0.753573 0.394617 0.691525 -0.542294
C51   C     C_3   0.884283 0.310272 0.719725 -0.075203
H17   H     H_    0.882881 0.274005 0.773635 0.158735
H18   H     H_    0.956518 0.344988 0.711402 0.147767
H19   H     H_    0.936699 0.215609 0.686640 0.206249
O28   O     O_3   0.975065 0.534008 0.770551 -0.568253
C52   C     C_3   0.006308 0.428066 0.821121 -0.087070
H20   H     H_    0.925568 0.410359 0.835021 0.187143
H21   H     H_    0.047796 0.444686 0.870312 0.175799
H22   H     H_    0.088568 0.326937 0.800494 0.201273
N1    N     N_R   0.907046 0.015325 0.655519 0.110557
O29   O     O_R   0.921321 0.055781 0.592815 -0.250021
O30   O     O_R   0.969279 0.883368 0.667033 -0.264076
N2    N     N_R   0.437549 0.221373 0.826495 0.090992
O31   O     O_R   0.407426 0.311222 0.878023 -0.375603
O32   O     O_R   0.369036 0.157075 0.821254 -0.312191
N3    N     N_R   0.192023 0.450608 0.687273 0.098455
O33   O     O_R   0.238921 0.328768 0.714565 -0.382460
O34   O     O_R   0.110604 0.481318 0.634261 -0.268926
N4    N     N_R   0.212759 0.897710 0.707959 0.046522
O35   O     O_R   0.164035 0.952885 0.647109 -0.279600
O36   O     O_R   0.229558 0.976708 0.752992 -0.417985
O37   O     O_3   0.874379 0.625615 0.337708 -0.606000
C53   C     C_3   0.838872 0.746259 0.378388 -0.073631
H23   H     H_    0.923440 0.722649 0.414739 0.206307
H24   H     H_    0.746587 0.779435 0.412511 0.143190
H25   H     H_    0.823490 0.833333 0.343554 0.128510
O38   O     O_3   0.747084 0.296138 0.156586 -0.562145
C54   C     C_3   0.873869 0.279714 0.176028 -0.073530
H26   H     H_    0.948014 0.170840 0.191216 0.151773
H27   H     H_    0.860488 0.353997 0.219213 0.134167
H28   H     H_    0.918372 0.304570 0.129399 0.169555
N5    N     N_R   0.027174 0.921740 0.348089 0.085290
O39   O     O_R   0.013306 0.035741 0.321400 -0.371054
O40   O     O_R   0.980231 0.925512 0.412119 -0.305736
N6    N     N_R   0.251705 0.435469 0.170049 0.108526
O41   O     O_R   0.323735 0.434128 0.115234 -0.312197
O42   O     O_R   0.246571 0.323990 0.184339 -0.327321
O43   O     O_3   0.271470 0.409582 0.316886 -0.518377
C55   C     C_3   0.177653 0.371467 0.342760 0.001451
H29   H     H_    0.118337 0.436477 0.389478 0.164032
H30   H     H_    0.235449 0.261933 0.360401 0.143835
H31   H     H_    0.106694 0.377705 0.300901 0.167892
O44   O     O_3   0.550211 0.903348 0.659338 -0.531780
C56   C     C_3   0.419448 0.993174 0.632755 -0.037380
H32   H     H_    0.427198 0.064067 0.594230 0.152541
H33   H     H_    0.348825 0.058126 0.676154 0.226255
H34   H     H_    0.378685 0.936590 0.603165 0.179596
O45   O     O_3   0.845785 0.769645 0.751827 -0.505892
C57   C     C_3   0.880025 0.805328 0.814900 -0.024442
H35   H     H_    0.950307 0.843592 0.804455 0.153349
H36   H     H_    0.926520 0.718760 0.848494 0.178194
H37   H     H_    0.787626 0.879399 0.842568 0.108320
N7    N     N_R   0.836839 0.708532 0.622930 0.154717
O46   O     O_R   0.896264 0.647099 0.563088 -0.312746
O47   O     O_R   0.779637 0.842965 0.625334 -0.198229
O48   O     O_3   0.720971 0.447629 0.843720 -0.620540
C58   C     C_3   0.643612 0.460173 0.905984 -0.102241
H38   H     H_    0.557147 0.444877 0.893323 0.145790
H39   H     H_    0.604938 0.561516 0.934013 0.137016
H40   H     H_    0.709956 0.377133 0.943172 0.177667
O49   O     O_3   0.527606 0.555067 0.704601 -0.617533
C59   C     C_3   0.505123 0.458173 0.740056 -0.092670
H41   H     H_    0.443067 0.505999 0.787994 0.122055
H42   H     H_    0.598102 0.368916 0.759424 0.186984
H43   H     H_    0.454659 0.422742 0.703231 0.136075

loop_
_geom_bond_atom_site_label_1
_geom_bond_atom_site_label_2
_geom_bond_distance
_ccdc_geom_bond_type
C31   O37   1.380968 S    
C56   H34   1.105545 S    
C2    C12   1.452246 S    
O21   C48   1.300991 A    
C34   C35   1.404159 A    
C8    C12   1.573678 S    
O38   C54   1.411939 S    
C19   H7    1.064303 S    
O45   C57   1.373063 S    
C57   H37   1.076911 S    
N2    O32   1.301130 A    
O17   C46   1.292272 A    
C30   H12   1.083023 S    
Cr4   O26   2.042578 S    
C18   N2    1.437412 S    
O4    Cr2   2.010494 S    
C22   H8    1.058831 S    
C21   C22   1.397352 A    
C4    O9    1.291724 A    
C52   H21   1.101757 S    
O8    Cr1   1.984382 S    
C8    H3    1.103033 S    
C10   C11   1.566535 S    
O19   Cr6   1.982072 S    
C23   C47   1.473499 S    
C15   C16   1.418585 A    
C57   H36   1.052765 S    
N1    O30   1.290286 A    
O4    C2    1.278889 A    
C30   C31   1.387869 A    
C56   H32   1.108098 S    
C14   O49   1.415407 S    
C29   C30   1.407785 A    
C41   C42   1.395661 A    
C7    C8    1.548565 S    
C33   C34   1.375518 A    
N4    O35   1.294470 A    
N2    O31   1.302451 A    
O20   C50   1.269168 A    
C29   C49   1.447897 S    
C23   C24   1.381896 A    
C21   N3    1.444409 S    
O6    C3    1.325002 A    
N3    O34   1.295977 A    
O21   Cr4   1.969330 S    
C7    H1    1.105657 S    
C39   C40   1.378061 A    
O16   Cr5   2.088583 S    
C27   C32   1.409459 A    
O15   Cr4   1.988189 S    
C10   O48   1.421954 S    
C6    C38   1.436971 S    
C24   C25   1.395067 A    
C36   C37   1.395300 A    
O14   C47   1.287097 A    
C31   C32   1.397356 A    
Cr3   O13   2.048094 S    
C19   C20   1.393119 A    
C41   C50   1.440199 S    
O28   C52   1.420563 S    
C59   H42   1.091631 S    
C27   C28   1.390814 A    
O24   Cr6   2.101290 S    
Cr6   O26   2.005986 S    
C22   C23   1.384081 A    
O7    C6    1.296393 A    
C52   H22   1.102858 S    
C28   C29   1.391911 A    
C3    C20   1.481441 S    
O1    Cr1   2.102244 S    
C42   C43   1.396925 A    
C37   H15   1.082134 S    
C7    C11   1.584792 S    
O10   Cr2   1.978358 S    
Cr1   O13   2.041636 S    
O1    C3    1.286749 A    
C57   H35   1.093936 S    
C43   O43   1.383981 S    
C17   C18   1.424804 A    
C40   C41   1.405488 A    
O17   Cr5   1.973790 S    
C1    C26   1.488767 S    
O15   C45   1.330096 A    
N6    O42   1.300634 A    
C25   C26   1.464973 A    
O5    Cr3   2.108359 S    
C10   C14   1.574094 S    
O14   Cr4   2.092613 S    
C51   H19   1.097444 S    
O12   Cr3   1.981258 S    
C1    O3    1.258925 A    
C45   O16   1.292048 A    
Cr5   O26   2.051339 S    
C37   C38   1.406016 A    
C12   C14   1.583979 S    
C11   C46   1.509463 S    
C43   C44   1.432989 A    
C54   H27   1.110342 S    
C16   H6    1.082490 S    
C9    O28   1.443230 S    
O27   C51   1.410574 S    
O7    Cr1   2.085123 S    
C51   H18   1.078884 S    
O12   C6    1.297265 A    
O25   C50   1.293539 A    
O19   C47   1.303387 A    
O37   C53   1.411020 S    
C2    O5    1.277377 A    
C55   H30   1.109271 S    
C21   C26   1.417554 A    
C24   H9    1.081209 S    
C39   N5    1.442230 S    
N7    O47   1.297230 A    
C9    C13   1.550382 S    
C35   C36   1.400237 A    
C4    C44   1.454638 S    
C39   C44   1.403653 A    
C53   H24   1.110969 S    
C54   H26   1.113792 S    
C55   H31   1.113129 S    
O25   Cr6   2.004123 S    
C49   O24   1.273510 A    
C59   H43   1.097182 S    
C27   H10   1.083970 S    
C35   C48   1.434762 S    
C52   H20   1.060184 S    
C33   C38   1.390960 A    
C56   H33   1.106201 S    
C28   H11   1.083298 S    
C58   H38   1.107676 S    
C9    O45   1.413186 S    
O9    Cr2   2.131043 S    
O2    Cr1   1.966343 S    
C25   N4    1.462867 S    
C58   H40   1.109104 S    
Cr2   O13   2.005827 S    
N5    O40   1.301514 A    
C13   N7    1.494885 S    
O6    Cr3   1.969181 S    
O8    C4    1.270915 A    
O11   Cr3   2.090267 S    
O23   Cr5   1.968201 S    
N6    O41   1.301564 A    
C14   O27   1.450384 S    
O43   C55   1.412274 S    
O49   C59   1.396977 S    
C53   H25   1.112109 S    
C9    C11   1.642721 S    
O2    C1    1.315864 A    
C54   H28   1.109211 S    
C40   H16   1.084328 S    
C16   C17   1.412814 A    
C59   H41   1.091850 S    
N1    O29   1.300646 A    
C12   C13   1.522655 S    
O23   C49   1.291663 A    
O22   Cr5   2.090050 S    
C5    O11   1.290141 A    
C42   N6    1.441375 S    
C58   H39   1.110726 S    
C51   H17   1.095638 S    
C13   H5    1.081974 S    
C7    H2    1.113966 S    
C33   H13   1.083992 S    
N4    O36   1.303285 A    
O20   Cr4   2.112843 S    
C34   H14   1.084086 S    
O3    Cr2   2.098399 S    
C36   O38   1.391297 S    
C48   O22   1.291602 A    
C10   H4    1.120045 S    
C46   O18   1.282433 A    
O18   Cr6   2.125015 S    
O48   C58   1.416510 S    
O44   C56   1.408918 S    
O10   C5    1.280374 A    
C15   C20   1.382281 A    
C18   C19   1.382392 A    
N7    O46   1.302521 A    
N3    O33   1.293072 A    
C53   H23   1.107757 S    
C8    O44   1.418795 S    
C5    C32   1.448759 S    
C55   H29   1.111722 S    
N5    O39   1.301265 A    
C17   C45   1.490324 S    
C15   N1    1.423392 S    
