data_mof_unit_67741.cif
_audit_creation_date              2012-12-10T19:48:36-0500
_audit_creation_method            fapswitch 2.2
_symmetry_space_group_name_H-M    P1
_symmetry_Int_Tables_number       1
_space_group_crystal_system       triclinic
_cell_length_a                    10.957083
_cell_length_b                    10.743844
_cell_length_c                    9.656253
_cell_angle_alpha                 89.73809
_cell_angle_beta                  91.218907
_cell_angle_gamma                 91.838082
_cell_volume                      1135.89500541

loop_
_atom_site_label
_atom_site_type_symbol
_atom_type_description
_atom_site_fract_x
_atom_site_fract_y
_atom_site_fract_z
_atom_type_partial_charge
C1    C     C_R   0.500336 0.260266 0.500581 0.818124
C2    C     C_R   0.499664 0.739734 0.499419 0.818124
C3    C     C_R   0.871276 0.506826 0.503101 -0.047552
C4    C     C_R   0.128724 0.493174 0.496899 -0.047551
C5    C     C_R   0.946862 0.596942 0.571161 0.011075
C6    C     C_R   0.053138 0.403058 0.428839 0.011074
C7    C     C_3   0.602089 0.045162 0.444583 -0.099889
C8    C     C_3   0.397911 0.954838 0.555418 -0.099891
C9    C     C_3   0.505898 0.962168 0.369556 0.350963
C10   C     C_3   0.494103 0.037832 0.630444 0.350963
C11   C     C_3   0.499394 0.876840 0.497945 -0.147099
C12   C     C_3   0.500606 0.123160 0.502055 -0.147100
C13   C     C_3   0.596942 0.958971 0.573299 -0.271809
C14   C     C_3   0.403058 0.041029 0.426701 -0.271809
C15   C     C_3   0.425728 0.579149 0.047624 -0.140998
C16   C     C_3   0.574272 0.420851 0.952376 -0.140998
C17   C     C_3   0.393274 0.471877 0.947922 0.265421
C18   C     C_3   0.606726 0.528123 0.052078 0.265421
C19   C     C_3   0.532198 0.607805 0.950687 0.313350
C20   C     C_3   0.467802 0.392195 0.049313 0.313350
C21   C     C_R   0.263038 0.493282 0.498549 0.780115
C22   C     C_R   0.736962 0.506718 0.501451 0.780115
C23   C     C_R   0.079962 0.229337 0.100795 -0.085720
C24   C     C_R   0.920039 0.770661 0.899206 -0.085720
C25   C     C_R   0.087039 0.328887 0.193809 0.013244
C26   C     C_R   0.912962 0.671112 0.806191 0.013244
C27   C     C_R   0.097796 0.306314 0.336510 -0.008031
C28   C     C_R   0.902204 0.693685 0.663491 -0.008031
C29   C     C_R   0.111880 0.183958 0.385541 -0.063465
C30   C     C_R   0.888120 0.816042 0.614460 -0.063467
C31   C     C_R   0.105281 0.083799 0.290781 -0.016940
C32   C     C_R   0.894719 0.916200 0.709221 -0.016941
C33   C     C_R   0.088921 0.107559 0.149210 -0.088678
C34   C     C_R   0.911079 0.892440 0.850792 -0.088677
C35   C     C_R   0.925982 0.412313 0.431507 -0.145899
C36   C     C_R   0.074019 0.587687 0.568491 -0.145899
Cu1   Cu    Cu3+1 0.500030 0.499990 0.643150 1.044745
Cu2   Cu    Cu3+1 0.499970 0.500010 0.356850 1.044745
H1    H     H_    0.084648 0.031580 0.075773 0.154074
H2    H     H_    0.915352 0.968418 0.924229 0.154074
H3    H     H_    0.065247 0.244866 0.991145 0.202361
H4    H     H_    0.934754 0.755132 0.008855 0.202361
H5    H     H_    0.868647 0.345785 0.374753 0.176095
H6    H     H_    0.131354 0.654217 0.625244 0.176093
H7    H     H_    0.669126 0.920709 0.639450 0.196412
H8    H     H_    0.330874 0.079290 0.360550 0.196412
N1    N     N_3   0.500090 0.499970 0.858290 -0.246502
N2    N     N_3   0.499910 0.500030 0.141710 -0.246502
O1    O     O_R   0.500060 0.316850 0.620870 -0.548967
O2    O     O_R   0.499940 0.683150 0.379130 -0.548968
O3    O     O_R   0.500000 0.316860 0.379090 -0.546104
O4    O     O_R   0.500000 0.683140 0.620910 -0.546104
O5    O     O_R   0.319670 0.500010 0.620890 -0.530013
O6    O     O_R   0.680330 0.499990 0.379110 -0.530013
O7    O     O_R   0.319620 0.500010 0.379110 -0.585512
O8    O     O_R   0.680380 0.499990 0.620890 -0.585512
Br1   Br    Br    0.234980 0.416970 0.876640 -0.477872
Br2   Br    Br    0.765020 0.583029 0.123359 -0.477873
C37   C     C_1   0.340420 0.669210 0.099316 0.458099
N3    N     N_1   0.273200 0.740918 0.139429 -0.220135
C38   C     C_1   0.659580 0.330790 0.900684 0.458100
N4    N     N_1   0.726799 0.259081 0.860571 -0.220133
Br3   Br    Br    0.594988 0.767175 0.885420 -0.397881
Br4   Br    Br    0.405011 0.232825 0.114580 -0.397882
C39   C     C_1   0.077337 0.455745 0.146648 0.360102
N5    N     N_1   0.070395 0.558889 0.113770 -0.249820
C40   C     C_1   0.922663 0.544253 0.853352 0.360103
N6    N     N_1   0.929605 0.441110 0.886230 -0.249820
C41   C     C_1   0.135566 0.164355 0.531777 0.237119
N7    N     N_1   0.155269 0.151285 0.649058 -0.202571
C42   C     C_1   0.864434 0.835645 0.468224 0.237118
N8    N     N_1   0.844730 0.848715 0.350944 -0.202570
C43   C     C_1   0.117774 0.956204 0.334619 0.256383
N9    N     N_1   0.128515 0.853533 0.368079 -0.262505
C44   C     C_1   0.882226 0.043795 0.665384 0.256384
N10   N     N_1   0.871486 0.146467 0.631925 -0.262501
Br5   Br    Br    0.520259 0.918729 0.177866 -0.343666
Br6   Br    Br    0.479745 0.081271 0.822135 -0.343667
C45   C     C_1   0.710386 0.093543 0.373022 0.365445
N11   N     N_1   0.795147 0.129935 0.314060 -0.275499
C46   C     C_1   0.289616 0.906457 0.626982 0.365445
N12   N     N_1   0.204857 0.870066 0.685950 -0.275494

loop_
_geom_bond_atom_site_label_1
_geom_bond_atom_site_label_2
_ccdc_geom_bond_type
C30   C32   A    
C4    C36   A    
C27   C29   A    
C24   H4    S    
C43   N9    T    
C44   N10   T    
C32   C44   S    
C30   C42   S    
C10   Br6   S    
C14   H8    S    
C15   C19   S    
C33   H1    S    
C34   H2    S    
C26   C40   S    
C24   C26   A    
C19   N1    S    
C31   C43   S    
C5    C36   A    
C17   C20   S    
C6    C35   A    
C15   C17   S    
C18   C19   S    
C2    O2    A    
Cu1   O8    S    
C18   Br2   S    
Cu2   O7    S    
C19   Br3   S    
C23   C33   A    
C31   C33   A    
Cu1   N1    S    
C35   H5    S    
Cu2   N2    S    
Cu1   O5    S    
C37   N3    T    
C41   N7    T    
C1    C12   S    
C15   N2    S    
C2    C11   S    
C10   C12   S    
C16   N1    S    
C46   N12   T    
C29   C41   S    
C7    C12   S    
C8    C46   S    
C25   C39   S    
C22   O6    A    
C21   O7    A    
Cu1   O4    S    
C22   O8    A    
Cu2   O3    S    
C24   C34   A    
C40   N6    T    
C32   C34   A    
C20   Br4   S    
C9    C14   S    
Cu1   Cu2   S    
C5    C28   S    
Cu1   O1    S    
C6    C27   S    
Cu2   O6    S    
C3    C35   A    
C16   C20   S    
C16   C18   S    
C9    Br5   S    
C1    O3    A    
C20   N2    S    
C2    O4    A    
C4    C6    A    
C12   C14   S    
C9    C11   S    
C36   H6    S    
C16   C38   S    
C13   H7    S    
C7    C45   S    
C7    C9    S    
C8    C14   S    
C15   C37   S    
C17   N1    S    
C3    C5    A    
C10   C13   S    
C18   N2    S    
Cu2   O2    S    
C25   C27   A    
C26   C28   A    
C23   H3    S    
C28   C30   A    
C42   N8    T    
C29   C31   A    
C21   O5    A    
C4    C21   S    
C11   C13   S    
C8    C11   S    
C23   C25   A    
C38   N4    T    
C45   N11   T    
C7    C13   S    
C8    C10   S    
C39   N5    T    
C3    C22   S    
C1    O1    A    
C17   Br1   S    
