data_mof_unit_30084.cif
_audit_creation_date              2012-12-11T14:46:31-0500
_audit_creation_method            fapswitch 2.2
_symmetry_space_group_name_H-M    P1
_symmetry_Int_Tables_number       1
_space_group_crystal_system       triclinic
_cell_length_a                    17.514979
_cell_length_b                    17.488208
_cell_length_c                    6.934237
_cell_angle_alpha                 90.260381
_cell_angle_beta                  89.385778
_cell_angle_gamma                 90.082289
_cell_volume                      2123.8495735

loop_
_atom_site_label
_atom_site_type_symbol
_atom_type_description
_atom_site_fract_x
_atom_site_fract_y
_atom_site_fract_z
_atom_type_partial_charge
O1    O     O_R   0.796490 0.328940 0.373020 -0.538071
O2    O     O_R   0.203510 0.671060 0.626980 -0.537687
O3    O     O_R   0.203510 0.828940 0.626980 -0.539297
O4    O     O_R   0.796490 0.171060 0.373020 -0.539476
O5    O     O_R   0.805560 0.173330 0.702970 -0.538872
O6    O     O_R   0.194440 0.826670 0.297030 -0.538511
O7    O     O_R   0.194440 0.673330 0.297030 -0.540209
O8    O     O_R   0.805560 0.326670 0.702970 -0.537803
O9    O     O_R   0.658440 0.172360 0.870170 -0.532254
O10   O     O_R   0.341560 0.827640 0.129830 -0.531851
O11   O     O_R   0.341560 0.672360 0.129830 -0.531900
O12   O     O_R   0.658440 0.327640 0.870170 -0.531679
C1    C     C_R   0.823486 0.145548 0.532189 0.727211
C2    C     C_R   0.176373 0.854329 0.467874 0.727255
C3    C     C_R   0.176229 0.645878 0.466683 0.726131
C4    C     C_R   0.823692 0.354223 0.533366 0.725364
O13   O     O_3   0.679200 0.250000 0.537050 -0.366261
O14   O     O_3   0.320800 0.750000 0.462950 -0.365932
V1    V     V_3+5 0.736420 0.250000 0.813120 1.427309
V2    V     V_3+5 0.263580 0.750000 0.186880 1.420686
O15   O     O_R   0.649370 0.327980 0.199650 -0.537961
O16   O     O_R   0.350630 0.672020 0.800350 -0.537703
O17   O     O_R   0.350630 0.827980 0.800350 -0.537775
O18   O     O_R   0.649370 0.172020 0.199650 -0.537871
C5    C     C_R   0.630468 0.354441 0.031054 0.719533
C6    C     C_R   0.369535 0.645562 0.968947 0.717700
C7    C     C_R   0.369501 0.854409 0.969418 0.718388
C8    C     C_R   0.630500 0.145590 0.030583 0.718153
H1    H     H_    0.942780 0.106802 0.764451 0.176160
H2    H     H_    0.056816 0.892795 0.235934 0.175934
H3    H     H_    0.041793 0.626180 0.277346 0.169183
H4    H     H_    0.956933 0.375594 0.726610 0.165653
V3    V     V_3+5 0.718510 0.250000 0.312740 1.429475
V4    V     V_3+5 0.281490 0.750000 0.687260 1.427273
O19   O     O_3   0.775740 0.250000 0.038930 -0.366486
O20   O     O_3   0.224260 0.750000 0.961070 -0.366827
C9    C     C_1   0.574053 0.083207 0.019298 -0.197761
C10   C     C_1   0.425951 0.916789 0.980703 -0.198912
C11   C     C_1   0.426013 0.583171 0.979621 -0.196274
C12   C     C_1   0.573998 0.416840 0.020384 -0.196444
C13   C     C_1   0.527421 0.030898 0.007455 0.004841
C14   C     C_1   0.472585 0.969096 0.992546 0.004510
C15   C     C_1   0.472608 0.530900 0.992018 0.007832
C16   C     C_1   0.527409 0.469116 0.007990 0.007560
H5    H     H_    0.832836 0.046465 0.233559 0.141634
H6    H     H_    0.166271 0.952515 0.767863 0.141360
H7    H     H_    0.184217 0.526831 0.709152 0.133114
H8    H     H_    0.816582 0.472004 0.286111 0.135574
C17   C     C_R   0.880494 0.083216 0.506190 -0.160117
C18   C     C_R   0.119087 0.916386 0.494229 -0.158785
C19   C     C_R   0.119689 0.583082 0.487266 -0.143200
C20   C     C_R   0.879745 0.417555 0.513534 -0.141014
C21   C     C_R   0.062890 0.012670 0.711923 0.507227
C22   C     C_R   0.936217 0.986323 0.289593 0.514779
C23   C     C_R   0.923335 0.529287 0.330859 0.460317
C24   C     C_R   0.074697 0.473591 0.676163 0.471973
C25   C     C_R   0.120613 0.960157 0.665543 -0.236602
C26   C     C_R   0.878668 0.039071 0.335516 -0.238552
C27   C     C_R   0.868370 0.472908 0.370256 -0.234691
C28   C     C_R   0.131184 0.527612 0.630062 -0.226614
C29   C     C_R   0.058698 0.926958 0.366551 -0.184129
C30   C     C_R   0.940787 0.072503 0.634070 -0.180999
C31   C     C_R   0.947743 0.418945 0.618184 -0.204360
C32   C     C_R   0.051011 0.582728 0.385497 -0.238698
C33   C     C_R   0.998804 0.978229 0.413008 -0.006221
C34   C     C_R   0.000509 0.020987 0.588020 -0.004333
C35   C     C_R   0.005183 0.473472 0.575765 0.004062
C36   C     C_R   0.993252 0.528707 0.429383 -0.008665
O21   O     O_3   0.064147 0.050640 0.887333 -0.542222
C37   C     C_3   0.116629 0.111615 0.874315 -0.264204
H9    H     H_    0.114478 0.144430 0.011546 0.175916
H10   H     H_    0.101525 0.151594 0.756115 0.137534
H11   H     H_    0.176063 0.090418 0.854424 0.131896
O22   O     O_3   0.934210 0.947530 0.115446 -0.538241
C38   C     C_3   0.884067 0.884836 0.134546 -0.289587
H12   H     H_    0.824314 0.904075 0.160841 0.132989
H13   H     H_    0.884974 0.851845 0.997525 0.171295
H14   H     H_    0.902519 0.845595 0.251203 0.125518
O23   O     O_3   0.911050 0.580827 0.183824 -0.559147
C39   C     C_3   0.865107 0.640728 0.256380 -0.281244
H15   H     H_    0.892773 0.670257 0.380038 0.135466
H16   H     H_    0.807377 0.619718 0.299070 0.140015
H17   H     H_    0.857599 0.683618 0.140747 0.161752
O24   O     O_3   0.089305 0.418670 0.813737 -0.562443
C40   C     C_3   0.075233 0.450820 0.997445 -0.249938
H18   H     H_    0.015161 0.470864 0.011734 0.166170
H19   H     H_    0.115565 0.498427 0.028540 0.144387
H20   H     H_    0.084003 0.406111 0.107961 0.168698

loop_
_geom_bond_atom_site_label_1
_geom_bond_atom_site_label_2
_ccdc_geom_bond_type
O10   C7    A    
C23   C27   A    
C13   C14   S    
C38   H12   S    
C21   O21   S    
C23   C36   A    
O1    V3    S    
C22   C33   A    
C40   H18   S    
C32   C36   A    
C10   C14   T    
C5    C12   S    
C6    C11   S    
O15   V3    S    
C7    C10   S    
O4    C1    A    
C38   H13   S    
O13   V1    S    
H7    C28   S    
H1    C30   S    
O9    V1    S    
O10   V2    S    
C37   H9    S    
C3    C19   S    
O5    C1    A    
O2    V4    S    
O7    C3    A    
O8    C4    A    
C22   O22   S    
O13   V3    S    
C39   H17   S    
C24   O24   S    
C40   H19   S    
O16   V4    S    
C31   C35   A    
H5    C26   S    
O8    V1    S    
O22   C38   S    
C30   C34   A    
C35   C36   A    
O18   C8    A    
O24   C40   S    
C39   H16   S    
C21   C25   A    
C11   C15   T    
O3    V4    S    
O11   V2    S    
C17   C26   A    
C24   C28   A    
C15   C16   S    
C21   C34   A    
C20   C27   A    
O6    C2    A    
C23   O23   S    
O17   V4    S    
C37   H11   S    
O1    C4    A    
O2    C3    A    
O14   V4    S    
O3    C2    A    
C1    C17   S    
O7    V2    S    
O17   C7    A    
H6    C25   S    
H8    C27   S    
C22   C26   A    
C40   H20   S    
O15   C5    A    
O4    V3    S    
C17   C30   A    
C18   C25   A    
H3    C32   S    
C19   C32   A    
C4    C20   S    
H4    C31   S    
C39   H15   S    
C20   C31   A    
O5    V1    S    
C24   C35   A    
O6    V2    S    
O18   V3    S    
O11   C6    A    
O12   C5    A    
V1    O19   S    
C2    C18   S    
C8    C9    S    
O12   V1    S    
V3    O19   S    
V4    O20   S    
O14   V2    S    
C9    C13   T    
O21   C37   S    
C38   H14   S    
O23   C39   S    
V2    O20   S    
C29   C33   A    
C12   C16   T    
C33   C34   A    
O16   C6    A    
H2    C29   S    
C18   C29   A    
C37   H10   S    
C19   C28   A    
O9    C8    A    
