data_mof_unit_16724.cif
_audit_creation_date              2012-12-11T14:56:27-0500
_audit_creation_method            fapswitch 2.2
_symmetry_space_group_name_H-M    P1
_symmetry_Int_Tables_number       1
_space_group_crystal_system       triclinic
_cell_length_a                    10.534306
_cell_length_b                    10.724701
_cell_length_c                    17.00102
_cell_angle_alpha                 80.808553
_cell_angle_beta                  89.890731
_cell_angle_gamma                 119.928903
_cell_volume                      1635.72531409

loop_
_atom_site_label
_atom_site_type_symbol
_atom_type_description
_atom_site_fract_x
_atom_site_fract_y
_atom_site_fract_z
_atom_type_partial_charge
C1    C     C_R   0.278078 0.888703 0.132701 0.532535
C2    C     C_R   0.685400 0.214115 0.315660 -0.015901
C3    C     C_R   0.677752 0.184324 0.238457 -0.132720
C4    C     C_R   0.609649 0.235086 0.182692 0.011660
C5    C     C_1   0.686553 0.832457 0.201434 -0.044948
C6    C     C_1   0.703963 0.806888 0.270252 -0.051604
C7    C     C_1   0.227318 0.854434 0.215497 -0.038457
C8    C     C_1   0.178915 0.834812 0.283244 -0.032254
C9    C     C_1   0.644059 0.323805 0.778229 -0.009346
C10   C     C_1   0.650403 0.344762 0.707443 -0.009994
C11   C     C_R   0.612426 0.687779 0.814725 -0.151263
C12   C     C_R   0.609089 0.207926 0.101964 0.533997
C13   C     C_R   0.615583 0.663393 0.737681 -0.126399
C14   C     C_R   0.713467 0.777554 0.678404 -0.027691
C15   C     C_R   0.824367 0.908505 0.699371 -0.107181
C16   C     C_R   0.821799 0.935034 0.776687 0.234206
C17   C     C_R   0.703675 0.828839 0.832703 0.007967
C18   C     C_R   0.237741 0.971975 0.758231 -0.111886
C19   C     C_R   0.228624 0.963819 0.678663 -0.168950
C20   C     C_R   0.185804 0.830658 0.654569 0.017743
C21   C     C_R   0.183978 0.715037 0.708844 0.239798
C22   C     C_R   0.187448 0.722233 0.789946 -0.121058
C23   C     C_R   0.644424 0.856156 0.124048 0.537967
C24   C     C_R   0.205861 0.848025 0.815006 -0.024688
C25   C     C_R   0.711504 0.771765 0.353354 0.562807
C26   C     C_R   0.680039 0.381727 0.400433 0.532703
C27   C     C_R   0.108255 0.812642 0.360100 0.552004
C28   C     C_R   0.706929 0.757800 0.595622 0.583632
C29   C     C_R   0.677626 0.381338 0.624211 0.542807
C30   C     C_R   0.106910 0.805591 0.583323 0.564790
C31   C     C_R   0.229439 0.866475 0.897003 0.570423
C32   C     C_R   0.638010 0.285626 0.861164 0.561031
C33   C     C_R   0.650128 0.863357 0.901296 0.576132
C34   C     C_R   0.536611 0.304721 0.205605 -0.124455
C35   C     C_R   0.545876 0.337685 0.281421 -0.145861
C36   C     C_R   0.628000 0.301241 0.335060 0.035229
Cr1   Cr    Cr6+3 0.402240 0.783890 0.019450 1.031330
Cr2   Cr    Cr6+3 0.382360 0.097900 0.991800 1.064012
Cr3   Cr    Cr6+3 0.715380 0.118170 0.988700 1.077974
Cr4   Cr    Cr6+3 0.936650 0.882420 0.465510 0.976642
Cr5   Cr    Cr6+3 0.605770 0.565620 0.493360 1.023060
Cr6   Cr    Cr6+3 0.921340 0.550490 0.496380 1.067088
H1    H     H_    0.479033 0.340962 0.163779 0.149513
H2    H     H_    0.243065 0.058768 0.637074 0.169791
H3    H     H_    0.179955 0.632106 0.833007 0.163073
H4    H     H_    0.499272 0.402548 0.295382 0.137225
H5    H     H_    0.726696 0.123227 0.221491 0.119541
H6    H     H_    0.527990 0.598941 0.858290 0.171669
H7    H     H_    0.537816 0.557602 0.723782 0.182779
H8    H     H_    0.910374 0.992841 0.654905 0.182991
H9    H     H_    0.270490 0.076285 0.775117 0.208320
O1    O     O_R   0.521780 0.757110 0.108900 -0.515932
O2    O     O_R   0.513330 0.228330 0.898660 -0.503741
O3    O     O_R   0.739230 0.266130 0.888050 -0.471633
O4    O     O_R   0.712580 0.991850 0.918770 -0.423745
O5    O     O_3   0.499990 0.999980 0.999980 -0.309661
O6    O     O_R   0.083770 0.911170 0.376030 -0.517075
O7    O     O_R   0.808770 0.880340 0.383890 -0.516015
O8    O     O_R   0.584340 0.689460 0.394160 -0.501261
O9    O     O_R   0.614320 0.443940 0.423590 -0.523284
O10   O     O_R   0.805020 0.410040 0.421340 -0.523024
O11   O     O_R   0.049240 0.685450 0.403290 -0.490357
O12   O     O_R   0.275160 0.783810 0.101120 -0.483509
O13   O     O_R   0.077520 0.903010 0.551800 -0.553678
O14   O     O_R   0.802980 0.872780 0.546830 -0.524211
O15   O     O_R   0.578090 0.681300 0.569920 -0.448821
O16   O     O_R   0.608530 0.436370 0.586530 -0.532219
O17   O     O_R   0.798770 0.401880 0.597100 -0.450143
O18   O     O_R   0.043450 0.677890 0.566230 -0.430709
O19   O     O_3   0.821250 0.666180 0.485090 -0.303074
O20   O     O_R   0.237900 0.972600 0.090980 -0.492732
O21   O     O_R   0.511190 0.220540 0.061620 -0.516319
O22   O     O_R   0.736920 0.257720 0.063840 -0.499374
O23   O     O_R   0.710450 0.984050 0.081720 -0.515246
O24   O     O_R   0.524090 0.765520 0.933110 -0.531832
O25   O     O_R   0.277300 0.791600 0.938160 -0.499995
O26   O     O_R   0.240210 0.981010 0.915190 -0.462807
S1    S     S_3+6 0.189784 0.568297 0.677507 0.031209
O27   O     O_2   0.265425 0.512559 0.735586 -0.292986
O28   O     O_2   0.035891 0.446548 0.674400 -0.228421
O29   O     O_3   0.281279 0.625019 0.585982 -0.498747
H10   H     H_    0.262078 0.534241 0.567972 0.358864
C37   C     C_3   0.759467 0.155810 0.374223 -0.224643
C38   C     C_3   0.927215 0.239484 0.352144 -0.272558
C39   C     C_3   0.011053 0.234158 0.424502 -0.400890
H11   H     H_    0.991027 0.286994 0.470398 0.167343
H12   H     H_    0.976424 0.119615 0.451197 0.205730
H13   H     H_    0.130877 0.293703 0.405569 0.124807
H14   H     H_    0.953582 0.191802 0.305570 0.161839
H15   H     H_    0.967267 0.356546 0.326829 0.190993
H16   H     H_    0.731829 0.158221 0.436806 0.170915
H17   H     H_    0.711766 0.038372 0.372862 0.176436
S2    S     S_3+6 0.967399 0.099064 0.799628 0.032117
O30   O     O_2   0.015028 0.067291 0.879994 -0.290337
O31   O     O_2   0.095640 0.166586 0.736955 -0.290500
O32   O     O_3   0.910464 0.218917 0.801677 -0.444136
H18   H     H_    0.987540 0.296654 0.827090 0.385583

loop_
_geom_bond_atom_site_label_1
_geom_bond_atom_site_label_2
_ccdc_geom_bond_type
C33   O4    A    
S2    O30   D    
C30   O13   A    
C35   C36   A    
C10   C29   S    
O29   H10   S    
C11   H6    S    
C7    C8    T    
Cr5   O16   S    
C20   C30   S    
C39   H11   S    
C37   H17   S    
C16   S2    S    
C1    O20   A    
Cr4   O19   S    
C37   C38   S    
C18   C24   A    
C26   O10   A    
C18   C19   A    
C5    C6    T    
S1    O28   D    
C15   H8    S    
Cr3   O3    S    
C15   C16   A    
Cr6   O19   S    
C34   C35   A    
Cr3   O23   S    
C12   O22   A    
C9    C32   S    
C29   O16   A    
Cr1   O5    S    
C33   O24   A    
Cr3   O4    S    
C19   C20   A    
C16   C17   A    
C21   S1    S    
C4    C12   S    
C9    C10   T    
Cr6   O11   S    
Cr1   O24   S    
S2    O31   D    
C21   C22   A    
Cr6   O17   S    
C2    C37   S    
C38   H15   S    
C1    O12   A    
C32   O3    A    
Cr1   O12   S    
C18   H9    S    
C31   O26   A    
C4    C34   A    
C39   H12   S    
Cr2   O21   S    
Cr4   O7    S    
C38   C39   S    
Cr5   O8    S    
C27   O6    A    
Cr1   O1    S    
S1    O27   D    
Cr6   O18   S    
C23   O1    A    
C28   O15   A    
C27   O11   A    
C29   O17   A    
Cr3   O5    S    
C5    C23   S    
O32   H18   S    
C17   C33   S    
Cr6   O10   S    
C13   H7    S    
C26   C36   S    
Cr1   O25   S    
S2    O32   S    
Cr4   O14   S    
C22   C24   A    
C25   O7    A    
C23   O23   A    
C3    C4    A    
C32   O2    A    
C30   O18   A    
C19   H2    S    
C39   H13   S    
C2    C36   A    
Cr2   O20   S    
C11   C17   A    
Cr4   O6    S    
C1    C7    S    
C34   H1    S    
Cr5   O9    S    
Cr5   O15   S    
Cr2   O26   S    
C37   H16   S    
Cr4   O13   S    
C2    C3    A    
C24   C31   S    
C11   C13   A    
S1    O29   S    
C31   O25   A    
Cr2   O2    S    
C3    H5    S    
C28   O14   A    
Cr3   O22   S    
C12   O21   A    
C6    C25   S    
C22   H3    S    
Cr2   O5    S    
C20   C21   A    
C38   H14   S    
C8    C27   S    
C14   C15   A    
C25   O8    A    
C14   C28   S    
C13   C14   A    
C35   H4    S    
C26   O9    A    
Cr5   O19   S    
