data_mof_unit_66234.cif
_audit_creation_date              2012-12-10T18:53:56-0500
_audit_creation_method            fapswitch 2.2
_symmetry_space_group_name_H-M    P1
_symmetry_Int_Tables_number       1
_space_group_crystal_system       triclinic
_cell_length_a                    19.497807
_cell_length_b                    19.405519
_cell_length_c                    19.370656
_cell_angle_alpha                 85.00159
_cell_angle_beta                  95.186523
_cell_angle_gamma                 90.11047
_cell_volume                      7271.28297696

loop_
_atom_site_label
_atom_site_type_symbol
_atom_type_description
_atom_site_fract_x
_atom_site_fract_y
_atom_site_fract_z
_atom_type_partial_charge
C1    C     C_R   0.312113 0.492576 0.492552 0.843829
C2    C     C_2   0.469103 0.981447 0.496497 0.305362
C3    C     C_2   0.528766 0.016667 0.507168 -0.076801
C4    C     C_R   0.688070 0.506848 0.508443 0.874916
C5    C     C_R   0.513346 0.235727 0.510656 -0.097474
C6    C     C_R   0.763024 0.511103 0.510177 -0.170567
C7    C     C_R   0.803650 0.453764 0.498495 -0.054275
C8    C     C_R   0.873479 0.463880 0.491047 -0.238817
C9    C     C_R   0.904427 0.528389 0.499507 0.036952
C10   C     C_R   0.864111 0.584936 0.514135 0.485094
C11   C     C_R   0.793791 0.575622 0.518411 -0.193568
C12   C     C_R   0.469129 0.905478 0.497492 0.068701
C13   C     C_R   0.131277 0.552432 0.507471 -0.189499
C14   C     C_R   0.202103 0.554820 0.501532 -0.087765
C15   C     C_R   0.201224 0.429165 0.492094 0.440059
C16   C     C_R   0.508721 0.491885 0.689140 0.827130
C17   C     C_R   0.131400 0.428337 0.501277 -0.133815
C18   C     C_R   0.096212 0.489439 0.508113 0.068606
C19   C     C_2   0.978361 0.535563 0.491634 -0.212043
C20   C     C_2   0.022814 0.485519 0.517973 -0.173666
C21   C     C_R   0.237526 0.492588 0.493651 -0.202083
C22   C     C_R   0.488744 0.512812 0.235183 -0.122939
C23   C     C_R   0.443503 0.874021 0.438212 -0.113979
C24   C     C_R   0.551427 0.512854 0.204921 -0.231592
C25   C     C_R   0.552404 0.522263 0.133139 -0.069852
C26   C     C_R   0.490629 0.531456 0.090604 0.088024
C27   C     C_R   0.427910 0.532585 0.120312 -0.093852
C28   C     C_R   0.490991 0.507275 0.311083 0.775851
C29   C     C_R   0.425918 0.521961 0.192198 0.441431
C30   C     C_R   0.476276 0.433237 0.874243 0.502343
C31   C     C_R   0.473867 0.437440 0.801459 -0.275021
C32   C     C_R   0.556915 0.530795 0.802611 -0.145824
C33   C     C_R   0.559651 0.526837 0.874802 -0.236144
C34   C     C_R   0.449992 0.802755 0.436508 -0.158892
C35   C     C_R   0.518563 0.479170 0.910455 0.041110
C36   C     C_2   0.490620 0.534164 0.014476 -0.139865
C37   C     C_2   0.517229 0.479638 0.986271 0.395805
C38   C     C_R   0.513303 0.486772 0.765382 -0.047699
C39   C     C_R   0.508593 0.311569 0.508520 0.865555
C40   C     C_R   0.490852 0.688180 0.492409 0.798057
C41   C     C_R   0.482662 0.762796 0.493970 -0.013670
C42   C     C_R   0.505870 0.794291 0.554215 -0.134497
C43   C     C_R   0.498284 0.865185 0.556283 -0.143072
C44   C     C_2   0.775884 0.382437 0.496616 0.961486
C45   C     C_R   0.492000 0.120004 0.561642 -0.280205
C46   C     C_2   0.237496 0.622289 0.508227 0.960773
C47   C     C_2   0.456386 0.594829 0.972455 0.863160
C48   C     C_2   0.598741 0.984405 0.512592 0.930381
C49   C     C_R   0.485469 0.191919 0.562851 0.453661
C50   C     C_R   0.547633 0.206988 0.458990 -0.389818
C51   C     C_R   0.553880 0.135397 0.457859 0.504551
C52   C     C_R   0.525553 0.092055 0.509391 0.120029
H1    H     H_    0.529785 0.764147 0.599716 0.159921
H2    H     H_    0.588237 0.568840 0.775991 0.173918
H3    H     H_    0.380009 0.538436 0.087250 0.173101
H4    H     H_    0.601222 0.521637 0.110553 0.162841
H5    H     H_    0.569004 0.240259 0.418570 0.195818
H6    H     H_    0.592515 0.561999 0.902968 0.153708
H7    H     H_    0.420535 0.904869 0.392710 0.161276
H8    H     H_    0.470706 0.085510 0.601206 0.164382
H9    H     H_    0.431048 0.779184 0.389860 0.170094
H10   H     H_    0.517224 0.889101 0.602748 0.128063
H11   H     H_    0.602663 0.144236 0.374104 0.347822
H12   H     H_    0.004569 0.438782 0.545459 0.162732
H13   H     H_    0.710906 0.310239 0.534073 0.350891
H14   H     H_    0.321101 0.673991 0.544945 0.340015
H15   H     H_    0.275034 0.375787 0.460076 0.329329
H16   H     H_    0.941294 0.647213 0.532251 0.339265
H17   H     H_    0.436677 0.181964 0.646531 0.340035
H18   H     H_    0.559984 0.388557 0.000270 0.355455
H19   H     H_    0.409598 0.358546 0.877531 0.340680
H20   H     H_    0.365569 0.491568 0.263328 0.336890
H21   H     H_    0.403296 0.633548 0.883226 0.358956
H22   H     H_    0.698756 0.990276 0.548721 0.362074
H23   H     H_    0.104202 0.599337 0.515614 0.174726
H24   H     H_    0.369394 0.984094 0.479479 0.347596
H25   H     H_    0.762752 0.619701 0.527408 0.192395
H26   H     H_    0.996122 0.581888 0.463176 0.172609
H27   H     H_    0.904182 0.420684 0.479163 0.188912
H28   H     H_    0.104010 0.379649 0.501403 0.169575
H29   H     H_    0.599872 0.506545 0.236993 0.178729
H30   H     H_    0.440529 0.402796 0.773151 0.172058
O1    O     O_3   0.500000 0.500000 0.500000 -0.510851
O2    O     O_R   0.467830 0.341070 0.546160 -0.578273
O3    O     O_R   0.450560 0.655630 0.450550 -0.627889
O4    O     O_R   0.545840 0.347670 0.467560 -0.652419
O5    O     O_R   0.535760 0.655640 0.535740 -0.643131
O6    O     O_3   0.585735 0.106661 0.406158 -0.734834
O7    O     O_2   0.798780 0.342697 0.458585 -0.609223
O8    O     O_R   0.725395 0.359722 0.540122 -0.798282
O9    O     O_2   0.208238 0.675963 0.484216 -0.608459
O10   O     O_R   0.302922 0.625057 0.544010 -0.806431
O11   O     O_3   0.231542 0.366985 0.481888 -0.729654
O12   O     O_R   0.545870 0.536170 0.656040 -0.648296
O13   O     O_3   0.890506 0.649674 0.524853 -0.746856
O14   O     O_3   0.452898 0.219924 0.614454 -0.721970
O15   O     O_3   0.540868 0.422216 0.029274 -0.724192
O16   O     O_3   0.436431 0.386584 0.910773 -0.735335
O17   O     O_3   0.361929 0.518751 0.217497 -0.731570
O18   O     O_2   0.454006 0.650209 0.997875 -0.593715
O19   O     O_R   0.424891 0.588589 0.905510 -0.784745
O20   O     O_2   0.609236 0.932717 0.483101 -0.589770
O21   O     O_R   0.653538 0.015834 0.549315 -0.780070
O22   O     O_3   0.407565 0.017780 0.483405 -0.737089
O23   O     O_R   0.450550 0.545430 0.340370 -0.629467
O24   O     O_R   0.347960 0.451240 0.536460 -0.617293
O25   O     O_R   0.655630 0.467150 0.467130 -0.619561
O26   O     O_R   0.340780 0.536140 0.450970 -0.617165
O27   O     O_R   0.655640 0.545460 0.545430 -0.646107
O28   O     O_R   0.467850 0.451260 0.656340 -0.629101
O29   O     O_R   0.535740 0.467130 0.347260 -0.635768
Zn1   Zn    Zn3+2 0.558310 0.558310 0.558290 0.998187
Zn2   Zn    Zn3+2 0.446830 0.436990 0.558720 1.045998
Zn3   Zn    Zn3+2 0.558290 0.446420 0.446420 0.997867
Zn4   Zn    Zn3+2 0.436570 0.558290 0.436570 1.016028

loop_
_geom_bond_atom_site_label_1
_geom_bond_atom_site_label_2
_ccdc_geom_bond_type
H24   O22   S    
C4    O27   A    
C45   H8    S    
C1    C21   S    
C33   H6    S    
C47   O19   S    
C22   C29   A    
H11   O6    S    
C27   C29   A    
C41   C42   A    
O1    Zn2   S    
C19   C20   D    
C25   H4    S    
H17   O14   S    
C2    C12   S    
C37   O15   S    
C16   O28   A    
C7    C8    A    
C14   C46   S    
C23   H7    S    
C12   C23   A    
C26   C27   A    
O2    Zn2   S    
C31   H30   S    
C13   C18   A    
C14   C21   A    
C36   C37   D    
C35   C37   S    
C39   O2    A    
C12   C43   A    
C42   H1    S    
C30   C31   A    
C27   H3    S    
C46   O10   S    
C3    C48   S    
C36   C47   S    
C11   H25   S    
C9    C19   S    
C13   H23   S    
C8    C9    A    
C8    H27   S    
C40   O5    A    
C32   C38   A    
C9    C10   A    
H18   O15   S    
C1    O24   A    
H21   O19   S    
C22   C28   S    
C13   C14   A    
O1    Zn3   S    
C5    C49   A    
C34   C41   A    
C32   H2    S    
C4    O25   A    
C50   C51   A    
C28   O29   A    
H13   O8    S    
H19   O16   S    
H16   O13   S    
C29   O17   S    
O24   Zn2   S    
C51   C52   A    
O1    Zn4   S    
O3    Zn4   S    
C24   C25   A    
C4    C6    S    
O27   Zn1   S    
C6    C11   A    
H14   O10   S    
O5    Zn1   S    
C45   C52   A    
C25   C26   A    
C48   O21   S    
C34   H9    S    
C47   O18   D    
C40   O3    A    
C20   H12   S    
C19   H26   S    
C24   H29   S    
O25   Zn3   S    
C45   C49   A    
C28   O23   A    
C23   C34   A    
C48   O20   D    
C17   C18   A    
C7    C44   S    
O28   Zn2   S    
C30   C35   A    
C26   C36   S    
C40   C41   S    
C2    O22   S    
C5    C39   S    
C22   C24   A    
C5    C50   A    
C42   C43   A    
C44   O8    S    
O26   Zn4   S    
C15   C17   A    
C50   H5    S    
O23   Zn4   S    
C51   O6    S    
C15   O11   S    
C3    C52   S    
C6    C7    A    
C46   O9    D    
C30   O16   S    
C16   O12   A    
C31   C38   A    
O4    Zn3   S    
C32   C33   A    
C2    C3    D    
C10   O13   S    
O12   Zn1   S    
C33   C35   A    
O29   Zn3   S    
C18   C20   S    
C17   H28   S    
C49   O14   S    
C10   C11   A    
C1    O26   A    
C15   C21   A    
H15   O11   S    
O1    Zn1   S    
C39   O4    A    
C44   O7    D    
C43   H10   S    
C16   C38   S    
H22   O21   S    
H20   O17   S    
