data_mof_unit_26351.cif
_audit_creation_date              2012-12-10T20:34:49-0500
_audit_creation_method            fapswitch 2.2
_symmetry_space_group_name_H-M    P1
_symmetry_Int_Tables_number       1
_space_group_crystal_system       triclinic
_cell_length_a                    10.688254
_cell_length_b                    10.7191
_cell_length_c                    9.8527
_cell_angle_alpha                 89.096884
_cell_angle_beta                  90.74887
_cell_angle_gamma                 89.99599
_cell_volume                      1128.57202797

loop_
_atom_site_label
_atom_site_type_symbol
_atom_type_description
_atom_site_fract_x
_atom_site_fract_y
_atom_site_fract_z
_atom_type_partial_charge
C1    C     C_R   0.500093 0.260025 0.500815 0.973037
C2    C     C_3   0.879611 0.504386 0.501854 -0.065433
C3    C     C_3   0.929315 0.624553 0.574805 -0.149864
C4    C     C_3   0.926957 0.510417 0.352038 -0.484637
C5    C     C_R   0.502998 0.060452 0.621421 0.151680
C6    C     C_R   0.515616 0.128718 0.501808 -0.146005
C7    C     C_R   0.554818 0.070034 0.383846 -0.188021
C8    C     C_R   0.561318 0.941059 0.379438 0.357264
C9    C     C_R   0.524248 0.871886 0.496628 -0.265194
C10   C     C_R   0.506093 0.933605 0.618274 0.083945
C11   C     C_3   0.404320 0.920407 0.720280 -0.377970
C12   C     C_R   0.258268 0.507797 0.498725 0.895286
C13   C     C_3   0.401880 0.061663 0.724511 -0.476254
C14   C     C_R   0.391339 0.481917 0.069977 0.316606
C15   C     C_R   0.605744 0.526163 0.072838 -0.016375
C16   C     C_R   0.605666 0.526392 0.929058 -0.102696
C17   C     C_R   0.391138 0.483362 0.927161 0.229780
C18   C     C_3   0.308865 0.371845 0.919950 -0.506681
C19   C     C_3   0.311566 0.367622 0.073668 -0.510567
C20   C     C_R   0.506214 0.739986 0.498486 0.922943
C21   C     C_R   0.742605 0.501972 0.500767 0.972479
C22   C     C_3   0.077416 0.384201 0.554141 -0.558664
C23   C     C_3   0.935525 0.386350 0.576117 0.318674
C24   C     C_3   0.073908 0.618791 0.585893 -0.387188
C25   C     C_3   0.068703 0.528821 0.348451 0.323866
C26   C     C_3   0.122420 0.512046 0.496196 -0.059322
H1    H     H_    0.124594 0.360518 0.652549 0.183839
H2    H     H_    0.879281 0.586536 0.294041 0.253462
H3    H     H_    0.114481 0.709991 0.553939 0.219595
H4    H     H_    0.902927 0.706615 0.510459 0.220758
H5    H     H_    0.575936 0.124479 0.293509 0.220079
H6    H     H_    0.317246 0.879415 0.676840 0.203158
H7    H     H_    0.438241 0.876228 0.816787 0.243489
H8    H     H_    0.313121 0.103440 0.684893 0.205195
H9    H     H_    0.436015 0.097803 0.823310 0.224998
H10   H     H_    0.691862 0.544861 0.127276 0.185321
H11   H     H_    0.103638 0.310392 0.481604 0.218442
H12   H     H_    0.691436 0.545651 0.876087 0.171363
H13   H     H_    0.215067 0.395198 0.876744 0.210330
H14   H     H_    0.355652 0.291279 0.873195 0.214756
H15   H     H_    0.218235 0.384712 0.116678 0.218649
H16   H     H_    0.361699 0.284943 0.117064 0.215694
H17   H     H_    0.920583 0.395821 0.686721 0.122680
H18   H     H_    0.104985 0.601843 0.692870 0.189807
H19   H     H_    0.106358 0.453014 0.285689 0.083128
H20   H     H_    0.902621 0.423439 0.298017 0.212225
N1    N     N_R   0.499150 0.499140 0.142800 -0.120231
N2    N     N_R   0.499150 0.499180 0.857150 -0.124244
O1    O     O_R   0.500020 0.316790 0.614690 -0.593427
O2    O     O_R   0.500000 0.316760 0.385350 -0.638531
O3    O     O_R   0.314800 0.500000 0.614670 -0.642174
O4    O     O_R   0.314790 0.499960 0.385330 -0.601937
O5    O     O_R   0.500000 0.683240 0.614650 -0.629279
O6    O     O_R   0.499980 0.683210 0.385310 -0.513005
O7    O     O_R   0.685210 0.500040 0.614670 -0.602616
O8    O     O_R   0.685200 0.500000 0.385330 -0.618426
Zn1   Zn    Zn3+2 0.500010 0.500020 0.653130 0.985579
Zn2   Zn    Zn3+2 0.499990 0.499980 0.346870 1.054269
S1    S     S_3+6 0.612269 0.875081 0.225254 0.058868
O9    O     O_2   0.501347 0.823822 0.149182 -0.244174
O10   O     O_2   0.674834 0.971942 0.137448 -0.275048
O11   O     O_3   0.714614 0.759619 0.258466 -0.539447
H21   H     H_    0.762429 0.787617 0.339053 0.345605
S2    S     S_3+6 0.864267 0.237917 0.536693 -0.006307
O12   O     O_2   0.802667 0.239381 0.398810 -0.307929
O13   O     O_2   0.960903 0.135802 0.542516 -0.309387
O14   O     O_3   0.756317 0.208076 0.655463 -0.565109
H22   H     H_    0.764139 0.117829 0.677018 0.382643
N3    N     N_3   0.873460 0.643830 0.708374 -0.449382
H23   H     H_    0.910614 0.581191 0.780512 0.199599
H24   H     H_    0.897371 0.733324 0.740675 0.226922
S3    S     S_3+6 0.107686 0.675141 0.262039 0.005351
O15   O     O_2   0.238097 0.717942 0.295494 -0.270085
O16   O     O_2   0.097369 0.654831 0.111688 -0.315593
O17   O     O_3   0.007967 0.789114 0.303826 -0.572834
H25   H     H_    0.027159 0.859593 0.241302 0.412669

loop_
_geom_bond_atom_site_label_1
_geom_bond_atom_site_label_2
_ccdc_geom_bond_type
C17   N2    A    
C15   N1    A    
C18   H13   S    
C16   N2    A    
C4    C25   S    
C23   H17   S    
N2    Zn1   S    
C4    H20   S    
C3    N3    S    
C24   C26   S    
C13   H9    S    
C8    S1    S    
O6    Zn2   S    
C5    C6    A    
C15   C16   A    
O1    Zn1   S    
C18   C19   S    
N3    H24   S    
C18   H14   S    
C24   H3    S    
C4    H2    S    
C8    C9    A    
O3    Zn1   S    
C1    O2    A    
C5    C13   S    
C19   H16   S    
S1    O9    D    
C14   C17   A    
C3    C24   S    
S3    O17   S    
C12   O4    A    
S1    O10   D    
C7    H5    S    
C1    C6    S    
O2    Zn2   S    
S2    O14   S    
C11   H7    S    
S3    O16   D    
C21   O7    A    
O5    Zn1   S    
S3    O15   D    
C25   C26   S    
C22   H11   S    
O14   H22   S    
C12   C26   S    
S2    O13   D    
C3    H4    S    
C2    C4    S    
O17   H25   S    
O11   H21   S    
C9    C20   S    
C2    C21   S    
C17   C18   S    
C25   S3    S    
C6    C7    A    
O4    Zn2   S    
C20   O6    A    
C23   S2    S    
C11   H6    S    
C22   H1    S    
O7    Zn1   S    
C24   H18   S    
C25   H19   S    
C15   H10   S    
C12   O3    A    
C9    C10   A    
S1    O11   S    
C14   C19   S    
C20   O5    A    
C21   O8    A    
C14   N1    A    
S2    O12   D    
C2    C3    S    
C13   H8    S    
N1    Zn2   S    
C11   C13   S    
O8    Zn2   S    
N3    H23   S    
C7    C8    A    
C10   C11   S    
C5    C10   A    
C22   C26   S    
C2    C23   S    
C22   C23   S    
C1    O1    A    
C19   H15   S    
C16   H12   S    
