data_mof_unit_14118.cif
_audit_creation_date              2013-03-05T15:45:58-0500
_audit_creation_method            fapswitch 2.2
_symmetry_space_group_name_H-M    P1
_symmetry_Int_Tables_number       1
_space_group_crystal_system       triclinic
_cell_length_a                    18.267954
_cell_length_b                    18.45932
_cell_length_c                    18.345795
_cell_angle_alpha                 120.258735
_cell_angle_beta                  120.212978
_cell_angle_gamma                 59.776751
_cell_volume                      4351.47680055

loop_
_atom_site_label
_atom_site_type_symbol
_atom_site_description
_atom_site_fract_x
_atom_site_fract_y
_atom_site_fract_z
_atom_type_partial_charge
Zn1   Zn    Zn3+2 0.956630 0.130130 0.543370 1.025635
Zn2   Zn    Zn3+2 0.130140 0.956620 0.543380 1.047303
Zn3   Zn    Zn3+2 0.956630 0.956620 0.369870 1.069096
Zn4   Zn    Zn3+2 0.956610 0.956630 0.543370 0.989926
O1    O     O_3   0.000000 0.000000 0.500000 -0.518974
O2    O     O_R   0.055060 0.884200 0.615800 -0.658540
O3    O     O_R   0.884210 0.176520 0.444920 -0.628399
O4    O     O_R   0.176540 0.055080 0.615800 -0.637410
O5    O     O_R   0.884190 0.884200 0.323480 -0.623334
O6    O     O_R   0.176540 0.884190 0.444930 -0.628451
O7    O     O_R   0.884180 0.055090 0.615790 -0.656112
O8    O     O_R   0.055100 0.884190 0.323490 -0.592969
O9    O     O_R   0.884190 0.176530 0.615790 -0.615550
O10   O     O_R   0.055100 0.176520 0.615800 -0.596281
O11   O     O_R   0.884180 0.884200 0.444920 -0.645696
O12   O     O_R   0.176510 0.884190 0.615800 -0.589350
O13   O     O_R   0.884210 0.055080 0.323480 -0.600513
C1    C     C_R   0.140379 0.859472 0.639218 0.907576
C2    C     C_R   0.859670 0.139582 0.359778 0.780974
C3    C     C_R   0.140671 0.139666 0.642024 0.921179
C4    C     C_R   0.866929 0.853061 0.360066 0.874242
C5    C     C_R   0.140160 0.860573 0.360177 0.769339
C6    C     C_R   0.859597 0.139685 0.639178 0.765118
H1    H     H_    0.046965 0.270678 0.929561 0.196151
C7    C     C_R   0.677801 0.147344 0.573862 -0.065559
C8    C     C_R   0.588300 0.151566 0.539766 0.053079
C9    C     C_R   0.535087 0.208887 0.594234 -0.228067
C10   C     C_R   0.570946 0.260008 0.681899 -0.141478
C11   C     C_R   0.662312 0.254619 0.718628 0.084882
C12   C     C_R   0.715705 0.198544 0.663257 0.051436
C13   C     C_R   0.700212 0.304868 0.808697 -0.136413
C14   C     C_R   0.792361 0.300031 0.845607 -0.003125
C15   C     C_R   0.843868 0.244520 0.787462 0.075429
C16   C     C_R   0.805234 0.195557 0.697483 -0.107854
C17   C     C_R   0.836479 0.347246 0.937409 -0.080285
C18   C     C_R   0.929228 0.334834 0.967935 -0.062122
C19   C     C_R   0.976349 0.280651 0.908014 -0.166888
C20   C     C_R   0.934631 0.237267 0.820096 -0.159709
H2    H     H_    0.717059 0.104060 0.529535 0.161558
H3    H     H_    0.465317 0.214194 0.568948 0.153515
H4    H     H_    0.525630 0.303741 0.720091 0.136735
H5    H     H_    0.975446 0.196645 0.777924 0.192587
C21   C     C_R   0.685998 0.267746 0.374353 -0.197396
H6    H     H_    0.723409 0.223567 0.412957 0.174543
C22   C     C_R   0.604028 0.332272 0.385405 0.003872
C23   C     C_R   0.552216 0.387410 0.333220 -0.173131
H7    H     H_    0.488173 0.437242 0.339449 0.201603
C24   C     C_R   0.581546 0.378678 0.271437 -0.114294
H8    H     H_    0.536918 0.421895 0.231698 0.171456
C25   C     C_R   0.664950 0.315121 0.260711 0.125920
C26   C     C_R   0.718182 0.259149 0.313354 0.073662
C27   C     C_R   0.801294 0.194587 0.302563 -0.160615
C28   C     C_R   0.829917 0.183058 0.237704 -0.048194
C29   C     C_R   0.776063 0.237241 0.183804 -0.132545
C30   C     C_R   0.694771 0.304304 0.196737 -0.138634
C31   C     C_R   0.827194 0.764969 0.433339 -0.011986
C32   C     C_R   0.773149 0.779145 0.475578 -0.307146
H9    H     H_    0.801818 0.785179 0.545657 0.180714
C33   C     C_R   0.681740 0.789767 0.429727 0.007022
C34   C     C_R   0.647712 0.769795 0.335401 -0.046751
C35   C     C_R   0.706249 0.746327 0.291221 -0.024267
C36   C     C_R   0.787250 0.764976 0.343952 0.106163
C37   C     C_R   0.823167 0.783969 0.304889 -0.111811
C38   C     C_R   0.802495 0.748092 0.210896 -0.089490
H10   H     H_    0.725885 0.674662 0.087471 0.235181
C39   C     C_R   0.737346 0.707104 0.158764 -0.159932
C40   C     C_R   0.689310 0.704676 0.197310 -0.117544
C41   C     C_R   0.146788 0.928483 0.820333 -0.105386
H11   H     H_    0.120545 0.976175 0.788634 0.138698
C42   C     C_R   0.137785 0.960496 0.902760 -0.202994
H12   H     H_    0.106198 0.031355 0.931986 0.154833
C43   C     C_R   0.157989 0.901407 0.941248 -0.051296
C44   C     C_R   0.196893 0.808535 0.899693 -0.133598
C45   C     C_R   0.228575 0.779178 0.828420 -0.002864
C46   C     C_R   0.190723 0.837565 0.781211 0.077170
C47   C     C_R   0.197525 0.804345 0.696081 -0.060717
C48   C     C_R   0.256268 0.717985 0.664642 -0.110438
C49   C     C_R   0.311232 0.666771 0.721844 -0.091021
C50   C     C_R   0.297143 0.696497 0.803122 -0.110461
C51   C     C_R   0.212608 0.938884 0.319892 -0.241054
H13   H     H_    0.173906 0.982160 0.364876 0.135108
C52   C     C_R   0.245901 0.977269 0.298816 0.034281
C53   C     C_R   0.294394 0.923077 0.239327 -0.105710
H14   H     H_    0.319695 0.951300 0.221010 0.162874
C54   C     C_R   0.311742 0.831577 0.203393 -0.088665
H15   H     H_    0.349605 0.792277 0.157729 0.120833
C55   C     C_R   0.281998 0.791655 0.227061 0.145357
C56   C     C_R   0.229920 0.845883 0.284231 0.113236
C57   C     C_R   0.196624 0.805651 0.304283 -0.126813
C58   C     C_R   0.216413 0.712495 0.269566 -0.077937
H16   H     H_    0.287409 0.588339 0.189363 0.184986
C59   C     C_R   0.270341 0.660073 0.215617 -0.173517
C60   C     C_R   0.303013 0.698713 0.194885 -0.071497
C61   C     C_R   0.270525 0.128085 0.826662 -0.000147
C62   C     C_R   0.337207 0.120903 0.908486 -0.186867
H17   H     H_    0.349461 0.072308 0.933573 0.178966
C63   C     C_R   0.381999 0.181455 0.963980 -0.172803
H18   H     H_    0.426497 0.178722 0.030529 0.185396
C64   C     C_R   0.362983 0.250296 0.938779 0.001130
C65   C     C_R   0.307756 0.250097 0.849031 0.035468
C66   C     C_R   0.257392 0.190143 0.792000 0.009076
C67   C     C_R   0.197401 0.195516 0.704007 -0.149942
C68   C     C_R   0.188595 0.258433 0.674987 -0.062047
H19   H     H_    0.236838 0.358711 0.707173 0.186417
C69   C     C_R   0.240648 0.313118 0.730799 -0.218680
C70   C     C_R   0.301435 0.307312 0.814284 -0.060299
Zn5   Zn    Zn3+2 0.543340 0.369890 0.956600 1.036039
Zn6   Zn    Zn3+2 0.543340 0.543410 0.130100 1.003043
Zn7   Zn    Zn3+2 0.369830 0.543410 0.956590 1.038365
Zn8   Zn    Zn3+2 0.543370 0.543400 0.956600 1.033275
O14   O     O_3   0.499970 0.500030 0.999970 -0.517231
O15   O     O_R   0.615800 0.615830 0.055050 -0.609702
O16   O     O_R   0.444880 0.323510 0.884180 -0.643215
O17   O     O_R   0.615760 0.444950 0.176490 -0.647901
O18   O     O_R   0.323460 0.615830 0.884170 -0.621974
O19   O     O_R   0.444880 0.615840 0.176480 -0.607243
O20   O     O_R   0.615800 0.444940 0.884180 -0.613098
O21   O     O_R   0.323440 0.615840 0.055040 -0.622610
O22   O     O_R   0.615780 0.323500 0.884180 -0.616939
O23   O     O_R   0.615760 0.323500 0.055050 -0.595863
O24   O     O_R   0.444910 0.615830 0.884180 -0.621380
O25   O     O_R   0.615780 0.615830 0.176490 -0.640172
O26   O     O_R   0.323430 0.444950 0.884170 -0.584898
C71   C     C_R   0.636032 0.644448 0.140476 0.791981
C72   C     C_R   0.359455 0.360612 0.861118 0.822758
C73   C     C_R   0.639520 0.360290 0.140192 0.821836
C74   C     C_R   0.358424 0.643114 0.862682 0.814504
C75   C     C_R   0.359745 0.639888 0.139704 0.787953
C76   C     C_R   0.641884 0.360465 0.862419 0.817832
C77   C     C_2   0.572180 0.342005 0.451112 0.943956
O27   O     O_2   0.619177 0.296347 0.499546 -0.640987
O28   O     O_R   0.488378 0.403945 0.458303 -0.777769
H20   H     H_    0.474467 0.404432 0.505581 0.364044
C78   C     C_2   0.805460 0.225813 0.115027 0.518101
H21   H     H_    0.790884 0.283173 0.101704 0.112398
O29   O     O_2   0.843864 0.152280 0.071139 -0.506776
C79   C     C_2   0.853199 0.743560 0.165125 0.994221
O30   O     O_2   0.934273 0.729444 0.200087 -0.586431
O31   O     O_R   0.808784 0.751191 0.079845 -0.776701
H22   H     H_    0.850585 0.745699 0.054964 0.368672
C80   C     C_2   0.925874 0.739707 0.480822 0.518497
H23   H     H_    0.952310 0.751628 0.552268 0.070593
O32   O     O_2   0.978629 0.702821 0.440412 -0.528600
C81   C     C_2   0.624410 0.823593 0.483109 0.994896
O33   O     O_2   0.651933 0.795582 0.543339 -0.591793
O34   O     O_R   0.540814 0.890492 0.467519 -0.779679
H24   H     H_    0.508651 0.908575 0.508863 0.353842
C82   C     C_2   0.550803 0.781843 0.284844 0.515549
H25   H     H_    0.517591 0.802677 0.226785 -0.003811
O35   O     O_2   0.508453 0.764554 0.304878 -0.541900
C83   C     C_2   0.258694 0.679318 0.571574 0.455168
H26   H     H_    0.318921 0.629253 0.556067 0.122698
O36   O     O_2   0.192208 0.700392 0.509926 -0.558836
C84   C     C_2   0.129617 0.940772 0.019931 0.465897
H27   H     H_    0.147267 0.998031 0.074779 0.066619
O37   O     O_2   0.080715 0.915039 0.021411 -0.482165
C85   C     C_2   0.176028 0.746833 0.909678 1.032927
O38   O     O_2   0.142045 0.693268 0.842774 -0.567679
O39   O     O_R   0.191653 0.751547 0.994393 -0.778170
H28   H     H_    0.165732 0.712308 0.991263 0.372604
C86   C     C_2   0.378685 0.578309 0.693725 0.910907
O40   O     O_2   0.439912 0.572739 0.678985 -0.607360
O41   O     O_R   0.373214 0.502013 0.686657 -0.798529
H29   H     H_    0.423280 0.446107 0.667965 0.333990
C87   C     C_2   0.182016 0.669038 0.289850 0.538884
H30   H     H_    0.140313 0.708244 0.332004 0.098327
O42   O     O_2   0.199867 0.588372 0.259541 -0.508431
C88   C     C_2   0.230002 0.074062 0.339959 0.392130
H31   H     H_    0.193543 0.115008 0.387012 0.108794
O43   O     O_2   0.257468 0.109282 0.322064 -0.555351
C89   C     C_2   0.549261 0.096795 0.447248 0.428314
H32   H     H_    0.479366 0.102133 0.422069 0.104200
O44   O     O_2   0.594446 0.044873 0.398191 -0.580946
C90   C     C_2   0.128338 0.266787 0.584599 0.938235
O45   O     O_2   0.093903 0.339363 0.575109 -0.572946
O46   O     O_R   0.112488 0.192125 0.510065 -0.850454
H33   H     H_    0.069230 0.207387 0.453426 0.353743
C91   C     C_2   0.214937 0.072236 0.785761 0.883610
O47   O     O_2   0.251191 0.993024 0.776443 -0.620615
O48   O     O_R   0.121719 0.110683 0.762240 -0.858877
H34   H     H_    0.089963 0.065067 0.723363 0.292843
C92   C     C_2   0.393006 0.325655 0.012584 0.879122
O49   O     O_2   0.469431 0.311177 0.066003 -0.655355
O50   O     O_R   0.332252 0.412595 0.024703 -0.778399
H35   H     H_    0.360660 0.457678 0.078418 0.312382
C93   C     C_2   0.788601 0.415660 0.001750 0.969711
O51   O     O_2   0.776863 0.493870 0.022392 -0.604124
O52   O     O_R   0.761942 0.390900 0.042636 -0.821810
H36   H     H_    0.731287 0.443860 0.086538 0.319289
C94   C     C_2   0.979700 0.377301 0.062738 0.948328
O53   O     O_2   0.042644 0.396830 0.079415 -0.568928
O54   O     O_R   0.957323 0.392732 0.133085 -0.770219
H37   H     H_    0.996890 0.421510 0.193957 0.372784
C95   C     C_2   0.920014 0.119676 0.231218 0.977081
O55   O     O_2   0.934438 0.039457 0.200180 -0.542368
O56   O     O_R   0.986679 0.152502 0.256839 -0.803643
H38   H     H_    0.043723 0.103152 0.245935 0.342775

loop_
_geom_bond_atom_site_label_1
_geom_bond_atom_site_label_2
_geom_bond_distance
_ccdc_geom_bond_type
C95   O56   1.396784 S    
C89   H32   1.085825 S    
C94   O53   1.223864 D    
O22   C76   1.282997 A    
C44   C85   1.481114 S    
C62   H17   1.084824 S    
C44   C45   1.438789 A    
C29   C30   1.414901 A    
O41   H29   1.013838 S    
C55   C56   1.412287 A    
C21   C26   1.418621 A    
C40   C71   1.473159 S    
C48   C83   1.497586 S    
C63   H18   1.084384 S    
C52   C88   1.478358 S    
C48   C49   1.409586 A    
O50   H35   1.013188 S    
C41   C46   1.409135 A    
C79   O31   1.398356 S    
C70   C72   1.452926 S    
C8    C9    1.392700 A    
C87   H30   1.084458 S    
Zn1   O1    1.955299 S    
Zn6   O14   1.943396 S    
C10   C11   1.420649 A    
O7    C6    1.279427 A    
C19   C20   1.378124 A    
C82   O35   1.220034 D    
C20   H5    1.072279 S    
C80   O32   1.221362 D    
Zn8   O24   1.937029 S    
O17   C73   1.278006 A    
O23   C73   1.278592 A    
O26   C72   1.273093 A    
O16   C72   1.278631 A    
C29   C78   1.491499 S    
O8    C5    1.272292 A    
C10   H4    1.081125 S    
O56   H38   1.013034 S    
O18   C74   1.262704 A    
C31   C32   1.396153 A    
O9    C6    1.282289 A    
C61   C91   1.471229 S    
Zn6   O17   1.944964 S    
C90   O45   1.223625 D    
Zn5   O16   1.931893 S    
C64   C92   1.480445 S    
Zn3   O8    1.928746 S    
Zn8   O15   1.934580 S    
C63   C64   1.391136 A    
C92   O49   1.221609 D    
C2    C27   1.458558 S    
C85   O38   1.223762 D    
O39   H28   1.013992 S    
C61   C66   1.441586 A    
C41   H11   1.074030 S    
C18   C19   1.388281 A    
C1    C47   1.455305 S    
C83   H26   1.082545 S    
Zn3   O13   1.944965 S    
C42   H12   1.084478 S    
Zn2   O12   1.946198 S    
C84   O37   1.220266 D    
C88   O43   1.221254 D    
C95   O55   1.222636 D    
C22   C77   1.485329 S    
C87   O42   1.221462 D    
O15   C71   1.284923 A    
C28   C95   1.486651 S    
C67   C68   1.416681 A    
O21   C75   1.270508 A    
Zn8   O20   1.932311 S    
Zn5   O22   1.931768 S    
H19   C69   1.085981 S    
C86   O41   1.398173 S    
Zn7   O21   1.932355 S    
C91   O47   1.221881 D    
C92   O50   1.397256 S    
C38   C79   1.484604 S    
C54   C55   1.410663 A    
O2    C1    1.276586 A    
C23   C24   1.392093 A    
C43   C84   1.482255 S    
C45   C46   1.406280 A    
C12   C16   1.408109 A    
C26   C27   1.416958 A    
C66   C67   1.445078 A    
O10   C3    1.280706 A    
C47   C48   1.414071 A    
C51   C52   1.402891 A    
H16   C59   1.084123 S    
C49   C50   1.417818 A    
C51   H13   1.083183 S    
C78   O29   1.221183 D    
C7    C8    1.400742 A    
C54   H15   1.082608 S    
C42   C43   1.390350 A    
C68   C90   1.494985 S    
O6    C5    1.271957 A    
Zn8   O14   1.954080 S    
O52   H36   1.013541 S    
C17   C18   1.421407 A    
C38   C39   1.391151 A    
C85   O39   1.395247 S    
C77   O28   1.399077 S    
C46   C47   1.408550 A    
C14   C17   1.451678 A    
C11   C12   1.405612 A    
Zn3   O5    1.939977 S    
O28   H20   1.014205 S    
C81   O34   1.398838 S    
C89   O44   1.221389 D    
C35   C40   1.422378 A    
C58   C59   1.393869 A    
C53   H14   1.083124 S    
C30   C73   1.462681 S    
O11   C4    1.280592 A    
C9    H3    1.083659 S    
C11   C13   1.421484 A    
C6    C16   1.456098 S    
C36   C37   1.423057 A    
C25   C26   1.412372 A    
C61   C62   1.397302 A    
C68   C69   1.384348 A    
O12   C1    1.270657 A    
O4    C3    1.276324 A    
C82   H25   1.085377 S    
Zn4   O7    1.932312 S    
C21   C22   1.403091 A    
C84   H27   1.085521 S    
C31   C80   1.486138 S    
Zn4   O2    1.937089 S    
O46   H33   1.013923 S    
C53   C54   1.391776 A    
C8    C89   1.479820 S    
C52   C53   1.398981 A    
O3    C2    1.278804 A    
C45   C50   1.435389 A    
C21   H6    1.080528 S    
C31   C36   1.420358 A    
Zn2   O1    1.935994 S    
Zn1   O9    1.931722 S    
C93   O52   1.394953 S    
C58   C87   1.490137 S    
Zn2   O6    1.932460 S    
Zn5   O23   1.938829 S    
O20   C76   1.278298 A    
C27   C28   1.411914 A    
O34   H24   1.013826 S    
C69   C70   1.387182 A    
C7    C12   1.419934 A    
C50   C74   1.470262 S    
C23   H7    1.083118 S    
C88   H31   1.083652 S    
C94   O54   1.398965 S    
Zn1   O3    1.938831 S    
Zn5   O14   1.955449 S    
C13   C14   1.436195 A    
Zn7   O26   1.941889 S    
C15   C20   1.408464 A    
Zn6   O25   1.939976 S    
C43   C44   1.423670 A    
Zn3   O1    1.943398 S    
C33   C81   1.484386 S    
C91   O48   1.393598 S    
O31   H22   1.013904 S    
C62   C63   1.375116 A    
O24   C74   1.295112 A    
C28   C29   1.404661 A    
C78   H21   1.078537 S    
C18   C94   1.493074 S    
H1    C19   1.084120 S    
C79   O30   1.223393 D    
C65   C70   1.420147 A    
C25   C30   1.418418 A    
C64   C65   1.433398 A    
C81   O33   1.223133 D    
C14   C15   1.418134 A    
Zn6   O19   1.928602 S    
Zn4   O11   1.934579 S    
Zn7   O14   1.935994 S    
C77   O27   1.222897 D    
C93   O51   1.221778 D    
C60   C75   1.446767 S    
C13   C76   1.447958 S    
C86   O40   1.222846 D    
C80   H23   1.085774 S    
O54   H37   1.013942 S    
O5    C4    1.290203 A    
C32   H9    1.084608 S    
C17   C93   1.475774 S    
C24   H8    1.079708 S    
Zn4   O1    1.953930 S    
C55   C60   1.408398 A    
C24   C25   1.416365 A    
C59   C60   1.392881 A    
O13   C2    1.275599 A    
C5    C57   1.451648 S    
C15   C16   1.416324 A    
C39   C40   1.402919 A    
C83   O36   1.221013 D    
C35   C36   1.407285 A    
C90   O46   1.398942 S    
C4    C37   1.483680 S    
C32   C33   1.399054 A    
Zn7   O18   1.946049 S    
C37   C38   1.414264 A    
C22   C23   1.395905 A    
C33   C34   1.421989 A    
C3    C67   1.462207 S    
C56   C57   1.418497 A    
C49   C86   1.488653 S    
C51   C56   1.415968 A    
H10   C39   1.083689 S    
O19   C75   1.273489 A    
Zn2   O4    1.941890 S    
C9    C10   1.392363 A    
C41   C42   1.383793 A    
C34   C35   1.428350 A    
C65   C66   1.433632 A    
Zn1   O10   1.932142 S    
C34   C82   1.484164 S    
C57   C58   1.412600 A    
O25   C71   1.283367 A    
C7    H2    1.081339 S    
O48   H34   1.012116 S    
