data_mof_unit_64162.cif
_audit_creation_date              2012-12-10T20:48:21-0500
_audit_creation_method            fapswitch 2.2
_symmetry_space_group_name_H-M    P1
_symmetry_Int_Tables_number       1
_space_group_crystal_system       triclinic
_cell_length_a                    16.039231
_cell_length_b                    19.239728
_cell_length_c                    19.247118
_cell_angle_alpha                 95.105428
_cell_angle_beta                  95.014879
_cell_angle_gamma                 90.710179
_cell_volume                      5892.04847023

loop_
_atom_site_label
_atom_site_type_symbol
_atom_type_description
_atom_site_fract_x
_atom_site_fract_y
_atom_site_fract_z
_atom_type_partial_charge
C1    C     C_R   0.509145 0.310753 0.491839 0.821843
C2    C     C_R   0.449284 0.804078 0.564149 -0.253613
C3    C     C_R   0.520319 0.128476 0.546048 -0.206132
C4    C     C_R   0.491637 0.689416 0.507502 0.829723
C5    C     C_R   0.519620 0.200849 0.548369 -0.252904
C6    C     C_R   0.515819 0.087788 0.481321 0.220913
C7    C     C_R   0.513734 0.234200 0.486465 -0.054207
C8    C     C_R   0.512134 0.194218 0.420725 0.013626
C9    C     C_R   0.513297 0.120633 0.418880 0.386264
C10   C     C_R   0.492147 0.485857 0.232810 -0.099829
C11   C     C_R   0.516595 0.544842 0.200962 -0.272727
C12   C     C_1   0.111166 0.481372 0.481548 0.001177
C13   C     C_R   0.520861 0.541756 0.128841 -0.155614
C14   C     C_R   0.501041 0.479036 0.086760 0.255669
C15   C     C_R   0.477341 0.420112 0.118261 -0.216872
C16   C     C_R   0.508641 0.508479 0.690063 0.798132
C17   C     C_R   0.472084 0.422875 0.190530 0.375930
C18   C     C_R   0.545634 0.464873 0.877473 -0.154644
C19   C     C_R   0.546661 0.460607 0.804770 -0.216591
C20   C     C_R   0.510249 0.522969 0.913203 0.316260
C21   C     C_R   0.511706 0.513736 0.766851 -0.005537
C22   C     C_R   0.478114 0.572121 0.802794 -0.198370
C23   C     C_1   0.888593 0.516677 0.516190 0.027722
C24   C     C_R   0.478407 0.576921 0.875422 -0.180684
C25   C     C_R   0.492112 0.491182 0.309757 0.845093
C26   C     C_R   0.723904 0.510078 0.509957 0.815195
C27   C     C_R   0.275879 0.489997 0.490023 0.825892
C28   C     C_1   0.813365 0.513918 0.513582 -0.125223
C29   C     C_2   0.978665 0.519149 0.518522 -0.166063
C30   C     C_2   0.021085 0.475923 0.476224 0.194299
C31   C     C_3   0.977623 0.421854 0.423377 -0.815415
C32   C     C_3   0.510726 0.230241 0.353870 -0.653020
C33   C     C_1   0.186406 0.485613 0.485707 -0.138022
C34   C     C_R   0.491036 0.766168 0.512393 -0.072800
C35   C     C_R   0.534548 0.802171 0.466176 -0.213255
C36   C     C_R   0.536101 0.874714 0.471220 -0.204608
C37   C     C_R   0.493873 0.913153 0.522898 0.247394
C38   C     C_R   0.451111 0.877061 0.569716 0.387232
Cl1   Cl    Cl    0.443982 0.345008 0.225005 -0.605799
Cl2   Cl    Cl    0.398335 0.922557 0.635491 -0.569334
Cl3   Cl    Cl    0.508345 0.067418 0.338670 -0.574898
H1    H     H_    0.567664 0.774280 0.425994 0.185896
H2    H     H_    0.521958 0.231023 0.598829 0.177576
H3    H     H_    0.524394 0.104409 0.594954 0.197044
H4    H     H_    0.415892 0.777167 0.600690 0.200405
H5    H     H_    0.570884 0.900523 0.434811 0.195917
H6    H     H_    0.023678 0.391617 0.393742 0.243985
H7    H     H_    0.940914 0.384885 0.450455 0.241061
H8    H     H_    0.934919 0.447683 0.385491 0.240258
H9    H     H_    0.524141 0.195113 0.307657 0.280962
H10   H     H_    0.448076 0.252547 0.342551 0.284093
H11   H     H_    0.559166 0.272605 0.359516 0.211273
H12   H     H_    0.573272 0.415281 0.778149 0.169081
H13   H     H_    0.572439 0.423005 0.905600 0.159191
H14   H     H_    0.462819 0.371598 0.086153 0.186316
H15   H     H_    0.451663 0.614209 0.774750 0.173224
H16   H     H_    0.540626 0.588200 0.106350 0.169099
H17   H     H_    0.452017 0.622194 0.902329 0.154930
H18   H     H_    0.532600 0.593707 0.231998 0.187203
H19   H     H_    0.012130 0.557504 0.556019 0.141903
N1    N     N_2   0.493713 0.987416 0.529290 -0.129802
N2    N     N_2   0.515683 0.013705 0.476650 -0.129085
N3    N     N_2   0.505587 0.472581 0.013109 -0.178481
N4    N     N_2   0.506151 0.529483 0.986774 -0.190048
O1    O     O_3   0.500000 0.500000 0.500000 -0.490306
O2    O     O_R   0.688130 0.469010 0.547620 -0.631339
O3    O     O_R   0.315580 0.449250 0.449280 -0.624428
O4    O     O_R   0.680710 0.547310 0.468650 -0.632665
O5    O     O_R   0.315580 0.534430 0.534450 -0.634565
O6    O     O_R   0.456860 0.545290 0.655940 -0.643906
O7    O     O_R   0.446440 0.450430 0.339790 -0.587078
O8    O     O_R   0.557290 0.347960 0.537250 -0.641330
O9    O     O_R   0.539410 0.656320 0.467010 -0.645469
O10   O     O_R   0.456880 0.340240 0.450910 -0.628025
O11   O     O_R   0.446420 0.655480 0.544820 -0.643170
O12   O     O_R   0.557280 0.467820 0.657110 -0.641530
O13   O     O_R   0.539420 0.536460 0.347160 -0.652333
Zn1   Zn    Zn3+2 0.430910 0.557800 0.557800 0.983568
Zn2   Zn    Zn3+2 0.574380 0.447110 0.559460 0.982134
Zn3   Zn    Zn3+2 0.563780 0.559000 0.446630 0.980535
Zn4   Zn    Zn3+2 0.430930 0.436090 0.436110 1.021702

loop_
_geom_bond_atom_site_label_1
_geom_bond_atom_site_label_2
_ccdc_geom_bond_type
O4    Zn3   S    
C16   C21   S    
O1    Zn2   S    
O6    Zn1   S    
C35   C36   A    
O12   Zn2   S    
C3    C6    A    
C6    C9    A    
C7    C8    A    
C27   C33   S    
O2    Zn2   S    
C37   C38   A    
C25   O13   A    
C1    O10   A    
C23   C29   S    
C36   C37   A    
C19   C21   A    
C18   C19   A    
O8    Zn2   S    
C30   C31   S    
C13   H16   S    
C10   C17   A    
C34   C35   A    
C17   Cl1   S    
C35   H1    S    
C32   H11   S    
C4    O11   A    
C1    C7    S    
C20   C24   A    
C8    C9    A    
C36   H5    S    
C25   O7    A    
C27   O5    A    
C19   H12   S    
C5    H2    S    
O1    Zn3   S    
C31   H6    S    
C13   C14   A    
O5    Zn1   S    
C31   H8    S    
C11   H18   S    
C2    H4    S    
C4    C34   S    
C3    H3    S    
C1    O8    A    
C8    C32   S    
C16   O6    A    
C5    C7    A    
C22   H15   S    
C26   O2    A    
C20   N4    S    
C32   H10   S    
C29   C30   D    
C2    C38   A    
O1    Zn4   S    
C29   H19   S    
C23   C28   T    
C32   H9    S    
C4    O9    A    
C10   C25   S    
O3    Zn4   S    
C31   H7    S    
C22   C24   A    
O10   Zn4   S    
O13   Zn3   S    
C15   C17   A    
O1    Zn1   S    
C12   C30   S    
C16   O12   A    
C9    Cl3   S    
C3    C5    A    
C37   N1    S    
C26   C28   S    
C26   O4    A    
C6    N2    S    
C38   Cl2   S    
C11   C13   A    
C2    C34   A    
C14   N3    S    
O9    Zn3   S    
C18   C20   A    
N1    N2    D    
O11   Zn1   S    
C27   O3    A    
C10   C11   A    
C18   H13   S    
N3    N4    D    
C24   H17   S    
C14   C15   A    
C12   C33   T    
C21   C22   A    
C15   H14   S    
O7    Zn4   S    
