data_mof_unit_59429.cif
_audit_creation_date              2012-12-10T16:57:04-0500
_audit_creation_method            fapswitch 2.2
_symmetry_space_group_name_H-M    P1
_symmetry_Int_Tables_number       1
_space_group_crystal_system       triclinic
_cell_length_a                    7.941624
_cell_length_b                    8.465773
_cell_length_c                    17.177192
_cell_angle_alpha                 93.022168
_cell_angle_beta                  80.99885
_cell_angle_gamma                 92.935635
_cell_volume                      1137.9672643

loop_
_atom_site_label
_atom_site_type_symbol
_atom_type_description
_atom_site_fract_x
_atom_site_fract_y
_atom_site_fract_z
_atom_type_partial_charge
C1    C     C_R   0.544593 0.793601 0.490650 0.831764
C2    C     C_R   0.402669 0.583971 0.235151 -0.242035
C3    C     C_R   0.595526 0.615360 0.853565 0.114284
C4    C     C_R   0.369130 0.565755 0.158520 0.076730
C5    C     C_R   0.447996 0.554793 0.900166 -0.040074
C6    C     C_R   0.447061 0.443366 0.108893 -0.025051
C7    C     C_R   0.305728 0.500481 0.864998 0.350361
C8    C     C_R   0.559687 0.344172 0.136815 0.244544
C9    C     C_R   0.309090 0.535070 0.786490 0.329954
C10   C     C_R   0.621157 0.389862 0.207414 0.344471
C11   C     C_2   0.441962 0.563894 0.984834 -0.086047
C12   C     C_R   0.455173 0.204650 0.495799 0.821594
C13   C     C_2   0.431150 0.433053 0.025123 -0.004544
C14   C     C_2   0.564852 0.950411 0.462360 0.071616
C15   C     C_2   0.428459 0.040177 0.475403 0.095541
C16   C     C_R   0.479274 0.513749 0.652705 0.908571
C17   C     C_R   0.522014 0.497482 0.346728 0.960420
C18   C     C_R   0.467911 0.541831 0.737919 -0.283223
C19   C     C_R   0.525418 0.496010 0.261053 -0.163768
C20   C     C_R   0.610246 0.595827 0.771567 -0.227445
H1    H     H_    0.725170 0.634135 0.734245 0.220792
H2    H     H_    0.208144 0.752740 0.175791 0.228393
H3    H     H_    0.830272 0.618588 0.883341 0.316187
H4    H     H_    0.767674 0.797964 0.861259 0.261102
H5    H     H_    0.903692 0.800515 0.363407 0.398133
H6    H     H_    0.297963 0.110141 0.325327 0.361600
H7    H     H_    0.953368 0.360246 0.373335 0.289497
H8    H     H_    0.056377 0.535880 0.376204 0.193357
H9    H     H_    0.917431 0.487273 0.624621 0.237400
H10   H     H_    0.871619 0.666744 0.589855 0.221294
H11   H     H_    0.332943 0.668986 0.274695 0.222038
H12   H     H_    0.434340 0.319384 0.993297 0.253070
H13   H     H_    0.469851 0.678898 0.012212 0.228891
H14   H     H_    0.040386 0.527211 0.247623 0.345134
H15   H     H_    0.325612 0.852282 0.712680 0.346212
H16   H     H_    0.058495 0.204224 0.988670 0.444374
H17   H     H_    0.374426 0.044035 0.117674 0.363165
H18   H     H_    0.148471 0.600494 0.117849 0.287203
N1    N     N_2   0.953500 0.457650 0.478520 -0.036112
N2    N     N_2   0.046500 0.542350 0.521480 0.010696
N3    N     N_3   0.253614 0.668942 0.131586 -0.400450
N4    N     N_3   0.728858 0.693474 0.890080 -0.353421
N5    N     N_3   0.037977 0.427294 0.403102 -0.240731
N6    N     N_3   0.966183 0.589151 0.595728 -0.242923
O1    O     O_R   0.388470 0.738640 0.505270 -0.546519
O2    O     O_2   0.935022 0.361030 0.125076 -0.246901
O3    O     O_3   0.917097 0.542577 0.250818 -0.552041
O4    O     O_2   0.004376 0.573675 0.750686 -0.313133
O5    O     O_2   0.107849 0.772192 0.842621 -0.277992
O6    O     O_3   0.230734 0.787148 0.694563 -0.504072
O7    O     O_2   0.040900 0.522811 0.982286 -0.253571
O8    O     O_2   0.990327 0.364419 0.863763 -0.235376
O9    O     O_3   0.165952 0.242825 0.956898 -0.523536
O10   O     O_2   0.730106 0.199258 0.007500 -0.220429
O11   O     O_2   0.716216 0.063830 0.131079 -0.174016
O12   O     O_R   0.611530 0.261360 0.494730 -0.592967
O13   O     O_3   0.444090 0.059416 0.065307 -0.520915
O14   O     O_2   0.628350 0.049835 0.316160 -0.264703
O15   O     O_2   0.855291 0.091658 0.397785 -0.211020
O16   O     O_3   0.799408 0.809092 0.339222 -0.463253
O17   O     O_2   0.246475 0.830744 0.390300 -0.343139
O18   O     O_2   0.089689 0.983987 0.500219 -0.225985
O19   O     O_3   0.209780 0.127273 0.372149 -0.489575
O20   O     O_R   0.679650 0.711510 0.491500 -0.627138
O21   O     O_R   0.320350 0.288490 0.508500 -0.547139
O22   O     O_R   0.337210 0.515200 0.623500 -0.537293
O23   O     O_R   0.662790 0.484800 0.376500 -0.561316
O24   O     O_R   0.628380 0.488060 0.609730 -0.670827
O25   O     O_R   0.371620 0.511940 0.390270 -0.616578
O26   O     O_2   0.878957 0.236125 0.251239 -0.201329
S1    S     S_3+6 0.842786 0.376606 0.208156 0.087439
S2    S     S_3+6 0.157277 0.669146 0.769444 0.053814
S3    S     S_3+6 0.118074 0.409652 0.917815 0.086941
S4    S     S_3+6 0.620319 0.163381 0.084483 0.091148
S5    S     S_3+6 0.715340 0.979792 0.377019 0.116037
S6    S     S_3+6 0.238783 0.988149 0.434545 0.089686
Zn1   Zn    Zn3+2 0.305580 0.518120 0.509190 1.127717
Zn2   Zn    Zn3+2 0.694420 0.481880 0.490810 1.035413

loop_
_geom_bond_atom_site_label_1
_geom_bond_atom_site_label_2
_ccdc_geom_bond_type
O13   S4    S    
C2    C4    A    
H6    O19   S    
C12   C15   S    
C3    N4    S    
C17   O25   A    
O26   S1    D    
C16   O24   A    
H5    O16   S    
O15   S5    D    
O21   Zn1   S    
H4    N4    S    
C12   O21   A    
O16   S5    S    
O25   Zn1   S    
C9    S2    S    
O23   Zn2   S    
C10   C19   A    
O18   S6    D    
C10   S1    S    
H14   O3    S    
H15   O6    S    
C8    S4    S    
C15   S6    S    
C5    C7    A    
C3    C20   A    
C7    S3    S    
C12   O12   A    
C14   S5    S    
C6    C13   S    
C11   C13   D    
O10   S4    D    
H10   N6    S    
O2    S1    D    
H16   O9    S    
H3    N4    S    
O4    S2    D    
C8    C10   A    
C17   C19   S    
O14   S5    D    
C5    C11   S    
C18   C20   A    
H9    N6    S    
O8    S3    D    
O17   S6    D    
O24   Zn2   S    
O9    S3    S    
C17   O23   A    
H2    N3    S    
C16   O22   A    
O19   S6    S    
O3    S1    S    
N1    Zn2   S    
H7    N5    S    
C9    C18   A    
N2    N6    S    
O12   Zn2   S    
C20   H1    S    
N1    N5    S    
H18   N3    S    
C16   C18   S    
C4    C6    A    
C4    N3    S    
C1    O1    A    
C11   H13   S    
N1    N2    D    
C7    C9    A    
O22   Zn1   S    
O6    S2    S    
C14   C15   D    
C6    C8    A    
C1    C14   S    
H8    N5    S    
O1    Zn1   S    
C2    C19   A    
N2    Zn1   S    
C13   H12   S    
O20   Zn2   S    
C1    O20   A    
O11   S4    D    
H17   O13   S    
O7    S3    D    
C2    H11   S    
C3    C5    A    
O5    S2    D    
