data_mof_unit_13985.cif
_audit_creation_date              2012-12-10T17:58:17-0500
_audit_creation_method            fapswitch 2.2
_symmetry_space_group_name_H-M    P1
_symmetry_Int_Tables_number       1
_space_group_crystal_system       triclinic
_cell_length_a                    9.521755
_cell_length_b                    10.807033
_cell_length_c                    15.493182
_cell_angle_alpha                 89.846201
_cell_angle_beta                  74.497767
_cell_angle_gamma                 90.413402
_cell_volume                      1536.22081111

loop_
_atom_site_label
_atom_site_type_symbol
_atom_type_description
_atom_site_fract_x
_atom_site_fract_y
_atom_site_fract_z
_atom_type_partial_charge
C1    C     C_R   0.000088 0.262326 0.498114 0.810583
C2    C     C_R   0.999935 0.737683 0.501842 0.810609
C3    C     C_R   0.585732 0.519564 0.094750 -0.220460
C4    C     C_R   0.423447 0.423785 0.911045 -0.220783
C5    C     C_R   0.731621 0.534088 0.049527 -0.243789
C6    C     C_R   0.277998 0.406962 0.956636 -0.241802
C7    C     C_R   0.924531 0.061083 0.445171 0.172589
C8    C     C_R   0.075661 0.938956 0.554663 0.171720
C9    C     C_R   0.926175 0.932549 0.448732 -0.218848
C10   C     C_R   0.073933 0.067482 0.551147 -0.218684
C11   C     C_R   0.001200 0.871577 0.502358 -0.073346
C12   C     C_R   0.998881 0.128447 0.497542 -0.072773
C13   C     C_R   0.548098 0.427541 0.558894 -0.024220
C14   C     C_R   0.451906 0.572443 0.441097 -0.024583
C15   C     C_R   0.399280 0.427677 0.558935 -0.023243
C16   C     C_R   0.600720 0.572311 0.441060 -0.024068
C17   C     C_R   0.918296 0.500348 0.672153 0.793967
C18   C     C_R   0.081686 0.498283 0.327921 0.793179
C19   C     C_R   0.873462 0.502613 0.770393 -0.051234
C20   C     C_R   0.126981 0.485370 0.230263 -0.049000
C21   C     C_R   0.925381 0.539561 0.912482 -0.213194
C22   C     C_R   0.081288 0.416548 0.092022 -0.217363
C23   C     C_R   0.973224 0.529674 0.819715 -0.204361
C24   C     C_R   0.030512 0.441526 0.183118 -0.209477
C25   C     C_R   0.726746 0.481679 0.814814 -0.247792
C26   C     C_R   0.273242 0.506632 0.185312 -0.242559
C27   C     C_R   0.676037 0.488073 0.908602 0.091810
C28   C     C_R   0.328753 0.477183 0.094321 0.092540
C29   C     C_R   0.777867 0.520266 0.957101 0.167615
C30   C     C_R   0.229147 0.433913 0.047378 0.166953
C31   C     C_R   0.526762 0.467366 0.955050 0.067530
C32   C     C_R   0.479762 0.489252 0.048980 0.067968
Cu1   Cu    Cu3+1 0.140660 0.500020 0.500000 0.938647
Cu2   Cu    Cu3+1 0.859340 0.499980 0.500000 0.937999
H1    H     H_    0.808651 0.557940 0.087324 0.148742
H2    H     H_    0.203001 0.372594 0.920340 0.146944
H3    H     H_    0.341310 0.546584 0.223408 0.141435
H4    H     H_    0.653410 0.464162 0.774119 0.146812
H5    H     H_    0.917044 0.423633 0.216978 0.155644
H6    H     H_    0.087168 0.546562 0.786522 0.156571
H7    H     H_    0.003461 0.564309 0.949272 0.145730
H8    H     H_    0.005440 0.381205 0.056757 0.143863
H9    H     H_    0.560784 0.530058 0.166292 0.139338
H10   H     H_    0.451577 0.397966 0.841523 0.136307
H11   H     H_    0.870606 0.879240 0.408393 0.146630
H12   H     H_    0.129505 0.120793 0.591484 0.146508
H13   H     H_    0.583072 0.369270 0.605983 0.116884
H14   H     H_    0.416933 0.630705 0.394005 0.117550
H15   H     H_    0.322154 0.369651 0.606085 0.114018
H16   H     H_    0.677845 0.630337 0.393910 0.114956
N1    N     N_R   0.352080 0.500030 0.499980 -0.155997
N2    N     N_R   0.647920 0.499970 0.500020 -0.156113
O1    O     O_R   0.118740 0.319660 0.500000 -0.582649
O2    O     O_R   0.881260 0.680340 0.500000 -0.582449
O3    O     O_R   0.881170 0.319630 0.500010 -0.579330
O4    O     O_R   0.118830 0.680370 0.499990 -0.578998
O5    O     O_R   0.055570 0.500030 0.629830 -0.589145
O6    O     O_R   0.944430 0.499970 0.370170 -0.589404
O7    O     O_R   0.818000 0.500000 0.629840 -0.584793
O8    O     O_R   0.182000 0.500000 0.370160 -0.583589
C33   C     C_3   0.848046 0.123274 0.383229 -0.831341
H17   H     H_    0.923264 0.189823 0.338564 0.226492
H18   H     H_    0.811181 0.055283 0.340094 0.216937
H19   H     H_    0.750194 0.172572 0.422802 0.248684
C34   C     C_3   0.152427 0.876804 0.616467 -0.830052
H20   H     H_    0.077374 0.810197 0.661173 0.226359
H21   H     H_    0.250259 0.827589 0.576780 0.248862
H22   H     H_    0.189386 0.944805 0.659557 0.216470

loop_
_geom_bond_atom_site_label_1
_geom_bond_atom_site_label_2
_ccdc_geom_bond_type
C21   C29   A    
C10   H12   S    
C33   H19   S    
C19   C23   A    
C26   H3    S    
C9    H11   S    
C15   N1    A    
C25   H4    S    
Cu1   N1    S    
C13   N2    A    
C4    H10   S    
Cu1   O5    S    
Cu2   N2    S    
C31   C32   A    
C13   C15   A    
C28   C32   A    
C3    C5    A    
C34   H22   S    
C7    C9    A    
C20   C24   A    
Cu1   O4    S    
C28   C30   A    
Cu1   Cu2   S    
C1    O3    A    
Cu2   O3    S    
C2    O4    A    
C18   O8    A    
C9    C11   A    
C3    H9    S    
C33   H17   S    
C1    C12   S    
C20   C26   A    
C17   O7    A    
C8    C11   A    
C21   H7    S    
C2    C11   S    
C10   C12   A    
C22   C24   A    
C4    C6    A    
C13   H13   S    
C17   C19   S    
C6    H2    S    
Cu2   O2    S    
Cu1   O8    S    
C18   C20   S    
C15   H15   S    
C21   C23   A    
Cu1   O1    S    
C3    C32   A    
C19   C25   A    
C14   C16   A    
C7    C12   A    
C4    C31   A    
C27   C29   A    
C27   C31   A    
C23   H6    S    
C5    C29   A    
C5    H1    S    
C8    C34   S    
C24   H5    S    
C8    C10   A    
C34   H20   S    
C2    O2    A    
C22   H8    S    
C16   N2    A    
Cu2   O6    S    
C1    O1    A    
C7    C33   S    
C14   H14   S    
C22   C30   A    
C6    C30   A    
C17   O5    A    
Cu2   O7    S    
C26   C28   A    
C18   O6    A    
C33   H18   S    
C14   N1    A    
C16   H16   S    
C34   H21   S    
C25   C27   A    
