data_mof_unit_20533.cif
_audit_creation_date              2012-12-11T14:36:06-0500
_audit_creation_method            fapswitch 2.2
_symmetry_space_group_name_H-M    P1
_symmetry_Int_Tables_number       1
_space_group_crystal_system       triclinic
_cell_length_a                    15.240361
_cell_length_b                    15.66199
_cell_length_c                    7.039997
_cell_angle_alpha                 89.999956
_cell_angle_beta                  81.100237
_cell_angle_gamma                 89.999237
_cell_volume                      1660.17647081

loop_
_atom_site_label
_atom_site_type_symbol
_atom_type_description
_atom_site_fract_x
_atom_site_fract_y
_atom_site_fract_z
_atom_type_partial_charge
O1    O     O_R   0.337460 0.413110 0.524760 -0.534652
O2    O     O_R   0.662540 0.913110 0.475240 -0.534631
O3    O     O_R   0.348690 0.587910 0.191230 -0.562675
O4    O     O_R   0.651310 0.087910 0.808770 -0.562670
O5    O     O_R   0.166530 0.586890 0.082470 -0.565175
O6    O     O_R   0.833470 0.086890 0.917530 -0.565185
C1    C     C_R   0.362119 0.621112 0.356082 0.743885
C2    C     C_R   0.637882 0.121114 0.643917 0.743884
O7    O     O_R   0.348700 0.413830 0.191250 -0.554787
O8    O     O_R   0.651300 0.913830 0.808750 -0.554802
O9    O     O_R   0.166530 0.411570 0.082490 -0.551353
O10   O     O_R   0.833470 0.911570 0.917510 -0.551360
C3    C     C_R   0.371610 0.386399 0.357794 0.782660
C4    C     C_R   0.628387 0.886402 0.642207 0.782742
O11   O     O_R   0.337460 0.588430 0.524740 -0.544208
O12   O     O_R   0.662540 0.088430 0.475260 -0.544220
O13   O     O_3   0.192230 0.499460 0.407330 -0.362518
O14   O     O_3   0.807770 0.999460 0.592670 -0.362530
V1    V     V_3+5 0.263080 0.500100 0.108540 1.405302
V2    V     V_3+5 0.736920 0.000100 0.891460 1.405337
O15   O     O_R   0.155290 0.412090 0.756570 -0.500756
O16   O     O_R   0.844710 0.912090 0.243430 -0.500739
C5    C     C_R   0.134661 0.381779 0.932025 0.736115
C6    C     C_R   0.865348 0.881788 0.067969 0.736221
O17   O     O_R   0.155290 0.586170 0.756550 -0.477722
O18   O     O_R   0.844710 0.086170 0.243450 -0.477732
C7    C     C_R   0.140848 0.621868 0.928265 0.714229
C8    C     C_R   0.859157 0.121865 0.071732 0.714197
V3    V     V_3+5 0.240910 0.499900 0.616030 1.580771
V4    V     V_3+5 0.759090 0.999900 0.383970 1.580848
O19   O     O_3   0.311760 0.500540 0.867100 -0.404282
O20   O     O_3   0.688240 0.000540 0.132900 -0.404296
C9    C     C_3   0.098096 0.770839 0.081552 -0.370546
C10   C     C_3   0.901922 0.270828 0.918429 -0.370631
H1    H     H_    0.121374 0.749935 0.210121 0.253742
H2    H     H_    0.878657 0.249921 0.789855 0.253773
H3    H     H_    0.159039 0.802341 0.005263 0.112579
H4    H     H_    0.840978 0.302335 0.994704 0.112582
C11   C     C_3   0.021886 0.839421 0.121668 -0.216622
C12   C     C_3   0.978132 0.339405 0.878307 -0.216663
H5    H     H_    0.047970 0.900426 0.053694 0.126724
H6    H     H_    0.952049 0.400415 0.946260 0.126716
H7    H     H_    0.004849 0.857307 0.274666 0.226736
H8    H     H_    0.995175 0.357280 0.725303 0.226723
H9    H     H_    0.994060 0.627036 0.200842 0.253679
H10   H     H_    0.005947 0.127018 0.799179 0.253711
C13   C     C_3   0.983213 0.654415 0.061305 -0.288547
C14   C     C_3   0.016797 0.154400 0.938710 -0.288476
C15   C     C_3   0.053840 0.745249 0.775393 0.392011
C16   C     C_3   0.946171 0.245241 0.224599 0.391990
C17   C     C_3   0.070707 0.695066 0.959270 -0.124953
C18   C     C_3   0.929304 0.195057 0.040726 -0.124927
H11   H     H_    0.112053 0.787874 0.731547 0.100904
H12   H     H_    0.887956 0.287865 0.268447 0.100891
C19   C     C_3   0.938028 0.812778 0.032706 -0.143174
C20   C     C_3   0.061986 0.312764 0.967285 -0.143068
C21   C     C_3   0.905048 0.718183 0.088286 0.402274
C22   C     C_3   0.094966 0.218163 0.911726 0.402192
C23   C     C_3   0.972892 0.807041 0.814043 -0.450611
C24   C     C_3   0.027117 0.307034 0.185946 -0.450629
H13   H     H_    0.993416 0.871320 0.755114 0.170160
H14   H     H_    0.006588 0.371314 0.244864 0.170151
H15   H     H_    0.917812 0.786473 0.737694 0.229592
H16   H     H_    0.082197 0.286470 0.262300 0.229397
H17   H     H_    0.965561 0.598969 0.975713 0.140463
H18   H     H_    0.034445 0.098955 0.024310 0.140473
H19   H     H_    0.865776 0.700065 0.973967 0.056586
H20   H     H_    0.134236 0.200045 0.026049 0.056428
H21   H     H_    0.448965 0.685623 0.629722 0.144586
H22   H     H_    0.550986 0.185578 0.370320 0.144600
C25   C     C_2   0.414572 0.699277 0.351594 -0.303066
C26   C     C_2   0.585425 0.199278 0.648396 -0.303100
C27   C     C_2   0.459303 0.721375 0.495739 -0.162218
C28   C     C_2   0.540669 0.221351 0.504275 -0.162226
H23   H     H_    0.518554 0.804106 0.771035 0.101238
H24   H     H_    0.481430 0.304085 0.228975 0.101255
C29   C     C_2   0.556390 0.821993 0.632992 -0.345473
C30   C     C_2   0.443595 0.321977 0.367014 -0.345491
C31   C     C_2   0.532566 0.785336 0.468289 0.147288
C32   C     C_2   0.467408 0.285314 0.531722 0.147331
H25   H     H_    0.419384 0.737128 0.221546 0.121594
H26   H     H_    0.580636 0.237159 0.778399 0.121589
C33   C     C_3   0.577424 0.798589 0.255786 -0.249513
C34   C     C_3   0.604173 0.712807 0.151608 -0.275425
C35   C     C_3   0.676847 0.721484 0.976651 -0.619735
H27   H     H_    0.648303 0.742216 0.850497 0.193083
H28   H     H_    0.707793 0.658366 0.939263 0.228111
H29   H     H_    0.728536 0.767807 0.001597 0.222435
H30   H     H_    0.624941 0.667525 0.256486 0.268462
H31   H     H_    0.547756 0.682310 0.096403 0.160023
H32   H     H_    0.530388 0.832834 0.176952 0.124238
H33   H     H_    0.636615 0.838516 0.233736 0.229930
C36   C     C_3   0.422549 0.298581 0.744221 -0.249504
C37   C     C_3   0.395882 0.212811 0.848531 -0.275455
C38   C     C_3   0.323145 0.221474 0.023378 -0.619772
H34   H     H_    0.351604 0.242287 0.149581 0.193101
H35   H     H_    0.292258 0.158333 0.060795 0.228149
H36   H     H_    0.271417 0.267733 0.998263 0.222368
H37   H     H_    0.375208 0.167446 0.743698 0.268352
H38   H     H_    0.452318 0.182424 0.903905 0.160015
H39   H     H_    0.469559 0.332894 0.822998 0.124260
H40   H     H_    0.363311 0.338444 0.766208 0.229947
S1    S     S_3+6 0.824252 0.691807 0.299278 -0.023050
O21   O     O_2   0.763703 0.765519 0.358423 -0.376526
O22   O     O_2   0.771425 0.618390 0.239535 -0.375215
O23   O     O_3   0.862914 0.656151 0.494660 -0.425832
H41   H     H_    0.809740 0.648707 0.593692 0.357403
S2    S     S_3+6 0.175751 0.191774 0.700717 -0.022975
O24   O     O_2   0.236206 0.265524 0.641313 -0.376614
O25   O     O_2   0.228684 0.118450 0.760511 -0.374956
O26   O     O_3   0.137043 0.155948 0.505535 -0.425785
H42   H     H_    0.190127 0.149028 0.406105 0.357449
S3    S     S_3+6 0.054610 0.686691 0.565274 -0.044880
O27   O     O_2   0.017758 0.597789 0.596751 -0.320755
O28   O     O_2   0.001581 0.735689 0.443748 -0.353796
O29   O     O_3   0.163071 0.687910 0.472316 -0.560825
H43   H     H_    0.170439 0.643216 0.375279 0.362110
S4    S     S_3+6 0.945412 0.186677 0.434706 -0.044961
O30   O     O_2   0.982245 0.097768 0.403203 -0.320707
O31   O     O_2   0.998462 0.235658 0.556219 -0.353870
O32   O     O_3   0.836954 0.187910 0.527688 -0.560844
H44   H     H_    0.829584 0.143206 0.624700 0.362125

loop_
_geom_bond_atom_site_label_1
_geom_bond_atom_site_label_2
_ccdc_geom_bond_type
C15   S3    S    
C36   C37   S    
C19   C23   S    
O13   V3    S    
C38   H34   S    
O4    C2    A    
V1    O19   S    
C38   H36   S    
C5    C20   S    
C11   H5    S    
C35   H27   S    
O29   H43   S    
C6    C19   S    
C33   H33   S    
O9    V1    S    
C16   H12   S    
C10   C12   S    
H24   C30   S    
C14   C18   S    
O3    C1    A    
C1    C25   S    
C30   C32   D    
O23   H41   S    
O12   V4    S    
S2    O24   D    
C24   H14   S    
C4    C29   S    
O7    C3    A    
S4    O30   D    
O13   V1    S    
O5    C7    A    
O7    V1    S    
O6    C8    A    
O26   H42   S    
O8    V2    S    
C15   C17   S    
H22   C28   S    
C16   C18   S    
O3    V1    S    
O14   V4    S    
V4    O20   S    
C22   S2    S    
S3    O29   S    
C11   C19   S    
C35   H28   S    
C2    O12   A    
C28   C32   S    
C34   H31   S    
C21   H19   S    
C7    C17   S    
O11   V3    S    
H9    C13   S    
O17   V3    S    
C21   S1    S    
H10   C14   S    
C2    C26   S    
C23   H13   S    
C34   C35   S    
C26   C28   D    
O8    C4    A    
C36   H39   S    
C25   C27   D    
C11   H7    S    
C1    O11   A    
C12   C20   S    
O15   V3    S    
C9    H3    S    
C9    C17   S    
C20   C24   S    
S3    O28   D    
S4    O32   S    
C13   C21   S    
C33   C34   S    
C37   H38   S    
O10   V2    S    
O1    V3    S    
C27   C31   S    
C29   C31   D    
S1    O22   D    
C9    C11   S    
H21   C27   S    
H23   C29   S    
O32   H44   S    
C22   H20   S    
O18   V4    S    
C16   S4    S    
O15   C5    A    
O16   C6    A    
C23   H15   S    
O1    C3    A    
C34   H30   S    
O6    V2    S    
S3    O27   D    
V2    O20   S    
C35   H29   S    
C3    C30   S    
O16   V4    S    
C10   H4    S    
O18   C8    A    
C12   H6    S    
C36   H40   S    
C13   C17   S    
C38   H35   S    
C14   C22   S    
O5    V1    S    
O17   C7    A    
C33   H32   S    
O10   C6    A    
C10   C18   S    
C15   C23   S    
S2    O26   S    
O2    V4    S    
C24   H16   S    
C16   C24   S    
C19   C21   S    
V3    O19   S    
C31   C33   S    
C8    C18   S    
S2    O25   D    
C37   H37   S    
C15   H11   S    
O9    C5    A    
C9    H1    S    
C10   H2    S    
C20   C22   S    
S1    O23   S    
O14   V2    S    
C37   C38   S    
O2    C4    A    
S4    O31   D    
O4    V2    S    
C12   H8    S    
S1    O21   D    
C14   H18   S    
C32   C36   S    
C13   H17   S    
C26   H26   S    
C25   H25   S    
