data_mof_unit_62473.cif
_audit_creation_date              2012-10-26T18:03:05-0400
_audit_creation_method            fapswitch 2.2
_symmetry_space_group_name_H-M    P1
_symmetry_Int_Tables_number       1
_space_group_crystal_system       monoclinic
_cell_length_a                    18.380902
_cell_length_b                    18.380942
_cell_length_c                    35.74556
_cell_angle_alpha                 90.0
_cell_angle_beta                  90.0
_cell_angle_gamma                 90.000382
_cell_volume                      12076.933904

loop_
_atom_site_label
_atom_site_type_symbol
_atom_type_description
_atom_site_fract_x
_atom_site_fract_y
_atom_site_fract_z
_atom_type_partial_charge
C1    C     C_R   0.500000 0.139785 0.500000 0.563700
C2    C     C_1   0.717570 0.500000 0.500000 -0.049113
C3    C     C_3   0.791867 0.497576 0.171927 -0.454831
C4    C     C_3   0.502210 0.861901 0.195045 -0.269993
C5    C     C_3   0.503364 0.791879 0.171927 -0.454830
C6    C     C_3   0.138106 0.501595 0.195046 -0.269992
C7    C     C_3   0.208133 0.502424 0.171927 -0.454831
C8    C     C_3   0.498813 0.861890 0.804954 -0.269993
C9    C     C_3   0.498199 0.791861 0.828073 -0.454832
C10   C     C_3   0.861913 0.502886 0.804955 -0.269991
C11   C     C_3   0.791897 0.504397 0.828073 -0.454827
C12   C     C_3   0.501187 0.138110 0.804954 -0.269993
C13   C     C_1   0.499999 0.717570 0.500000 -0.049113
C14   C     C_3   0.501801 0.208138 0.828072 -0.454831
C15   C     C_3   0.138087 0.497114 0.804955 -0.269991
C16   C     C_3   0.208103 0.495604 0.828073 -0.454828
C17   C     C_3   0.997417 0.638092 0.695045 -0.269993
C18   C     C_3   0.996070 0.708111 0.671927 -0.454829
C19   C     C_3   0.361891 0.998599 0.695046 -0.269992
C20   C     C_3   0.291863 0.997868 0.671927 -0.454831
C21   C     C_3   0.002583 0.361908 0.695045 -0.269992
C22   C     C_3   0.003930 0.291889 0.671927 -0.454828
C23   C     C_3   0.638109 0.001401 0.695046 -0.269993
C24   C     C_1   0.282430 0.500000 0.500000 -0.049113
C25   C     C_3   0.708137 0.002132 0.671927 -0.454831
C26   C     C_3   0.998174 0.361897 0.304954 -0.269993
C27   C     C_3   0.997220 0.291873 0.328073 -0.454831
C28   C     C_3   0.361900 0.002135 0.304954 -0.269991
C29   C     C_3   0.291877 0.003249 0.328073 -0.454828
C30   C     C_3   0.001826 0.638103 0.304954 -0.269993
C31   C     C_3   0.002780 0.708127 0.328073 -0.454831
C32   C     C_3   0.638100 0.997864 0.304954 -0.269992
C33   C     C_3   0.708123 0.996751 0.328073 -0.454829
C34   C     C_1   0.000000 0.782430 0.000000 -0.049113
C35   C     C_1   0.217570 1.000000 0.000000 -0.049113
C36   C     C_1   1.000000 0.217570 0.000000 -0.049113
C37   C     C_1   0.782430 0.000000 0.000000 -0.049113
C38   C     C_1   0.500000 0.217210 0.500000 -0.051280
C39   C     C_1   0.782790 0.500000 0.500000 -0.051280
C40   C     C_1   0.499999 0.782790 0.500000 -0.051280
C41   C     C_R   0.860215 0.500000 0.500000 0.563699
C42   C     C_1   0.217210 0.500000 0.500000 -0.051280
C43   C     C_1   0.000000 0.717210 0.000000 -0.051280
C44   C     C_1   0.282790 1.000000 0.000000 -0.051279
C45   C     C_1   0.999999 0.282790 0.000000 -0.051280
C46   C     C_1   0.717210 0.000000 0.000000 -0.051279
C47   C     C_R   0.500000 0.000000 0.427774 0.547060
C48   C     C_R   0.000000 0.500000 0.427774 0.547061
C49   C     C_R   0.500000 0.000000 0.572226 0.547061
C50   C     C_R   0.000000 0.500000 0.572226 0.547059
C51   C     C_R   1.000000 0.500000 0.927774 0.547059
C52   C     C_R   0.500000 0.860215 0.500000 0.563700
C53   C     C_R   0.500000 0.000000 0.927774 0.547062
C54   C     C_R   0.000000 0.500000 0.072225 0.547062
C55   C     C_R   0.500000 0.000000 0.072225 0.547060
C56   C     C_R   0.498943 0.066970 0.172997 0.019380
C57   C     C_R   0.933026 0.499237 0.172997 0.019379
C58   C     C_R   0.501056 0.933030 0.172997 0.019380
C59   C     C_R   0.066974 0.500763 0.172997 0.019379
C60   C     C_R   0.499432 0.933024 0.827003 0.019378
C61   C     C_R   0.933035 0.501379 0.827003 0.019382
C62   C     C_R   0.500568 0.066976 0.827003 0.019378
C63   C     C_R   0.139785 0.500000 0.500000 0.563699
C64   C     C_R   0.066964 0.498621 0.827003 0.019382
C65   C     C_R   0.998765 0.566967 0.672997 0.019382
C66   C     C_R   0.433025 0.999329 0.672997 0.019378
C67   C     C_R   0.001234 0.433033 0.672997 0.019382
C68   C     C_R   0.566975 0.000670 0.672997 0.019378
C69   C     C_R   0.999126 0.433028 0.327003 0.019379
C70   C     C_R   0.433029 0.001021 0.327003 0.019380
C71   C     C_R   0.000873 0.566972 0.327003 0.019379
C72   C     C_R   0.566971 0.998979 0.327003 0.019380
C73   C     C_R   0.498986 0.065802 0.133581 -0.113383
C74   C     C_R   0.000000 0.639785 0.000000 0.563699
C75   C     C_R   0.934194 0.499267 0.133581 -0.113383
C76   C     C_R   0.501014 0.934198 0.133581 -0.113383
C77   C     C_R   0.065806 0.500733 0.133581 -0.113383
C78   C     C_R   0.499453 0.934192 0.866419 -0.113383
C79   C     C_R   0.934203 0.501323 0.866419 -0.113382
C80   C     C_R   0.500547 0.065808 0.866419 -0.113383
C81   C     C_R   0.065797 0.498677 0.866419 -0.113382
C82   C     C_R   0.998815 0.565799 0.633581 -0.113382
C83   C     C_R   0.434193 0.999355 0.633581 -0.113383
C84   C     C_R   0.001184 0.434201 0.633581 -0.113382
C85   C     C_R   0.360215 1.000000 0.000000 0.563700
C86   C     C_R   0.565807 0.000645 0.633581 -0.113383
C87   C     C_R   0.999161 0.434195 0.366419 -0.113383
C88   C     C_R   0.434197 0.000980 0.366419 -0.113383
C89   C     C_R   0.000839 0.565804 0.366419 -0.113383
C90   C     C_R   0.565803 0.999020 0.366419 -0.113383
C91   C     C_R   0.500000 1.000000 0.113749 -0.026537
C92   C     C_R   1.000000 0.500000 0.113749 -0.026537
C93   C     C_R   0.500000 1.000000 0.886251 -0.026537
C94   C     C_R   1.000000 0.500000 0.886251 -0.026535
C95   C     C_R   0.000000 0.500000 0.613749 -0.026536
C96   C     C_R   1.000000 0.360215 0.000000 0.563699
C97   C     C_R   0.500000 0.000000 0.613749 -0.026538
C98   C     C_R   0.000000 0.500000 0.386251 -0.026536
C99   C     C_R   0.500000 0.000000 0.386251 -0.026537
C100  C     C_R   0.359859 0.500000 0.500000 0.560580
C101  C     C_R   0.500000 0.359859 0.500000 0.560580
C102  C     C_R   0.640141 0.500000 0.500000 0.560580
C103  C     C_R   0.500000 0.640141 0.500000 0.560580
C104  C     C_R   0.859859 0.000000 0.000000 0.560581
C105  C     C_R   1.000000 0.859859 0.000000 0.560580
C106  C     C_R   0.140141 1.000000 0.000000 0.560580
C107  C     C_R   0.639785 0.000000 0.000000 0.563700
C108  C     C_R   1.000000 0.140141 0.000000 0.560580
C109  C     C_R   0.500000 1.000000 0.192597 0.034924
C110  C     C_R   1.000000 0.500000 0.192597 0.034924
C111  C     C_R   0.500000 1.000000 0.807403 0.034923
C112  C     C_R   1.000000 0.500000 0.807403 0.034924
C113  C     C_R   0.000000 0.500000 0.692597 0.034925
C114  C     C_R   0.500000 1.000000 0.692597 0.034923
C115  C     C_R   1.000000 0.500000 0.307403 0.034924
C116  C     C_R   0.500000 1.000000 0.307403 0.034924
C117  C     C_1   0.500000 1.000000 0.233140 -0.061795
C118  C     C_1   0.500000 0.282430 0.500000 -0.049113
C119  C     C_1   1.000000 0.500000 0.233140 -0.061798
C120  C     C_1   0.500000 1.000000 0.766860 -0.061799
C121  C     C_1   0.000000 0.500000 0.766860 -0.061792
C122  C     C_1   0.000000 0.500000 0.733140 -0.061792
C123  C     C_1   0.500000 1.000000 0.733140 -0.061799
C124  C     C_1   1.000000 0.500000 0.266860 -0.061798
C125  C     C_1   0.500000 1.000000 0.266860 -0.061795
C126  C     C_3   0.497790 0.138099 0.195045 -0.269992
C127  C     C_3   0.496635 0.208121 0.171927 -0.454830
C128  C     C_3   0.861894 0.498405 0.195046 -0.269992
Cu1   Cu    Cu3+1 0.572400 1.000000 0.500000 0.929728
Cu2   Cu    Cu3+1 0.500000 0.500000 0.537120 0.950035
Cu3   Cu    Cu3+1 0.000000 0.000000 0.962880 0.950034
Cu4   Cu    Cu3+1 1.000000 1.000000 0.037120 0.950035
Cu5   Cu    Cu3+1 1.000000 0.572400 0.500000 0.929728
Cu6   Cu    Cu3+1 0.427600 1.000000 0.500000 0.929728
Cu7   Cu    Cu3+1 0.000000 0.427600 0.500000 0.929728
Cu8   Cu    Cu3+1 0.072400 0.500000 0.000000 0.929729
Cu9   Cu    Cu3+1 0.500000 0.072400 0.000000 0.929727
Cu10  Cu    Cu3+1 0.927600 0.500000 0.000000 0.929729
Cu11  Cu    Cu3+1 0.500000 0.927600 0.000000 0.929727
Cu12  Cu    Cu3+1 0.500000 0.500000 0.462880 0.950035
H1    H     H_    0.498191 0.116003 0.117894 0.138887
H2    H     H_    0.383988 0.998851 0.617894 0.138889
H3    H     H_    0.002113 0.384002 0.617894 0.138885
H4    H     H_    0.616012 0.001149 0.617894 0.138889
H5    H     H_    0.998504 0.383992 0.382106 0.138888
H6    H     H_    0.383996 0.001748 0.382106 0.138887
H7    H     H_    0.001495 0.616008 0.382106 0.138888
H8    H     H_    0.616004 0.998252 0.382106 0.138887
H9    H     H_    0.546156 0.212005 0.154230 0.150521
H10   H     H_    0.447017 0.210365 0.154226 0.150631
H11   H     H_    0.495846 0.255731 0.191049 0.139630
H12   H     H_    0.883989 0.498693 0.117894 0.138889
H13   H     H_    0.448923 0.138305 0.213374 0.148350
H14   H     H_    0.546634 0.139901 0.213367 0.148761
H15   H     H_    0.788214 0.547115 0.154230 0.150515
H16   H     H_    0.789392 0.447969 0.154227 0.150635
H17   H     H_    0.744253 0.497008 0.191049 0.139630
H18   H     H_    0.861463 0.449536 0.213372 0.148404
H19   H     H_    0.860315 0.547254 0.213369 0.148712
H20   H     H_    0.453842 0.787995 0.154230 0.150521
H21   H     H_    0.552982 0.789635 0.154226 0.150631
H22   H     H_    0.504153 0.744269 0.191049 0.139630
H23   H     H_    0.501808 0.883997 0.117894 0.138887
H24   H     H_    0.551077 0.861694 0.213374 0.148350
H25   H     H_    0.453366 0.860099 0.213367 0.148761
H26   H     H_    0.211786 0.452885 0.154230 0.150515
H27   H     H_    0.210608 0.552031 0.154227 0.150635
H28   H     H_    0.255746 0.502992 0.191049 0.139630
H29   H     H_    0.138537 0.550464 0.213372 0.148404
H30   H     H_    0.139684 0.452746 0.213369 0.148712
H31   H     H_    0.547749 0.788361 0.845770 0.150508
H32   H     H_    0.448599 0.789234 0.845773 0.150643
H33   H     H_    0.497778 0.744246 0.808951 0.139631
H34   H     H_    0.116011 0.501307 0.117894 0.138889
H35   H     H_    0.449945 0.861311 0.786628 0.148453
H36   H     H_    0.547666 0.860460 0.786630 0.148665
H37   H     H_    0.787761 0.454895 0.845770 0.150521
H38   H     H_    0.789906 0.554025 0.845774 0.150631
H39   H     H_    0.744292 0.505429 0.808952 0.139629
H40   H     H_    0.861951 0.551751 0.786624 0.148286
H41   H     H_    0.859866 0.454049 0.786635 0.148818
H42   H     H_    0.452251 0.211639 0.845770 0.150508
H43   H     H_    0.551401 0.210766 0.845773 0.150642
H44   H     H_    0.502222 0.255754 0.808951 0.139631
H45   H     H_    0.499026 0.883986 0.882106 0.138890
H46   H     H_    0.550055 0.138689 0.786628 0.148454
H47   H     H_    0.452334 0.139540 0.786630 0.148666
H48   H     H_    0.212239 0.545105 0.845770 0.150521
H49   H     H_    0.210094 0.445976 0.845774 0.150631
H50   H     H_    0.255708 0.494572 0.808952 0.139629
H51   H     H_    0.138049 0.448249 0.786624 0.148286
H52   H     H_    0.140134 0.545951 0.786635 0.148818
H53   H     H_    0.045581 0.712132 0.654231 0.150523
H54   H     H_    0.946446 0.710217 0.654226 0.150629
H55   H     H_    0.995148 0.755718 0.691048 0.139629
H56   H     H_    0.884007 0.502359 0.882106 0.138884
H57   H     H_    0.948549 0.638165 0.713374 0.148286
H58   H     H_    0.046255 0.640028 0.713367 0.148819
H59   H     H_    0.288280 0.047412 0.654230 0.150508
H60   H     H_    0.289317 0.948264 0.654227 0.150642
H61   H     H_    0.244249 0.997369 0.691049 0.139631
H62   H     H_    0.361391 0.949732 0.713373 0.148453
H63   H     H_    0.360382 0.047451 0.713368 0.148665
H64   H     H_    0.954419 0.287868 0.654231 0.150523
H65   H     H_    0.053554 0.289783 0.654226 0.150629
H66   H     H_    0.004852 0.244282 0.691048 0.139629
H67   H     H_    0.500974 0.116013 0.882106 0.138890
H68   H     H_    0.051451 0.361835 0.713374 0.148286
H69   H     H_    0.953745 0.359972 0.713367 0.148820
H70   H     H_    0.711719 0.952588 0.654230 0.150508
H71   H     H_    0.710683 0.051736 0.654227 0.150642
H72   H     H_    0.755751 0.002631 0.691049 0.139631
H73   H     H_    0.638609 0.050268 0.713373 0.148454
H74   H     H_    0.639618 0.952549 0.713368 0.148665
H75   H     H_    0.046752 0.288132 0.345770 0.150513
H76   H     H_    0.947608 0.289486 0.345773 0.150639
H77   H     H_    0.996568 0.244260 0.308951 0.139630
H78   H     H_    0.115993 0.497640 0.882106 0.138884
H79   H     H_    0.949306 0.361551 0.286626 0.148406
H80   H     H_    0.047022 0.360235 0.286633 0.148711
H81   H     H_    0.288021 0.953726 0.345770 0.150518
H82   H     H_    0.289605 0.052866 0.345774 0.150632
H83   H     H_    0.244267 0.004012 0.308951 0.139630
H84   H     H_    0.361666 0.051003 0.286626 0.148350
H85   H     H_    0.360125 0.953291 0.286633 0.148760
H86   H     H_    0.953248 0.711868 0.345770 0.150513
H87   H     H_    0.052393 0.710514 0.345773 0.150639
H88   H     H_    0.003433 0.755740 0.308951 0.139630
H89   H     H_    0.997887 0.615998 0.617894 0.138885
H90   H     H_    0.050694 0.638448 0.286626 0.148406
H91   H     H_    0.952978 0.639765 0.286633 0.148711
H92   H     H_    0.711978 0.046274 0.345770 0.150518
H93   H     H_    0.710395 0.947134 0.345774 0.150632
H94   H     H_    0.755733 0.995989 0.308951 0.139630
H95   H     H_    0.638334 0.948997 0.286626 0.148351
H96   H     H_    0.639875 0.046709 0.286633 0.148761
O1    O     O_R   0.561120 0.105710 0.500130 -0.501762
O2    O     O_R   0.394290 0.061120 0.000130 -0.501821
O3    O     O_R   0.938880 0.394290 0.000130 -0.501746
O4    O     O_R   0.605710 0.938880 0.000130 -0.501821
O5    O     O_R   0.061120 0.394290 0.999870 -0.501828
O6    O     O_R   0.394290 0.938880 0.999870 -0.501752
O7    O     O_R   0.938880 0.605710 0.999870 -0.501828
O8    O     O_R   0.605710 0.061120 0.999870 -0.501752
O9    O     O_R   0.561120 0.999900 0.445770 -0.512525
O10   O     O_R   0.000100 0.561120 0.445770 -0.512526
O11   O     O_R   0.438880 0.000100 0.445770 -0.512525
O12   O     O_R   0.894290 0.561120 0.500130 -0.501812
O13   O     O_R   0.999900 0.438880 0.445770 -0.512526
O14   O     O_R   0.561120 0.000100 0.554230 -0.512527
O15   O     O_R   0.000100 0.438880 0.554230 -0.512524
O16   O     O_R   0.438880 0.999900 0.554230 -0.512526
O17   O     O_R   0.999900 0.561120 0.554230 -0.512524
O18   O     O_R   0.061120 0.499900 0.945770 -0.512523
O19   O     O_R   0.500100 0.061120 0.945770 -0.512527
O20   O     O_R   0.938880 0.500100 0.945770 -0.512523
O21   O     O_R   0.499900 0.938880 0.945770 -0.512527
O22   O     O_R   0.061120 0.500100 0.054230 -0.512527
O23   O     O_R   0.438880 0.894290 0.500130 -0.501762
O24   O     O_R   0.500100 0.938880 0.054230 -0.512525
O25   O     O_R   0.938880 0.499900 0.054230 -0.512527
O26   O     O_R   0.499900 0.061120 0.054230 -0.512525
O27   O     O_R   0.394010 0.499860 0.468680 -0.504785
O28   O     O_R   0.500140 0.394010 0.468680 -0.504785
O29   O     O_R   0.605990 0.500140 0.468680 -0.504785
O30   O     O_R   0.499860 0.605990 0.468680 -0.504785
O31   O     O_R   0.394010 0.500140 0.531320 -0.504786
O32   O     O_R   0.500140 0.605990 0.531320 -0.504785
O33   O     O_R   0.605990 0.499860 0.531320 -0.504786
O34   O     O_R   0.105710 0.438880 0.500130 -0.501812
O35   O     O_R   0.499860 0.394010 0.531320 -0.504785
O36   O     O_R   0.894010 0.999860 0.968680 -0.504785
O37   O     O_R   0.000140 0.894010 0.968680 -0.504785
O38   O     O_R   0.105990 0.000140 0.968680 -0.504785
O39   O     O_R   0.999860 0.105990 0.968680 -0.504785
O40   O     O_R   0.894010 0.000140 0.031320 -0.504786
O41   O     O_R   0.000140 0.105990 0.031320 -0.504785
O42   O     O_R   0.105990 0.999860 0.031320 -0.504786
O43   O     O_R   0.999860 0.894010 0.031320 -0.504785
O44   O     O_R   0.561120 0.894290 0.499870 -0.501811
O45   O     O_R   0.894290 0.438880 0.499870 -0.501762
O46   O     O_R   0.438880 0.105710 0.499870 -0.501811
O47   O     O_R   0.105710 0.561120 0.499870 -0.501762
O48   O     O_R   0.061120 0.605710 0.000130 -0.501746

loop_
_geom_bond_atom_site_label_1
_geom_bond_atom_site_label_2
_ccdc_geom_bond_type
C23   C68   S    
C7    H28   S    
C77   C92   A    
C50   O17   A    
C77   H34   S    
Cu2   O35   S    
C102  O33   A    
C31   H87   S    
C127  H9    S    
C36   C108  S    
C55   O26   A    
C68   C86   A    
Cu6   O11   S    
C90   C99   A    
C83   C97   A    
C19   C20   S    
C106  O38   A    
Cu11  O24   S    
Cu6   O16   S    
C15   H52   S    
C108  O39   A    
Cu2   Cu12  S    
C59   C77   A    
C57   C128  S    
C47   O11   A    
C30   C71   S    
C8    H35   S    
C86   H4    S    
C45   C96   S    
C39   C41   S    
C73   H1    S    
C24   C42   T    
C29   H81   S    
Cu4   O41   S    
Cu9   Cu11  S    
C60   C78   A    
C26   C27   S    
Cu6   O46   S    
Cu8   O5    S    
Cu1   O44   S    
C36   C45   T    
C101  C118  S    
C21   H68   S    
Cu8   O18   S    
C28   C29   S    
C63   O34   A    
C20   H61   S    
C55   O24   A    
C41   O45   A    
C127  H10   S    
C6    H30   S    
C1    O46   A    
C50   C95   S    
C64   C112  A    
C18   H54   S    
C2    C102  S    
C78   C93   A    
C15   C16   S    
C58   C109  A    
C31   H86   S    
Cu9   O2    S    
C59   C110  A    
C47   C99   S    
C4    H25   S    
C22   H66   S    
C19   C66   S    
C29   H83   S    
C85   O2    A    
C103  O30   A    
C115  C124  S    
C48   O13   A    
C25   H71   S    
C86   C97   A    
C20   H60   S    
C13   C40   T    
C55   C91   S    
Cu5   O12   S    
C127  H11   S    
C66   C83   A    
Cu9   O8    S    
C2    C39   T    
C62   C111  A    
C44   C85   S    
C21   H69   S    
Cu6   O23   S    
C102  O29   A    
Cu7   O45   S    
C54   O25   A    
C23   H73   S    
C90   H8    S    
C15   C64   S    
C4    H24   S    
C9    H33   S    
C106  O42   A    
C40   C52   S    
C56   C126  S    
C13   C103  S    
C33   H92   S    
C87   H5    S    
C104  O40   A    
C69   C87   A    
C120  C123  T    
Cu5   O10   S    
C52   O44   A    
C87   C98   A    
Cu2   O32   S    
Cu9   O26   S    
C43   C74   S    
Cu11  O4    S    
Cu10  O25   S    
C74   O48   A    
C67   C84   A    
C31   H88   S    
C21   C67   S    
C18   H53   S    
C27   H75   S    
C49   O16   A    
Cu7   O13   S    
Cu10  O20   S    
C51   O20   A    
C23   H74   S    
C3    H15   S    
C14   H42   S    
C74   O7    A    
C14   H43   S    
C29   H82   S    
C82   C95   A    
C53   O21   A    
C113  C122  S    
C63   O47   A    
C17   H58   S    
C73   C91   A    
C79   C94   A    
C32   C72   S    
C16   H48   S    
Cu5   O17   S    
C78   H45   S    
Cu2   O33   S    
C3    C128  S    
Cu3   O36   S    
Cu1   O9    S    
C51   C94   S    
C84   H3    S    
C1    O1    A    
C119  C124  T    
C52   O23   A    
C26   H80   S    
Cu12  O27   S    
C19   H62   S    
C79   H56   S    
C22   H65   S    
C111  C120  S    
C84   C95   A    
C5    H21   S    
C30   H91   S    
C110  C119  S    
C25   H72   S    
C104  O36   A    
C20   H59   S    
C54   C92   S    
C64   C81   A    
C83   H2    S    
C12   C62   S    
C57   C110  A    
C71   C89   A    
C100  O27   A    
C75   H12   S    
C28   H84   S    
C5    H20   S    
C12   H46   S    
C46   C107  S    
C19   H63   S    
C17   C18   S    
C8    C9    S    
C48   O10   A    
C71   C115  A    
Cu10  O3    S    
Cu10  O7    S    
C11   H38   S    
C103  O32   A    
C17   H57   S    
C35   C44   T    
C121  C122  T    
Cu9   O19   S    
C16   H50   S    
C75   C92   A    
Cu3   O38   S    
C11   H37   S    
Cu2   O31   S    
C1    C38   S    
Cu8   Cu10  S    
C82   H89   S    
C12   C14   S    
C76   H23   S    
C27   H77   S    
C116  C125  S    
C51   O18   A    
C41   O12   A    
Cu8   O22   S    
C27   H76   S    
C105  O43   A    
C96   O3    A    
Cu12  O30   S    
C107  O8    A    
C109  C117  S    
C10   C61   S    
C11   H39   S    
C114  C123  S    
Cu5   Cu7   S    
C108  O41   A    
Cu7   O34   S    
C126  H14   S    
C56   C109  A    
C47   O9    A    
C33   H93   S    
C3    H17   S    
C72   C90   A    
C32   H96   S    
C62   C80   A    
C89   H7    S    
Cu4   O43   S    
C7    H27   S    
Cu1   O14   S    
C69   C115  A    
C56   C73   A    
C66   C114  A    
Cu1   O1    S    
C26   H79   S    
C24   C100  S    
C34   C105  S    
C65   C113  A    
C6    C59   S    
C7    H26   S    
C15   H51   S    
C28   C70   S    
C70   C88   A    
Cu7   O15   S    
C4    C5    S    
Cu11  O6    S    
C28   H85   S    
C37   C104  S    
C14   H44   S    
C8    H36   S    
Cu3   O37   S    
C6    C7    S    
C100  O31   A    
Cu4   O42   S    
Cu3   O39   S    
C72   C116  A    
C17   C65   S    
C21   C22   S    
C33   H94   S    
C22   H64   S    
C89   C98   A    
C101  O35   A    
C70   C116  A    
C32   C33   S    
C30   H90   S    
C58   C76   A    
C67   C113  A    
C105  O37   A    
C112  C121  S    
C60   C111  A    
Cu5   O47   S    
C10   H40   S    
C5    H22   S    
C81   C94   A    
C12   H47   S    
C57   C75   A    
C65   C82   A    
C30   C31   S    
C107  O4    A    
C61   C79   A    
C126  C127  S    
C54   O22   A    
C81   H78   S    
Cu11  O21   S    
C85   O6    A    
C37   C46   T    
C18   H55   S    
C48   C98   S    
C23   C25   S    
C25   H70   S    
Cu8   O48   S    
C96   O5    A    
C88   C99   A    
C9    H31   S    
C16   H49   S    
C128  H18   S    
C76   C91   A    
C49   C97   S    
Cu1   Cu6   S    
C38   C118  T    
C126  H13   S    
C80   H67   S    
C3    H16   S    
C49   O14   A    
Cu12  O28   S    
C101  O28   A    
C4    C58   S    
C10   C11   S    
C35   C106  S    
C10   H41   S    
C88   H6    S    
Cu12  O29   S    
C9    H32   S    
C26   C69   S    
C53   O19   A    
C80   C93   A    
C34   C43   T    
C61   C112  A    
C117  C125  T    
C42   C63   S    
C32   H95   S    
C53   C93   S    
C8    C60   S    
C50   O15   A    
Cu3   Cu4   S    
C128  H19   S    
C68   C114  A    
C6    H29   S    
Cu4   O40   S    
