data_mof_unit_42992.cif
_audit_creation_date              2012-12-11T14:01:24-0500
_audit_creation_method            fapswitch 2.2
_symmetry_space_group_name_H-M    P1
_symmetry_Int_Tables_number       1
_space_group_crystal_system       triclinic
_cell_length_a                    19.051957
_cell_length_b                    10.943291
_cell_length_c                    18.782896
_cell_angle_alpha                 90.101386
_cell_angle_beta                  90.570953
_cell_angle_gamma                 90.243313
_cell_volume                      3915.83065717

loop_
_atom_site_label
_atom_site_type_symbol
_atom_type_description
_atom_site_fract_x
_atom_site_fract_y
_atom_site_fract_z
_atom_type_partial_charge
C1    C     C_R   0.272037 0.043591 0.853109 0.548184
C2    C     C_R   0.727971 0.043376 0.146906 0.549979
C3    C     C_R   0.772037 0.543591 0.853109 0.548184
C4    C     C_R   0.227971 0.543376 0.146907 0.549980
C5    C     C_R   0.479289 0.056248 0.072496 0.303932
C6    C     C_R   0.519212 0.058131 0.928565 0.305281
C7    C     C_R   0.979289 0.556248 0.072496 0.303933
C8    C     C_R   0.019212 0.558131 0.928565 0.305281
C9    C     C_R   0.988042 0.666119 0.036109 -0.074666
C10   C     C_R   0.009352 0.667081 0.965665 -0.076632
C11   C     C_R   0.488042 0.166119 0.036110 -0.074667
C12   C     C_R   0.509351 0.167081 0.965665 -0.076633
C13   C     C_2   0.249059 0.572334 0.917700 0.279196
C14   C     C_2   0.750512 0.571946 0.082206 0.279791
C15   C     C_2   0.749059 0.072334 0.917700 0.279195
C16   C     C_2   0.250512 0.071947 0.082206 0.279792
C17   C     C_2   0.253568 0.593157 0.079075 0.275458
C18   C     C_2   0.746533 0.593455 0.920954 0.274796
C19   C     C_2   0.753568 0.093158 0.079075 0.275460
C20   C     C_2   0.246533 0.093456 0.920954 0.274796
C21   C     C_2   0.296071 0.524702 0.037497 0.232637
C22   C     C_2   0.703408 0.525169 0.962194 0.232299
C23   C     C_2   0.796072 0.024703 0.037497 0.232637
C24   C     C_2   0.203408 0.025170 0.962194 0.232299
C25   C     C_2   0.304497 0.557437 0.962342 -0.108019
C26   C     C_2   0.695056 0.557690 0.037418 -0.108124
C27   C     C_2   0.804497 0.057438 0.962342 -0.108020
C28   C     C_2   0.195056 0.057692 0.037418 -0.108123
C29   C     C_2   0.514614 0.835084 0.586228 -0.102498
C30   C     C_2   0.547042 0.831733 0.433910 -0.101825
C31   C     C_2   0.014614 0.335084 0.586228 -0.102498
C32   C     C_2   0.047042 0.331734 0.433910 -0.101825
C33   C     C_2   0.551698 0.733771 0.475562 -0.178756
C34   C     C_2   0.530589 0.733696 0.549731 -0.151808
C35   C     C_2   0.051698 0.233771 0.475562 -0.178756
C36   C     C_2   0.030589 0.233696 0.549731 -0.151811
C37   C     C_2   0.254003 0.613280 0.569325 -0.114258
C38   C     C_2   0.747260 0.610798 0.429581 -0.118648
C39   C     C_2   0.754003 0.113281 0.569325 -0.114255
C40   C     C_2   0.247260 0.110801 0.429582 -0.118630
C41   C     C_2   0.260645 0.610169 0.411939 0.269804
C42   C     C_2   0.740678 0.603894 0.586746 0.267452
C43   C     C_2   0.760645 0.110169 0.411939 0.269805
C44   C     C_2   0.240676 0.103889 0.586746 0.267436
C45   C     C_R   0.471776 0.822383 0.853274 0.534684
C46   C     C_R   0.528387 0.821940 0.146626 0.546338
C47   C     C_R   0.971776 0.322383 0.853274 0.534683
C48   C     C_R   0.028387 0.321941 0.146626 0.546338
C49   C     C_2   0.222922 0.690809 0.450006 0.191556
C50   C     C_2   0.776680 0.688500 0.549699 0.197564
C51   C     C_2   0.722922 0.190810 0.450006 0.191555
C52   C     C_2   0.276673 0.188506 0.549701 0.197576
C53   C     C_2   0.237753 0.707466 0.526040 -0.167381
C54   C     C_2   0.762275 0.705129 0.473620 -0.167709
C55   C     C_2   0.737753 0.207466 0.526040 -0.167385
C56   C     C_2   0.262268 0.205136 0.473622 -0.167686
C57   C     C_R   0.261061 0.635422 0.850926 0.605047
C58   C     C_R   0.738859 0.635098 0.149069 0.609339
C59   C     C_R   0.761061 0.135422 0.850926 0.605048
C60   C     C_R   0.238859 0.135098 0.149069 0.609339
C61   C     C_R   0.270951 0.048043 0.649503 0.615990
C62   C     C_R   0.729298 0.048817 0.350453 0.601398
C63   C     C_R   0.770950 0.548045 0.649504 0.615990
C64   C     C_R   0.229297 0.548817 0.350453 0.601396
C65   C     C_R   0.472367 0.824054 0.649524 0.554233
C66   C     C_R   0.563071 0.820120 0.359473 0.559885
C67   C     C_R   0.972368 0.324054 0.649524 0.554234
C68   C     C_R   0.063071 0.320120 0.359473 0.559883
C69   C     C_R   0.261180 0.640914 0.644225 0.548652
C70   C     C_R   0.739173 0.639713 0.355206 0.543528
C71   C     C_R   0.761180 0.140914 0.644225 0.548655
C72   C     C_R   0.239173 0.139713 0.355206 0.543525
C73   C     C_R   0.499244 0.829903 0.074245 -0.009667
C74   C     C_R   0.501626 0.830982 0.925384 -0.008145
C75   C     C_R   0.999244 0.329903 0.074245 -0.009667
C76   C     C_R   0.001626 0.330982 0.925384 -0.008145
C77   C     C_R   0.494097 0.943338 0.037547 -0.020126
C78   C     C_R   0.505557 0.944118 0.962790 -0.017946
C79   C     C_R   0.994097 0.443338 0.037547 -0.020126
C80   C     C_R   0.005557 0.444118 0.962790 -0.017946
C81   C     C_R   0.502818 0.721010 0.963135 -0.150355
C82   C     C_R   0.499974 0.720432 0.035765 -0.151025
C83   C     C_R   0.002818 0.221010 0.963135 -0.150356
C84   C     C_R   0.999974 0.220432 0.035765 -0.151025
Cr1   Cr    Cr6+3 0.230530 0.836340 0.748870 1.109209
Cr2   Cr    Cr6+3 0.769470 0.836340 0.251130 1.110095
Cr3   Cr    Cr6+3 0.730530 0.336340 0.748870 1.109209
Cr4   Cr    Cr6+3 0.269470 0.336340 0.251130 1.110099
Cr5   Cr    Cr6+3 0.387420 0.989430 0.750820 1.088024
Cr6   Cr    Cr6+3 0.612580 0.989430 0.249180 1.088002
Cr7   Cr    Cr6+3 0.887420 0.489430 0.750820 1.088020
Cr8   Cr    Cr6+3 0.112580 0.489430 0.249180 1.088000
Cr9   Cr    Cr6+3 0.385640 0.677860 0.749230 1.040782
Cr10  Cr    Cr6+3 0.614360 0.677860 0.250770 1.037896
Cr11  Cr    Cr6+3 0.885640 0.177860 0.749230 1.040784
Cr12  Cr    Cr6+3 0.114360 0.177860 0.250770 1.037895
H1    H     H_    0.502002 0.633099 0.936456 0.149918
H2    H     H_    0.502117 0.632232 0.061839 0.149070
H3    H     H_    0.002001 0.133100 0.936456 0.149918
H4    H     H_    0.002117 0.132233 0.061839 0.149070
H5    H     H_    0.263277 0.521337 0.549836 0.133138
H6    H     H_    0.740133 0.517607 0.447944 0.139024
H7    H     H_    0.763277 0.021337 0.549836 0.133170
H8    H     H_    0.240140 0.017606 0.447944 0.139020
H9    H     H_    0.977923 0.751971 0.062805 0.149015
H10   H     H_    0.018582 0.753733 0.939528 0.146226
H11   H     H_    0.477923 0.251971 0.062805 0.149015
H12   H     H_    0.518582 0.253733 0.939528 0.146226
H13   H     H_    0.566042 0.646010 0.452831 0.164110
H14   H     H_    0.521769 0.643706 0.572403 0.188336
H15   H     H_    0.066041 0.146011 0.452831 0.164105
H16   H     H_    0.021771 0.143706 0.572404 0.188331
H17   H     H_    0.531594 0.920722 0.453475 0.122533
H18   H     H_    0.525355 0.926114 0.566474 0.112832
H19   H     H_    0.031594 0.420723 0.453475 0.122529
H20   H     H_    0.025354 0.426115 0.566473 0.112828
O1    O     O_R   0.215090 0.709860 0.828130 -0.418212
O2    O     O_R   0.784910 0.709860 0.171870 -0.415883
O3    O     O_R   0.715090 0.209860 0.828130 -0.418212
O4    O     O_R   0.284910 0.209860 0.171870 -0.415883
O5    O     O_R   0.445660 0.919250 0.676780 -0.488122
O6    O     O_R   0.554340 0.919250 0.323220 -0.481890
O7    O     O_R   0.945660 0.419250 0.676780 -0.488125
O8    O     O_R   0.054340 0.419250 0.323220 -0.481891
O9    O     O_R   0.456260 0.718170 0.670000 -0.508822
O10   O     O_R   0.543740 0.718170 0.330000 -0.488480
O11   O     O_R   0.956260 0.218170 0.670000 -0.508822
O12   O     O_R   0.043740 0.218170 0.330000 -0.488480
O13   O     O_R   0.320940 0.626760 0.674370 -0.485000
O14   O     O_R   0.679060 0.626760 0.325630 -0.509450
O15   O     O_R   0.820940 0.126760 0.674370 -0.484995
O16   O     O_R   0.179060 0.126760 0.325630 -0.509452
O17   O     O_3   0.334530 0.834540 0.749640 -0.286899
O18   O     O_3   0.665470 0.834540 0.250360 -0.310199
O19   O     O_3   0.834530 0.334540 0.749640 -0.286899
O20   O     O_3   0.165470 0.334540 0.250360 -0.310200
O21   O     O_R   0.236990 0.958390 0.823710 -0.454562
O22   O     O_R   0.763010 0.958390 0.176290 -0.451465
O23   O     O_R   0.736990 0.458390 0.823710 -0.454562
O24   O     O_R   0.263010 0.458390 0.176290 -0.451465
O25   O     O_R   0.332380 0.074750 0.830850 -0.527852
O26   O     O_R   0.667620 0.074750 0.169150 -0.526801
O27   O     O_R   0.832380 0.574750 0.830850 -0.527852
O28   O     O_R   0.167620 0.574750 0.169150 -0.526800
O29   O     O_R   0.445800 0.917770 0.825070 -0.466710
O30   O     O_R   0.554200 0.917770 0.174930 -0.460700
O31   O     O_R   0.945800 0.417770 0.825070 -0.466710
O32   O     O_R   0.054200 0.417770 0.174930 -0.460700
O33   O     O_R   0.456410 0.716580 0.829970 -0.523452
O34   O     O_R   0.543590 0.716580 0.170030 -0.518150
O35   O     O_R   0.956410 0.216580 0.829970 -0.523453
O36   O     O_R   0.043590 0.216580 0.170030 -0.518150
O37   O     O_R   0.321080 0.625290 0.822650 -0.548036
O38   O     O_R   0.678920 0.625290 0.177350 -0.547707
O39   O     O_R   0.821080 0.125290 0.822650 -0.548036
O40   O     O_R   0.178920 0.125290 0.177350 -0.547707
O41   O     O_R   0.214930 0.711450 0.668160 -0.502431
O42   O     O_R   0.785070 0.711450 0.331840 -0.495178
O43   O     O_R   0.714930 0.211450 0.668160 -0.502433
O44   O     O_R   0.285070 0.211450 0.331840 -0.495171
O45   O     O_R   0.236850 0.959870 0.675420 -0.486117
O46   O     O_R   0.763150 0.959870 0.324580 -0.487709
O47   O     O_R   0.736850 0.459870 0.675420 -0.486119
O48   O     O_R   0.263150 0.459870 0.324580 -0.487708
O49   O     O_R   0.332230 0.076350 0.670880 -0.471531
O50   O     O_R   0.667770 0.076350 0.329120 -0.477837
O51   O     O_R   0.832230 0.576350 0.670880 -0.471535
O52   O     O_R   0.167770 0.576350 0.329120 -0.477838
O53   O     O_3   0.166385 0.750522 0.419194 -0.678523
H21   H     H_    0.144167 0.802801 0.455734 0.339133
O54   O     O_3   0.830456 0.754235 0.582081 -0.681101
H22   H     H_    0.851862 0.808999 0.546232 0.339627
O55   O     O_3   0.666385 0.250523 0.419194 -0.678521
H23   H     H_    0.644167 0.302803 0.455733 0.339133
O56   O     O_3   0.330446 0.254248 0.582085 -0.681062
H24   H     H_    0.351822 0.309082 0.546245 0.339595
H25   H     H_    0.228760 0.798164 0.547853 0.173539
H26   H     H_    0.769464 0.796873 0.452563 0.161426
H27   H     H_    0.728760 0.298164 0.547853 0.173531
H28   H     H_    0.269449 0.296883 0.452565 0.161397
O57   O     O_3   0.326608 0.570815 0.433555 -0.728696
H29   H     H_    0.349124 0.635280 0.463249 0.326675
O58   O     O_3   0.677769 0.554065 0.563099 -0.751159
H30   H     H_    0.654586 0.613802 0.531795 0.315488
O59   O     O_3   0.826608 0.070815 0.433555 -0.728690
H31   H     H_    0.849124 0.135280 0.463249 0.326676
O60   O     O_3   0.177770 0.054047 0.563097 -0.751159
H32   H     H_    0.154582 0.113783 0.531794 0.315483
O61   O     O_3   0.451220 0.063471 0.139843 -0.630475
H33   H     H_    0.427283 0.985205 0.150572 0.340561
O62   O     O_3   0.547212 0.067544 0.861275 -0.634681
H34   H     H_    0.571594 0.990294 0.849841 0.338432
O63   O     O_3   0.951220 0.563471 0.139843 -0.630475
H35   H     H_    0.927283 0.485205 0.150572 0.340561
O64   O     O_3   0.047212 0.567544 0.861275 -0.634682
H36   H     H_    0.071594 0.490295 0.849841 0.338431
O65   O     O_3   0.329182 0.421498 0.063549 -0.664420
H37   H     H_    0.356829 0.384516 0.024620 0.333184
O66   O     O_3   0.669661 0.422208 0.935760 -0.664625
H38   H     H_    0.641861 0.385047 0.974578 0.333027
O67   O     O_3   0.829183 0.921500 0.063550 -0.664421
H39   H     H_    0.856829 0.884516 0.024619 0.333184
O68   O     O_3   0.169660 0.922209 0.935760 -0.664626
H40   H     H_    0.141860 0.885049 0.974578 0.333026
H41   H     H_    0.357703 0.576379 0.945036 0.094593
H42   H     H_    0.641973 0.577059 0.054679 0.092697
H43   H     H_    0.857703 0.076382 0.945036 0.094593
H44   H     H_    0.141974 0.077061 0.054679 0.092697
O69   O     O_3   0.227863 0.702824 0.053060 -0.711187
H45   H     H_    0.200128 0.743058 0.090722 0.327879
O70   O     O_3   0.772893 0.702927 0.947344 -0.712206
H46   H     H_    0.801103 0.742974 0.909913 0.326911
O71   O     O_3   0.727863 0.202824 0.053060 -0.711187
H47   H     H_    0.700125 0.243056 0.090721 0.327879
O72   O     O_3   0.272893 0.202927 0.947343 -0.712207
H48   H     H_    0.301103 0.242973 0.909913 0.326912
O73   O     O_3   0.180689 0.544397 0.935863 -0.665684
H49   H     H_    0.180859 0.480693 0.973286 0.327647
O74   O     O_3   0.818691 0.543447 0.064101 -0.664820
H50   H     H_    0.818093 0.479778 0.026522 0.328307
O75   O     O_3   0.680689 0.044396 0.935863 -0.665685
H51   H     H_    0.680860 0.980691 0.973285 0.327646
O76   O     O_3   0.318690 0.043446 0.064100 -0.664822
H52   H     H_    0.318093 0.979779 0.026522 0.328307

loop_
_geom_bond_atom_site_label_1
_geom_bond_atom_site_label_2
_ccdc_geom_bond_type
C16   C28   D    
Cr3   O47   S    
O54   H22   S    
C38   C70   S    
C24   O68   S    
C15   C59   S    
C37   C69   S    
Cr8   O32   S    
Cr1   O45   S    
O53   H21   S    
C31   H20   S    
Cr9   O33   S    
C35   C36   S    
C58   O2    A    
C64   O48   A    
C41   O57   S    
C68   O8    A    
Cr7   O31   S    
C81   C82   A    
C35   H15   S    
Cr12  O20   S    
Cr8   O20   S    
O71   H47   S    
C63   O47   A    
C50   C54   S    
Cr5   O5    S    
C37   H5    S    
C23   O67   S    
C83   C84   A    
C61   O45   A    
Cr7   O51   S    
C61   O49   A    
C47   C76   S    
C5    C11   A    
C17   O69   S    
Cr8   O8    S    
C6    C12   A    
Cr6   O18   S    
Cr5   O25   S    
C75   C84   A    
C6    C78   A    
C13   C57   S    
C43   O59   S    
C9    H9    S    
Cr12  O36   S    
C70   O14   A    
Cr12  O12   S    
C3    C18   S    
C16   C60   S    
C51   O55   S    
C20   C24   D    
Cr4   O24   S    
C22   C26   S    
C58   O38   A    
C29   H18   S    
Cr2   O18   S    
C39   C55   D    
O76   H52   S    
C40   C56   D    
C6    O62   S    
C36   H16   S    
C69   O41   A    
C76   C80   A    
C66   O6    A    
C50   O54   S    
Cr2   O46   S    
C65   O5    A    
C7    O63   S    
C9    C10   A    
C68   O12   A    
Cr11  O39   S    
C77   C78   A    
Cr12  O16   S    
C37   C53   D    
C62   O46   A    
C44   C52   D    
C63   O51   A    
Cr5   O29   S    
O66   H38   S    
Cr7   O7    S    
Cr6   O50   S    
Cr11  O15   S    
Cr6   O6    S    
C48   C75   S    
C13   C25   D    
Cr4   O4    S    
C26   H42   S    
Cr1   O41   S    
Cr9   O13   S    
C76   C83   A    
C41   C49   D    
C72   O16   A    
Cr7   O27   S    
Cr10  O10   S    
C14   C58   S    
C44   C61   S    
C47   O31   A    
Cr5   O17   S    
C82   H2    S    
O62   H34   S    
C84   H4    S    
C20   O72   S    
Cr3   O19   S    
C22   O66   S    
C3    O27   A    
C79   C80   A    
Cr4   O20   S    
C45   O33   A    
O69   H45   S    
Cr3   O23   S    
O74   H50   S    
C12   H12   S    
C59   O39   A    
C19   C23   D    
C51   C55   S    
O73   H49   S    
O57   H29   S    
C57   O37   A    
C29   C34   D    
C17   C21   D    
C54   H26   S    
C67   O7    A    
C45   C74   S    
C70   O42   A    
C65   O9    A    
C15   O75   S    
C2    O22   A    
C31   C67   S    
O58   H30   S    
C60   O40   A    
O70   H46   S    
Cr3   O3    S    
O75   H51   S    
C67   O11   A    
C40   H8    S    
Cr8   O52   S    
C15   C27   D    
O56   H24   S    
C38   C54   D    
Cr10  O38   S    
Cr11  O19   S    
C33   C34   S    
Cr7   O19   S    
Cr2   O2    S    
Cr6   O26   S    
C14   C26   D    
Cr1   O1    S    
Cr2   O42   S    
C52   O56   S    
Cr5   O49   S    
C30   C66   S    
C42   C50   D    
C29   C65   S    
C4    C17   S    
C69   O13   A    
C62   O50   A    
C47   O35   A    
C23   C27   S    
C48   O36   A    
C11   H11   S    
C34   H14   S    
C45   O29   A    
C14   O74   S    
C10   H10   S    
C3    O23   A    
Cr12  O40   S    
C74   C81   A    
C5    C77   A    
Cr10  O14   S    
Cr1   O21   S    
C73   C82   A    
Cr6   O30   S    
C1    O21   A    
C7    C79   A    
C56   H28   S    
O61   H33   S    
C7    C9    A    
C21   C25   S    
O65   H37   S    
C1    C20   S    
C59   O3    A    
C40   C72   S    
C30   C33   D    
C46   O34   A    
C2    C19   S    
C18   C22   D    
C28   H44   S    
C55   H27   S    
C32   C35   D    
C24   C28   S    
C21   O65   S    
C53   H25   S    
C4    O28   A    
C11   C12   A    
C39   H7    S    
C2    O26   A    
C42   O58   S    
Cr10  O34   S    
C71   O43   A    
Cr9   O17   S    
C72   O44   A    
O67   H39   S    
C32   C68   S    
C41   C64   S    
C13   O73   S    
C8    O64   S    
Cr9   O37   S    
C18   O70   S    
C66   O10   A    
C5    O61   S    
O60   H32   S    
C64   O52   A    
Cr4   O48   S    
C49   O53   S    
C43   C51   D    
O59   H31   S    
C46   O30   A    
C81   H1    S    
C49   C53   S    
C48   O32   A    
Cr10  O18   S    
Cr3   O43   S    
C60   O4    A    
C33   H13   S    
C27   H43   S    
Cr4   O44   S    
C32   H19   S    
C38   H6    S    
C4    O24   A    
Cr8   O28   S    
Cr9   O9    S    
C57   O1    A    
C1    O25   A    
Cr2   O22   S    
C44   O60   S    
O55   H23   S    
O64   H36   S    
Cr11  O11   S    
O72   H48   S    
Cr11  O35   S    
C25   H41   S    
C71   O15   A    
C8    C10   A    
O63   H35   S    
C74   C78   A    
C8    C80   A    
C73   C77   A    
C31   C36   D    
C16   O76   S    
C83   H3    S    
O68   H40   S    
C19   O71   S    
C75   C79   A    
C42   C63   S    
C30   H17   S    
C46   C73   S    
C52   C56   S    
C43   C62   S    
Cr1   O17   S    
C39   C71   S    
