data_mof_unit_25972.cif
_audit_creation_date              2012-12-10T18:31:50-0500
_audit_creation_method            fapswitch 2.2
_symmetry_space_group_name_H-M    P1
_symmetry_Int_Tables_number       1
_space_group_crystal_system       triclinic
_cell_length_a                    10.646827
_cell_length_b                    15.054497
_cell_length_c                    15.419776
_cell_angle_alpha                 81.632085
_cell_angle_beta                  91.403886
_cell_angle_gamma                 103.613948
_cell_volume                      2376.38673128

loop_
_atom_site_label
_atom_site_type_symbol
_atom_type_description
_atom_site_fract_x
_atom_site_fract_y
_atom_site_fract_z
_atom_type_partial_charge
C1    C     C_R   0.476247 0.441578 0.662606 0.882709
C2    C     C_3   0.121199 0.498068 0.501260 0.087846
C3    C     C_3   0.093938 0.572971 0.427574 -0.377697
C4    C     C_3   0.082385 0.519784 0.591584 -0.156244
C5    C     C_R   0.464979 0.405046 0.757624 -0.210440
C6    C     C_R   0.560526 0.592919 0.245666 -0.184786
C7    C     C_R   0.457979 0.279398 0.878646 0.370084
C8    C     C_R   0.438899 0.309315 0.789598 -0.108486
C9    C     C_R   0.488989 0.468143 0.818129 -0.053649
C10   C     C_R   0.528662 0.440618 0.903351 -0.010229
C11   C     C_R   0.505615 0.344999 0.935423 -0.037612
C12   C     C_R   0.741817 0.499961 0.500690 0.851901
C13   C     C_R   0.583267 0.505896 0.959346 0.041218
C14   C     C_R   0.578965 0.477405 0.050452 -0.015559
C15   C     C_R   0.561476 0.381808 0.082035 0.337311
C16   C     C_R   0.527749 0.317295 0.024198 -0.115422
C17   C     C_R   0.645952 0.598128 0.927012 -0.161142
C18   C     C_R   0.683829 0.663477 0.983441 -0.169336
C19   C     C_R   0.651385 0.639509 0.072106 0.078900
C20   C     C_R   0.593616 0.546638 0.105125 0.118256
C21   C     C_R   0.671491 0.707236 0.127601 -0.208528
C22   C     C_R   0.629631 0.684315 0.214943 0.415518
C23   C     C_R   0.523145 0.558365 0.337796 0.907967
C24   C     C_R   0.538775 0.527129 0.188522 -0.235595
C25   C     C_R   0.653167 0.831057 0.659416 -0.123116
C26   C     C_R   0.648108 0.749744 0.624165 0.019486
C27   C     C_R   0.519422 0.796131 0.505306 0.468480
C28   C     C_R   0.538713 0.884999 0.530391 -0.071301
C29   C     C_R   0.590468 0.896428 0.614756 0.048997
C30   C     C_R   0.501211 0.960687 0.478570 0.033009
C31   C     C_R   0.491133 0.037892 0.518026 0.114956
C32   C     C_R   0.511678 0.034731 0.608804 -0.113560
C33   C     C_R   0.570978 0.969983 0.654441 -0.140850
C34   C     C_R   0.258313 0.499472 0.499743 0.831084
C35   C     C_R   0.482837 0.964753 0.387670 -0.185879
C36   C     C_R   0.427882 0.031619 0.340001 0.461164
C37   C     C_R   0.405631 0.104913 0.380745 -0.098073
C38   C     C_R   0.456481 0.114342 0.466195 -0.177962
C39   C     C_R   0.343856 0.173092 0.338603 0.395496
C40   C     C_R   0.353555 0.253506 0.375173 -0.098313
C41   C     C_R   0.479089 0.202694 0.492848 0.468973
C42   C     C_3   0.896240 0.402176 0.488173 -0.330903
C43   C     C_3   0.038749 0.402774 0.483764 -0.397383
C44   C     C_3   0.949214 0.571548 0.425742 -0.404323
C45   C     C_3   0.938535 0.522797 0.589965 -0.406971
C46   C     C_3   0.878635 0.499289 0.501164 0.094666
H1    H     H_    0.849521 0.380942 0.426601 0.218812
H2    H     H_    0.140627 0.588954 0.602620 0.166378
H3    H     H_    0.936114 0.641516 0.432277 0.209628
H4    H     H_    0.149180 0.642593 0.439054 0.239217
H5    H     H_    0.517266 0.245173 0.050167 0.256966
H6    H     H_    0.475251 0.460203 0.208729 0.218462
H7    H     H_    0.730799 0.733795 0.956968 0.175925
H8    H     H_    0.850801 0.349985 0.543944 0.235322
H9    H     H_    0.667914 0.620028 0.858202 0.164754
H10   H     H_    0.719455 0.778013 0.103035 0.196501
H11   H     H_    0.595364 0.975402 0.722372 0.177644
H12   H     H_    0.310243 0.307576 0.342820 0.176898
H13   H     H_    0.059310 0.345988 0.532688 0.201931
H14   H     H_    0.483409 0.082440 0.645735 0.201222
H15   H     H_    0.514623 0.917470 0.351765 0.247180
H16   H     H_    0.062137 0.388954 0.417696 0.198484
H17   H     H_    0.908167 0.554141 0.361544 0.189401
H18   H     H_    0.124990 0.560922 0.362706 0.186394
H19   H     H_    0.932143 0.593723 0.598197 0.196338
H20   H     H_    0.882585 0.474504 0.644924 0.186463
N1    N     N_R   0.573860 0.731700 0.552730 -0.145377
N2    N     N_R   0.426060 0.268290 0.447230 -0.144472
O1    O     O_R   0.462770 0.383110 0.605620 -0.571863
O2    O     O_R   0.510160 0.531900 0.639510 -0.615639
O3    O     O_R   0.661510 0.425600 0.483070 -0.563668
O4    O     O_R   0.708900 0.574390 0.516960 -0.621485
O5    O     O_R   0.489840 0.468100 0.360490 -0.615949
O6    O     O_R   0.537230 0.616890 0.394380 -0.515256
O7    O     O_R   0.291100 0.425610 0.483040 -0.636453
O8    O     O_R   0.338490 0.574400 0.516930 -0.581120
Zn1   Zn    Zn3+2 0.468350 0.400660 0.477370 1.014774
Zn2   Zn    Zn3+2 0.531650 0.599340 0.522630 1.034487
Cl1   Cl    Cl    0.667281 0.772958 0.281079 -0.538640
Cl2   Cl    Cl    0.421937 0.159257 0.917885 -0.528040
C47   C     C_1   0.378746 0.241296 0.734647 0.380496
N3    N     N_1   0.328923 0.186850 0.691224 -0.182218
C48   C     C_1   0.445154 0.553432 0.798852 0.225429
N4    N     N_1   0.409786 0.621068 0.783576 -0.189126
Cl3   Cl    Cl    0.604236 0.339065 0.188865 -0.583956
Cl4   Cl    Cl    0.598900 0.239065 0.569541 -0.640965
Cl5   Cl    Cl    0.411762 0.026431 0.226588 -0.412192
C49   C     C_1   0.722280 0.846967 0.740129 0.184456
N5    N     N_1   0.777640 0.859871 0.804336 -0.177356
C50   C     C_1   0.714310 0.682259 0.666607 0.257442
N6    N     N_1   0.767674 0.628611 0.701432 -0.241237
Cl6   Cl    Cl    0.403072 0.758701 0.426971 -0.588325
Cl7   Cl    Cl    0.246267 0.161583 0.245005 -0.468130
C51   C     C_1   0.108627 0.452706 0.665787 0.165188
N7    N     N_1   0.129351 0.400247 0.723799 -0.179389

loop_
_geom_bond_atom_site_label_1
_geom_bond_atom_site_label_2
_ccdc_geom_bond_type
C44   H3    S    
C24   H6    S    
O2    Zn2   S    
O1    Zn1   S    
C19   C20   A    
C16   H5    S    
C47   N3    T    
C7    C8    A    
C3    H18   S    
C7    C11   A    
C41   Cl4   S    
C30   C35   A    
C1    C5    S    
C26   N1    A    
C28   C29   A    
C19   C21   A    
O8    Zn2   S    
C22   Cl1   S    
C30   C31   A    
C15   C16   A    
C6    C22   A    
C29   C33   A    
C18   C19   A    
C42   C46   S    
C20   C24   A    
C39   Cl7   S    
O4    Zn2   S    
C18   H7    S    
C31   C32   A    
C9    C10   A    
C17   H9    S    
O6    Zn2   S    
C43   H13   S    
C34   O7    A    
C15   Cl3   S    
C2    C34   S    
C12   O4    A    
C36   Cl5   S    
C13   C14   A    
N1    Zn2   S    
C23   O5    A    
C3    H4    S    
C44   C46   S    
C41   N2    A    
C4    C45   S    
C44   H17   S    
C25   C29   A    
C3    C44   S    
C40   H12   S    
C8    C47   S    
C14   C20   A    
C38   C41   A    
C12   C46   S    
C39   C40   A    
C25   C26   A    
C45   C46   S    
C25   C49   S    
C1    O1    A    
C35   C36   A    
C2    C4    S    
C5    C9    A    
C37   C38   A    
C5    C8    A    
C11   C16   A    
C48   N4    T    
C2    C43   S    
C6    C24   A    
C17   C18   A    
C27   Cl6   S    
C35   H15   S    
O7    Zn1   S    
C9    C48   S    
C4    C51   S    
C12   O3    A    
C45   H19   S    
C42   C43   S    
C32   H14   S    
C23   O6    A    
O3    Zn1   S    
C4    H2    S    
N2    Zn1   S    
C36   C37   A    
C33   H11   S    
C10   C13   A    
C21   H10   S    
C26   C50   S    
C1    O2    A    
C31   C38   A    
C13   C17   A    
C32   C33   A    
C28   C30   A    
C2    C3    S    
C37   C39   A    
C42   H8    S    
C50   N6    T    
C6    C23   S    
C42   H1    S    
C51   N7    T    
C27   N1    A    
C10   C11   A    
C49   N5    T    
C40   N2    A    
C45   H20   S    
O5    Zn1   S    
C14   C15   A    
C21   C22   A    
C43   H16   S    
C34   O8    A    
C7    Cl2   S    
C27   C28   A    
