data_mof_unit_11765.cif
_audit_creation_date              2012-12-10T17:54:18-0500
_audit_creation_method            fapswitch 2.2
_symmetry_space_group_name_H-M    P1
_symmetry_Int_Tables_number       1
_space_group_crystal_system       triclinic
_cell_length_a                    27.72643
_cell_length_b                    10.726576
_cell_length_c                    9.869989
_cell_angle_alpha                 91.28638
_cell_angle_beta                  89.955426
_cell_angle_gamma                 91.873729
_cell_volume                      2933.12111127

loop_
_atom_site_label
_atom_site_type_symbol
_atom_type_description
_atom_site_fract_x
_atom_site_fract_y
_atom_site_fract_z
_atom_type_partial_charge
C1    C     C_R   0.504806 0.261225 0.499018 0.864399
C2    C     C_R   0.973128 0.380059 0.532758 0.044799
C3    C     C_R   0.976092 0.606017 0.492562 0.076332
C4    C     C_R   0.406034 0.498999 0.500072 0.854828
C5    C     C_R   0.949364 0.492839 0.511217 0.067958
C6    C     C_R   0.944975 0.271701 0.562030 -0.230155
C7    C     C_R   0.894953 0.272997 0.562297 -0.134391
C8    C     C_R   0.871290 0.382102 0.532915 -0.018833
C9    C     C_R   0.898370 0.492281 0.506893 -0.060769
C10   C     C_R   0.874419 0.601782 0.475817 -0.015672
C11   C     C_R   0.823975 0.599616 0.473761 0.504812
C12   C     C_R   0.278112 0.482714 0.624632 -0.101659
C13   C     C_R   0.820897 0.383973 0.529303 0.501082
C14   C     C_R   0.721564 0.476044 0.621031 -0.100453
C15   C     C_R   0.671514 0.477458 0.620925 -0.240879
C16   C     C_R   0.497626 0.740425 0.502634 0.894009
C17   C     C_R   0.672312 0.511827 0.378388 -0.214828
C18   C     C_R   0.722382 0.509617 0.378666 -0.100077
C19   C     C_R   0.747030 0.492237 0.500023 0.318845
C20   C     C_R   0.024046 0.379229 0.523525 0.095296
C21   C     C_R   0.050774 0.494168 0.515005 0.017017
C22   C     C_R   0.026858 0.608687 0.509777 -0.153768
C23   C     C_R   0.252892 0.490517 0.502894 0.321572
C24   C     C_R   0.049214 0.266908 0.521071 -0.233058
C25   C     C_R   0.105065 0.721836 0.512973 0.431273
C26   C     C_R   0.951221 0.711542 0.451251 -0.175582
C27   C     C_R   0.901222 0.709990 0.445174 -0.178391
C28   C     C_R   0.593948 0.499362 0.499941 0.866493
C29   C     C_R   0.054686 0.721797 0.525076 0.300598
C30   C     C_R   0.545534 0.130007 0.731032 -0.147871
C31   C     C_R   0.545417 0.076368 0.858163 -0.162801
C32   C     C_R   0.521586 0.962094 0.876074 -0.135124
C33   C     C_R   0.502009 0.896399 0.764435 -0.086027
C34   C     C_R   0.101806 0.494330 0.512823 -0.124631
C35   C     C_R   0.506509 0.944023 0.631650 0.077152
C36   C     C_R   0.521846 0.068692 0.619764 0.094696
C37   C     C_R   0.511000 0.129154 0.498331 -0.110219
C38   C     C_R   0.497227 0.061622 0.381670 -0.219127
C39   C     C_R   0.491601 0.934722 0.386280 -0.211744
C40   C     C_R   0.176086 0.381321 0.510162 0.497673
C41   C     C_R   0.496249 0.874592 0.509582 -0.131589
C42   C     C_R   0.438132 0.332817 0.137139 -0.150500
C43   C     C_R   0.407600 0.250094 0.065100 -0.205703
C44   C     C_R   0.407166 0.250735 0.924926 -0.183407
C45   C     C_R   0.125741 0.380292 0.513842 0.031546
C46   C     C_R   0.437341 0.333884 0.856149 -0.119338
C47   C     C_R   0.469417 0.417525 0.925897 0.064672
C48   C     C_R   0.469627 0.417233 0.070613 0.152392
C49   C     C_R   0.528856 0.580007 0.073955 -0.272032
C50   C     C_R   0.529677 0.579463 0.928840 0.495960
C51   C     C_R   0.179652 0.603634 0.504171 0.563265
C52   C     C_R   0.277541 0.500022 0.379865 -0.116180
C53   C     C_R   0.327684 0.502327 0.378512 -0.217325
C54   C     C_R   0.328201 0.485381 0.623761 -0.222760
C55   C     C_3   0.123895 0.899090 0.396187 0.136728
C56   C     C_R   0.099122 0.267744 0.517361 -0.152318
C57   C     C_3   0.169129 0.977188 0.364728 -0.730067
C58   C     C_3   0.026469 0.836849 0.702069 0.140325
C59   C     C_3   0.003776 0.959273 0.742579 -0.839465
C60   C     C_3   0.603818 0.685170 0.907278 0.060806
C61   C     C_3   0.633833 0.757890 0.804794 -0.750052
C62   C     C_R   0.128976 0.607946 0.508794 -0.205209
C63   C     C_R   0.353337 0.495744 0.500671 -0.037121
C64   C     C_R   0.646571 0.496341 0.499743 -0.047584
H1    H     H_    0.347140 0.479469 0.719228 0.162920
H2    H     H_    0.383017 0.187145 0.868968 0.155114
H3    H     H_    0.434031 0.330349 0.748814 0.204381
H4    H     H_    0.116754 0.179252 0.516734 0.186136
H5    H     H_    0.652428 0.464157 0.715536 0.161002
H6    H     H_    0.740653 0.462771 0.715033 0.140509
H7    H     H_    0.874899 0.187628 0.585073 0.191466
H8    H     H_    0.960593 0.184888 0.588448 0.146944
H9    H     H_    0.093294 0.962519 0.410079 0.168481
H10   H     H_    0.116291 0.836173 0.306413 0.105555
H11   H     H_    0.198948 0.915438 0.335420 0.270012
H12   H     H_    0.257782 0.506190 0.285786 0.131330
H13   H     H_    0.161987 0.040126 0.279729 0.195280
H14   H     H_    0.180379 0.034017 0.455204 0.296443
H15   H     H_    0.969754 0.795210 0.417547 0.200419
H16   H     H_    0.653860 0.526256 0.283604 0.154118
H17   H     H_    0.883698 0.793842 0.415129 0.193954
H18   H     H_    0.061393 0.831125 0.757086 0.156857
H19   H     H_    0.001590 0.759169 0.733746 0.144523
H20   H     H_    0.968977 0.968052 0.688502 0.252619
H21   H     H_    0.996959 0.962059 0.853463 0.213305
H22   H     H_    0.028474 0.038789 0.716836 0.255188
H23   H     H_    0.742111 0.521684 0.284878 0.139735
H24   H     H_    0.489735 0.106804 0.287187 0.171199
H25   H     H_    0.562275 0.125521 0.943584 0.143522
H26   H     H_    0.481611 0.812043 0.786372 0.177167
H27   H     H_    0.550763 0.646403 0.132592 0.152775
H28   H     H_    0.621141 0.594531 0.924397 0.126973
H29   H     H_    0.603765 0.742226 0.002587 0.134439
H30   H     H_    0.619297 0.852352 0.793347 0.256725
H31   H     H_    0.671850 0.767504 0.839787 0.207649
H32   H     H_    0.632806 0.708924 0.704646 0.261153
H33   H     H_    0.031273 0.176269 0.517801 0.151878
H34   H     H_    0.564102 0.219615 0.720731 0.156842
H35   H     H_    0.346267 0.509955 0.282332 0.165268
H36   H     H_    0.258809 0.475545 0.719714 0.133505
H37   H     H_    0.518767 0.923366 0.976258 0.140033
H38   H     H_    0.482713 0.883926 0.292963 0.169598
H39   H     H_    0.435702 0.328501 0.244483 0.204787
H40   H     H_    0.383826 0.185948 0.118548 0.156487
N1    N     N_R   0.201601 0.491710 0.504826 -0.363660
N2    N     N_R   0.798457 0.491845 0.500718 -0.357891
N3    N     N_R   0.499540 0.498800 0.142780 -0.132263
N4    N     N_R   0.499520 0.498720 0.857170 -0.158076
O1    O     O_R   0.500000 0.316780 0.614690 -0.650238
O2    O     O_R   0.571250 0.499990 0.614680 -0.593742
O3    O     O_R   0.571240 0.499970 0.385350 -0.619007
O4    O     O_2   0.199570 0.273140 0.511796 -0.581701
O5    O     O_3   0.131231 0.834102 0.517346 -0.547448
O6    O     O_3   0.033817 0.833297 0.560456 -0.633297
O7    O     O_3   0.556523 0.666742 0.856164 -0.584573
O8    O     O_2   0.794446 0.278825 0.553093 -0.556472
O9    O     O_2   0.207128 0.709636 0.500157 -0.509575
O10   O     O_2   0.800517 0.704501 0.446543 -0.558213
O11   O     O_R   0.500000 0.316750 0.385360 -0.640395
O12   O     O_R   0.428760 0.500030 0.614650 -0.646067
O13   O     O_R   0.428750 0.500010 0.385320 -0.637456
O14   O     O_R   0.500000 0.683250 0.614640 -0.587194
O15   O     O_R   0.500000 0.683220 0.385310 -0.618291
Zn1   Zn    Zn3+2 0.500000 0.500020 0.653130 0.965211
Zn2   Zn    Zn3+2 0.500000 0.499980 0.346870 0.936235

loop_
_geom_bond_atom_site_label_1
_geom_bond_atom_site_label_2
_ccdc_geom_bond_type
C10   C27   A    
C29   O6    S    
C8    C13   A    
C22   C29   A    
C44   H2    S    
C35   C36   A    
C42   H39   S    
C61   H32   S    
C7    C8    A    
C40   O4    S    
C54   H1    S    
C31   C32   A    
C53   H35   S    
C6    H8    S    
C12   C23   A    
C26   C27   A    
C36   C37   A    
C16   O15   A    
N4    Zn1   S    
C18   C19   A    
C58   H18   S    
C17   C64   A    
C7    H7    S    
C30   C31   A    
C33   C35   A    
O15   Zn2   S    
C48   N3    A    
C54   C63   A    
C23   N1    S    
C34   C62   A    
C50   O7    S    
C1    O11   A    
C16   O14   A    
C43   H40   S    
O2    Zn1   S    
C55   H10   S    
C20   C24   A    
C45   C56   A    
C8    C9    A    
C31   H25   S    
O3    Zn2   S    
C15   C64   A    
C9    C10   A    
C3    C22   A    
C1    C37   S    
C3    C5    A    
C1    O1    A    
C60   H29   S    
C21   C22   A    
C50   N4    A    
C14   H6    S    
C2    C6    A    
C51   C62   A    
C49   H27   S    
C14   C19   A    
C44   C46   A    
C60   H28   S    
C28   O3    A    
C25   C29   A    
C40   C45   A    
C15   H5    S    
C2    C20   A    
C24   H33   S    
C57   H13   S    
C27   H17   S    
C59   H20   S    
N3    Zn2   S    
C49   N3    A    
C61   H30   S    
C21   C34   A    
C55   O5    S    
C28   O2    A    
C58   C59   S    
C56   H4    S    
C17   H16   S    
C38   H24   S    
C60   C61   S    
C43   C44   A    
C59   H21   S    
O13   Zn2   S    
C37   C38   A    
C25   O5    S    
C47   C48   A    
C4    C63   S    
C51   N1    A    
C11   N2    A    
C17   C18   A    
C34   C45   A    
C42   C48   A    
C28   C64   S    
C49   C50   A    
C55   C57   S    
C2    C5    A    
C42   C43   A    
O14   Zn1   S    
O11   Zn2   S    
C52   C53   A    
C39   H38   S    
C46   C47   A    
C32   H37   S    
C57   H14   S    
C3    C26   A    
C18   H23   S    
C5    C9    A    
C13   N2    A    
C52   H12   S    
C61   H31   S    
O1    Zn1   S    
C6    C7    A    
C24   C56   A    
C30   H34   S    
C26   H15   S    
C30   C36   A    
C32   C33   A    
C57   H11   S    
C59   H22   S    
C46   H3    S    
C58   H19   S    
C53   C63   A    
C23   C52   A    
C38   C39   A    
C51   O9    S    
C4    O13   A    
C25   C62   A    
C35   C41   A    
C12   H36   S    
C13   O8    S    
C10   C11   A    
C55   H9    S    
C19   N2    S    
C20   C21   A    
C39   C41   A    
C47   N4    A    
C58   O6    S    
C14   C15   A    
C4    O12   A    
C60   O7    S    
C33   H26   S    
C11   O10   S    
C16   C41   S    
C12   C54   A    
O12   Zn1   S    
C40   N1    A    
