data_mof_unit_48466.cif
_audit_creation_date              2012-12-10T17:18:56-0500
_audit_creation_method            fapswitch 2.2
_symmetry_space_group_name_H-M    P1
_symmetry_Int_Tables_number       1
_space_group_crystal_system       triclinic
_cell_length_a                    10.30801
_cell_length_b                    10.750468
_cell_length_c                    13.581517
_cell_angle_alpha                 93.047129
_cell_angle_beta                  100.775513
_cell_angle_gamma                 96.262769
_cell_volume                      1465.51159233

loop_
_atom_site_label
_atom_site_type_symbol
_atom_type_description
_atom_site_fract_x
_atom_site_fract_y
_atom_site_fract_z
_atom_type_partial_charge
C1    C     C_R   0.051582 0.731959 0.490614 0.955735
C2    C     C_R   0.945290 0.267203 0.502228 0.944132
C3    C     C_R   0.441129 0.502710 0.129677 -0.242556
C4    C     C_R   0.501413 0.352508 0.893351 -0.223589
C5    C     C_R   0.310645 0.531192 0.102748 0.059271
C6    C     C_R   0.632720 0.324087 0.919645 0.081211
C7    C     C_2   0.076201 0.863312 0.474986 -0.380656
C8    C     C_2   0.909116 0.132870 0.490533 -0.363333
C9    C     C_2   0.972397 0.928776 0.460271 -0.155527
C10   C     C_2   0.994458 0.062187 0.459337 -0.141699
C11   C     C_2   0.431955 0.513949 0.507394 0.135253
C12   C     C_2   0.568063 0.485741 0.492890 0.139225
C13   C     C_R   0.093269 0.512134 0.685912 0.880415
C14   C     C_R   0.905987 0.485019 0.314237 0.865205
C15   C     C_R   0.140392 0.510519 0.794116 -0.060886
C16   C     C_R   0.850362 0.458772 0.207471 -0.063705
C17   C     C_R   0.120116 0.552293 0.966755 -0.213703
C18   C     C_R   0.839303 0.343282 0.048243 -0.204501
C19   C     C_R   0.066488 0.548338 0.864333 -0.206016
C20   C     C_R   0.908422 0.384081 0.144799 -0.211658
C21   C     C_R   0.262969 0.468913 0.826686 -0.233649
C22   C     C_R   0.725155 0.493185 0.172964 -0.215980
C23   C     C_R   0.316358 0.465972 0.928624 0.074523
C24   C     C_R   0.646765 0.439250 0.082750 0.093127
C25   C     C_R   0.247799 0.516051 0.000402 0.141961
C26   C     C_R   0.706825 0.368756 0.015784 0.112971
C27   C     C_R   0.442430 0.424621 0.959158 0.024768
C28   C     C_R   0.510964 0.456676 0.057898 0.041361
H1    H     H_    0.688968 0.560666 0.219592 0.153100
H2    H     H_    0.319962 0.445518 0.770902 0.173884
H3    H     H_    0.005233 0.354484 0.171086 0.157073
H4    H     H_    0.969580 0.578837 0.840227 0.164767
H5    H     H_    0.061740 0.586959 0.018149 0.155019
H6    H     H_    0.888971 0.287542 0.001708 0.142236
H7    H     H_    0.485606 0.514811 0.208583 0.166543
H8    H     H_    0.442560 0.312946 0.822649 0.142039
H9    H     H_    0.087972 0.102502 0.441391 0.191261
H10   H     H_    0.871123 0.885759 0.457746 0.194041
H11   H     H_    0.815937 0.091548 0.507961 0.166718
H12   H     H_    0.177189 0.906878 0.477580 0.169892
H13   H     H_    0.671611 0.629425 0.586620 0.179736
H14   H     H_    0.328261 0.371395 0.412517 0.174298
N1    N     N_2   0.322180 0.446120 0.460900 -0.209993
N2    N     N_2   0.677820 0.553880 0.539100 -0.200264
O1    O     O_R   0.935190 0.693030 0.507870 -0.612694
O2    O     O_R   0.064810 0.306970 0.492130 -0.614313
O3    O     O_R   0.142080 0.658430 0.482770 -0.578104
O4    O     O_R   0.857920 0.341570 0.517230 -0.574974
O5    O     O_R   0.969700 0.527180 0.651960 -0.613969
O6    O     O_R   0.030300 0.472820 0.348040 -0.623747
O7    O     O_R   0.176600 0.492580 0.626860 -0.579651
O8    O     O_R   0.823400 0.507420 0.373140 -0.578955
Zn1   Zn    Zn3+2 0.861850 0.523100 0.516760 0.966856
Zn2   Zn    Zn3+2 0.138150 0.476900 0.483240 0.953976
C29   C     C_3   0.248311 0.588310 0.184398 -0.412863
C30   C     C_3   0.264339 0.731856 0.184875 -0.347844
C31   C     C_3   0.208013 0.790561 0.269881 -0.834299
H15   H     H_    0.101249 0.754436 0.262916 0.255405
H16   H     H_    0.264555 0.768585 0.343517 0.280799
H17   H     H_    0.217100 0.894079 0.266702 0.247324
H18   H     H_    0.371637 0.767933 0.194863 0.232363
H19   H     H_    0.212136 0.761303 0.112287 0.225693
H20   H     H_    0.142134 0.550698 0.175011 0.201313
H21   H     H_    0.296419 0.561486 0.259329 0.216541
C32   C     C_3   0.696085 0.249409 0.846244 -0.429838
C33   C     C_3   0.610455 0.212108 0.741205 -0.339522
C34   C     C_3   0.687145 0.142823 0.674570 -0.833189
H22   H     H_    0.779180 0.202760 0.667429 0.264902
H23   H     H_    0.714148 0.054235 0.706905 0.259482
H24   H     H_    0.624285 0.119712 0.598628 0.263674
H25   H     H_    0.519863 0.149095 0.747460 0.227946
H26   H     H_    0.580884 0.297583 0.704594 0.234546
H27   H     H_    0.788270 0.307108 0.835911 0.207317
H28   H     H_    0.724241 0.162260 0.880731 0.206126
I1    I     I_    0.577517 0.327207 0.393486 -0.415321
I2    I     I_    0.422462 0.671565 0.607702 -0.407031

loop_
_geom_bond_atom_site_label_1
_geom_bond_atom_site_label_2
_ccdc_geom_bond_type
C5    C25   A    
C11   C12   S    
C4    H8    S    
C14   O8    A    
C11   N1    D    
C8    H11   S    
C23   C27   A    
O7    Zn2   S    
C9    C10   S    
N1    Zn2   S    
C1    O3    A    
C33   H25   S    
C18   C26   A    
C13   C15   S    
C3    H7    S    
C7    H12   S    
C34   H24   S    
C17   C25   A    
C29   H21   S    
O2    Zn2   S    
C29   C30   S    
C23   C25   A    
C33   C34   S    
C6    C26   A    
C3    C5    A    
O1    Zn1   S    
C12   N2    D    
C14   O6    A    
C2    O2    A    
C15   C19   A    
C18   H6    S    
C1    O1    A    
C31   H15   S    
O6    Zn2   S    
C17   H5    S    
C1    C7    S    
C10   H9    S    
C13   O5    A    
C19   H4    S    
C22   C24   A    
C8    C10   D    
C3    C28   A    
C22   H1    S    
C24   C26   A    
C30   H19   S    
C18   C20   A    
C11   I2    S    
C21   C23   A    
O4    Zn1   S    
H13   N2    S    
O5    Zn1   S    
C31   H16   S    
H14   N1    S    
C16   C20   A    
C34   H22   S    
C17   C19   A    
C7    C9    D    
C15   C21   A    
C4    C27   A    
C32   H27   S    
O8    Zn1   S    
C4    C6    A    
C32   C33   S    
C21   H2    S    
C12   I1    S    
C27   C28   A    
C30   C31   S    
C30   H18   S    
C9    H10   S    
C31   H17   S    
C16   C22   A    
C2    O4    A    
C14   C16   S    
C13   O7    A    
N2    Zn1   S    
C5    C29   S    
C6    C32   S    
C2    C8    S    
C32   H28   S    
C24   C28   A    
O3    Zn2   S    
C33   H26   S    
C34   H23   S    
C20   H3    S    
C29   H20   S    
