data_mof_unit_23933.cif
_audit_creation_date              2012-12-11T15:39:05-0500
_audit_creation_method            fapswitch 2.2
_symmetry_space_group_name_H-M    P1
_symmetry_Int_Tables_number       1
_space_group_crystal_system       triclinic
_cell_length_a                    14.327362
_cell_length_b                    14.782094
_cell_length_c                    33.265284
_cell_angle_alpha                 97.617884
_cell_angle_beta                  90.53146
_cell_angle_gamma                 118.827282
_cell_volume                      6095.89402955

loop_
_atom_site_label
_atom_site_type_symbol
_atom_type_description
_atom_site_fract_x
_atom_site_fract_y
_atom_site_fract_z
_atom_type_partial_charge
C1    C     C_R   0.616673 0.910378 0.436910 0.543387
C2    C     C_R   0.717895 0.397907 0.184357 0.002981
C3    C     C_R   0.759598 0.862452 0.637065 0.246675
C4    C     C_R   0.672103 0.787398 0.654889 0.069378
C5    C     C_R   0.636038 0.860103 0.585259 -0.013608
C6    C     C_R   0.052888 0.781716 0.063564 0.541972
C7    C     C_R   0.743523 0.485263 0.065927 0.536558
C8    C     C_R   0.742202 0.789706 0.066122 0.538595
C9    C     C_R   0.022048 0.732489 0.947686 0.531066
C10   C     C_R   0.712006 0.437897 0.949059 0.520750
C11   C     C_R   0.743223 0.716457 0.945942 0.563161
C12   C     C_R   0.808977 0.415302 0.164376 -0.156673
C13   C     C_R   0.817850 0.436182 0.124377 -0.036140
C14   C     C_R   0.733388 0.312295 0.241266 -0.118203
C15   C     C_R   0.731701 0.303940 0.282403 -0.107743
C16   C     C_R   0.717725 0.375276 0.310600 0.034233
C17   C     C_R   0.708819 0.457075 0.297166 -0.114284
C18   C     C_R   0.710133 0.465115 0.255928 -0.108991
C19   C     C_R   0.720178 0.391410 0.227834 0.012047
C20   C     C_R   0.616223 0.360854 0.371854 -0.118249
C21   C     C_R   0.594744 0.207197 0.457169 0.537066
C22   C     C_R   0.585238 0.321934 0.408459 -0.018546
C23   C     C_R   0.731263 0.281575 0.408509 -0.138859
C24   C     C_R   0.762133 0.322189 0.372640 -0.122674
C25   C     C_R   0.701370 0.356676 0.352938 0.019926
C26   C     C_R   0.639039 0.274845 0.425571 0.008098
C27   C     C_R   0.245562 0.879825 0.393107 0.005709
C28   C     C_R   0.264962 0.971261 0.377682 -0.164632
C29   C     C_R   0.245803 0.968849 0.336343 -0.135834
C30   C     C_R   0.206604 0.875157 0.309542 -0.010622
C31   C     C_R   0.179929 0.782262 0.324536 -0.046737
C32   C     C_R   0.294879 0.892611 0.434432 0.528583
C33   C     C_R   0.196556 0.782911 0.366220 0.236955
C34   C     C_R   0.211282 0.817126 0.160451 -0.118347
C35   C     C_R   0.181049 0.797142 0.118779 -0.125614
C36   C     C_R   0.084718 0.893886 0.130504 -0.122964
C37   C     C_R   0.114696 0.913613 0.172162 -0.109393
C38   C     C_R   0.174380 0.871667 0.187348 0.037680
C39   C     C_1   0.188041 0.875170 0.230470 -0.026202
C40   C     C_1   0.196423 0.875227 0.266530 -0.029780
C41   C     C_R   0.112850 0.830633 0.103782 0.021692
C42   C     C_R   0.636814 0.878480 0.395347 0.016505
C43   C     C_R   0.613839 0.905050 0.551683 0.545089
C44   C     C_R   0.552331 0.798060 0.368606 -0.125184
C45   C     C_R   0.564053 0.784227 0.326952 -0.112503
C46   C     C_R   0.660371 0.849957 0.311701 0.035482
C47   C     C_R   0.747037 0.925376 0.338373 -0.115867
C48   C     C_R   0.735523 0.939515 0.379982 -0.126981
C49   C     C_R   0.784039 0.908529 0.175793 -0.135651
C50   C     C_R   0.798388 0.898387 0.134380 -0.163656
C51   C     C_R   0.611569 0.763846 0.120048 0.240593
C52   C     C_R   0.598965 0.773713 0.161796 -0.040691
C53   C     C_R   0.685620 0.843376 0.189648 -0.011310
C54   C     C_R   0.590362 0.200349 0.570651 0.575697
C55   C     C_1   0.675233 0.844628 0.232548 -0.029416
C56   C     C_1   0.668068 0.845781 0.268593 -0.026139
C57   C     C_R   0.714673 0.822061 0.106276 0.008208
C58   C     C_R   0.625706 0.252962 0.613192 0.030438
C59   C     C_R   0.578311 0.308669 0.633502 0.231658
C60   C     C_R   0.593502 0.333717 0.676697 0.250479
C61   C     C_R   0.662685 0.310529 0.697849 0.042743
C62   C     C_R   0.717144 0.264845 0.677000 -0.197015
C63   C     C_R   0.698489 0.235739 0.635087 -0.194872
C64   C     C_R   0.749955 0.331216 0.844078 -0.112715
C65   C     C_R   0.289173 0.886999 0.548500 0.539024
C66   C     C_R   0.756607 0.349489 0.886911 -0.017034
C67   C     C_R   0.607597 0.384912 0.882597 -0.137893
C68   C     C_R   0.601934 0.366004 0.840413 -0.115150
C69   C     C_R   0.675314 0.342851 0.821196 0.022932
C70   C     C_1   0.673893 0.332304 0.777831 -0.007332
C71   C     C_1   0.670301 0.323725 0.741403 0.037213
C72   C     C_R   0.688126 0.382701 0.906515 0.009048
C73   C     C_R   0.068047 0.754547 0.908891 0.007650
C74   C     C_R   0.111831 0.855750 0.899252 -0.147172
C75   C     C_R   0.133851 0.872535 0.859510 -0.137211
C76   C     C_R   0.732949 0.441029 0.104140 -0.044117
C77   C     C_R   0.111932 0.788375 0.828987 0.015037
C78   C     C_R   0.070734 0.686277 0.838666 -0.004106
C79   C     C_R   0.051111 0.670981 0.878905 -0.124073
C80   C     C_R   0.202947 0.784157 0.766593 -0.029789
C81   C     C_R   0.216712 0.795674 0.725912 0.254101
C82   C     C_R   0.153315 0.827755 0.705113 0.014786
C83   C     C_R   0.084185 0.854939 0.726326 -0.145755
C84   C     C_R   0.074202 0.846437 0.767317 -0.144684
C85   C     C_R   0.131381 0.808388 0.787187 -0.027016
C86   C     C_R   0.193574 0.932269 0.649237 -0.117530
C87   C     C_R   0.638303 0.415048 0.123601 -0.065744
C88   C     C_R   0.226075 0.946645 0.610292 -0.124692
C89   C     C_R   0.180561 0.764120 0.594925 -0.131331
C90   C     C_R   0.146919 0.749596 0.633758 -0.112973
C91   C     C_R   0.160214 0.835370 0.661769 0.020784
C92   C     C_R   0.226232 0.864261 0.583859 0.018646
C93   C     C_R   0.727048 0.701787 0.901248 0.018342
C94   C     C_R   0.626907 0.640100 0.879057 -0.129009
C95   C     C_R   0.617397 0.639859 0.836913 -0.115763
C96   C     C_R   0.708098 0.700351 0.816882 0.032633
C97   C     C_R   0.808460 0.754110 0.838827 -0.116546
C98   C     C_R   0.629352 0.392949 0.163176 0.245114
C99   C     C_R   0.817540 0.755645 0.880402 -0.122922
C100  C     C_R   0.754140 0.821899 0.766310 -0.125013
C101  C     C_R   0.747141 0.842953 0.727233 -0.068808
C102  C     C_R   0.685904 0.761634 0.695377 0.065335
C103  C     C_R   0.630707 0.658283 0.703646 -0.105997
C104  C     C_R   0.637037 0.637196 0.743159 -0.103344
C105  C     C_R   0.699229 0.719033 0.774761 0.017565
C106  C     C_R   0.568530 0.744828 0.636098 -0.166987
C107  C     C_R   0.550764 0.780278 0.601600 -0.143961
C108  C     C_R   0.740513 0.899274 0.602571 -0.123864
Cr1   Cr    Cr6+3 0.424820 0.846020 0.489780 1.024084
Cr2   Cr    Cr6+3 0.657880 0.078580 0.505700 1.007421
Cr3   Cr    Cr6+3 0.417280 0.075360 0.504550 1.043320
Cr4   Cr    Cr6+3 0.903360 0.812540 0.006510 1.002781
Cr5   Cr    Cr6+3 0.914630 0.587050 0.006280 1.034306
Cr6   Cr    Cr6+3 0.673560 0.582680 0.008540 1.030800
H1    H     H_    0.570923 0.415094 0.108564 0.175231
H2    H     H_    0.875101 0.415439 0.180612 0.120847
H3    H     H_    0.776217 0.249199 0.421362 0.135095
H4    H     H_    0.205241 0.749973 0.098575 0.130358
H5    H     H_    0.258288 0.785053 0.171883 0.110408
H6    H     H_    0.146643 0.708974 0.303784 0.137001
H7    H     H_    0.301447 0.046567 0.397133 0.148710
H8    H     H_    0.086076 0.956312 0.192715 0.109857
H9    H     H_    0.032238 0.920714 0.119775 0.123573
H10   H     H_    0.265591 0.041011 0.325085 0.119125
H11   H     H_    0.877415 0.945100 0.124817 0.129533
H12   H     H_    0.851243 0.963705 0.197177 0.118527
H13   H     H_    0.822047 0.976360 0.326811 0.108317
H14   H     H_    0.802074 0.002039 0.399743 0.127015
H15   H     H_    0.475169 0.750112 0.379410 0.147889
H16   H     H_    0.521716 0.725364 0.172522 0.137645
H17   H     H_    0.496590 0.725440 0.306480 0.119831
H18   H     H_    0.830071 0.321097 0.359044 0.115786
H19   H     H_    0.802858 0.307897 0.828433 0.113585
H20   H     H_    0.769759 0.246306 0.693455 0.120729
H21   H     H_    0.736737 0.194171 0.620155 0.151253
H22   H     H_    0.542764 0.373564 0.822766 0.124096
H23   H     H_    0.553201 0.409018 0.896269 0.133905
H24   H     H_    0.124652 0.920970 0.922108 0.121916
H25   H     H_    0.014336 0.592325 0.886124 0.127961
H26   H     H_    0.118903 0.673768 0.643073 0.136555
H27   H     H_    0.736805 0.239050 0.291906 0.108946
H28   H     H_    0.248743 0.756767 0.782347 0.143172
H29   H     H_    0.165749 0.950915 0.852291 0.117954
H30   H     H_    0.036793 0.881220 0.710940 0.155963
H31   H     H_    0.019498 0.866415 0.783153 0.113481
H32   H     H_    0.202766 0.998718 0.670557 0.118100
H33   H     H_    0.259604 0.024384 0.602290 0.143535
H34   H     H_    0.177980 0.698982 0.574740 0.129401
H35   H     H_    0.556036 0.596563 0.894393 0.118250
H36   H     H_    0.741795 0.255383 0.219757 0.113263
H37   H     H_    0.895647 0.802764 0.896641 0.138975
H38   H     H_    0.787061 0.923613 0.722248 0.144764
H39   H     H_    0.800679 0.886861 0.790310 0.105721
H40   H     H_    0.538969 0.597266 0.820502 0.107886
H41   H     H_    0.582207 0.594177 0.679634 0.117159
H42   H     H_    0.594094 0.557422 0.749054 0.160809
H43   H     H_    0.500271 0.687727 0.649338 0.125679
H44   H     H_    0.469213 0.748424 0.588877 0.143607
H45   H     H_    0.879764 0.799378 0.824128 0.103510
H46   H     H_    0.806940 0.959264 0.589597 0.111637
H47   H     H_    0.699016 0.513453 0.318427 0.110701
H48   H     H_    0.701808 0.527739 0.245773 0.135669
H49   H     H_    0.570377 0.389845 0.357166 0.107672
O1    O     O_R   0.318160 0.824460 0.443680 -0.498802
O2    O     O_R   0.645130 0.163230 0.552140 -0.520096
O3    O     O_R   0.498360 0.178430 0.555780 -0.451313
O4    O     O_R   0.328690 0.978040 0.538950 -0.503513
O5    O     O_3   0.499990 0.999990 0.500010 -0.243263
O6    O     O_R   0.828710 0.851830 0.052170 -0.518991
O7    O     O_R   0.005980 0.823990 0.047210 -0.501984
O8    O     O_R   0.031900 0.688850 0.050170 -0.500072
O9    O     O_R   0.830940 0.518420 0.048680 -0.482257
O10   O     O_R   0.668160 0.499860 0.053480 -0.508439
O11   O     O_R   0.689170 0.693840 0.050110 -0.470566
O12   O     O_R   0.525040 0.857250 0.449830 -0.496773
O13   O     O_R   0.803860 0.812940 0.962540 -0.511498
O14   O     O_R   0.982950 0.787950 0.964120 -0.529224
O15   O     O_R   0.007050 0.649970 0.960540 -0.509689
O16   O     O_R   0.807910 0.482370 0.965590 -0.489910
O17   O     O_R   0.643310 0.460980 0.963840 -0.529999
O18   O     O_R   0.666140 0.657800 0.967020 -0.503560
O19   O     O_3   0.830520 0.660760 0.007110 -0.266846
O20   O     O_R   0.684760 0.998800 0.456360 -0.519337
O21   O     O_R   0.647540 0.166310 0.470260 -0.505881
O22   O     O_R   0.500960 0.181750 0.467450 -0.502947
O23   O     O_R   0.331100 0.981120 0.457080 -0.504266
O24   O     O_R   0.315560 0.821140 0.532010 -0.522735
O25   O     O_R   0.522630 0.854180 0.531710 -0.499295
O26   O     O_R   0.682160 0.995480 0.544690 -0.518569
C109  C     C_R   0.495682 0.330007 0.427241 0.050688
C110  C     C_R   0.511206 0.384649 0.466827 -0.056123
C111  C     C_R   0.426602 0.392064 0.484596 -0.095143
C112  C     C_R   0.326297 0.345573 0.462936 -0.103751
C113  C     C_R   0.310476 0.291785 0.423433 -0.114103
C114  C     C_R   0.394868 0.284243 0.405529 -0.097630
H50   H     H_    0.588606 0.421041 0.483889 0.108598
H51   H     H_    0.438804 0.433840 0.515158 0.119603
H52   H     H_    0.260865 0.351310 0.476747 0.109046
H53   H     H_    0.232772 0.255830 0.406692 0.106868
H54   H     H_    0.381438 0.241907 0.374974 0.095058
O27   O     O_3   0.165587 0.688223 0.379038 -0.698481
H55   H     H_    0.150288 0.694294 0.407937 0.335402
C115  C     C_R   0.917305 0.452619 0.105812 0.063933
C116  C     C_R   0.913308 0.383986 0.071479 -0.061196
C117  C     C_R   0.007991 0.392767 0.056777 -0.110398
C118  C     C_R   0.106923 0.469488 0.076131 -0.096086
C119  C     C_R   0.111533 0.537374 0.110470 -0.107469
C120  C     C_R   0.017277 0.529453 0.125224 -0.084381
H56   H     H_    0.837123 0.322487 0.056733 0.096045
H57   H     H_    0.004964 0.338727 0.030952 0.104787
H58   H     H_    0.179959 0.475410 0.064836 0.125206
H59   H     H_    0.188207 0.595394 0.125923 0.111116
H60   H     H_    0.022061 0.581937 0.152176 0.111494
O28   O     O_3   0.522537 0.694825 0.094128 -0.700791
H61   H     H_    0.534457 0.714974 0.066625 0.328544
C121  C     C_R   0.831702 0.328580 0.909827 0.050889
C122  C     C_R   0.795957 0.266517 0.940854 -0.072873
C123  C     C_R   0.863372 0.238226 0.959799 -0.117642
C124  C     C_R   0.967075 0.272039 0.948149 -0.110100
C125  C     C_R   0.003914 0.335033 0.917816 -0.110974
C126  C     C_R   0.936519 0.362800 0.898567 -0.091272
H62   H     H_    0.715066 0.237729 0.949623 0.097672
H63   H     H_    0.834952 0.189440 0.983340 0.105160
H64   H     H_    0.018967 0.249535 0.962677 0.104359
H65   H     H_    0.084298 0.361341 0.908862 0.103267
H66   H     H_    0.965683 0.409842 0.874564 0.095642
O29   O     O_3   0.517876 0.336420 0.610676 -0.702881
H67   H     H_    0.521557 0.401065 0.625323 0.317497
O30   O     O_3   0.538237 0.374962 0.699079 -0.741205
H68   H     H_    0.470946 0.356031 0.683152 0.325726
O31   O     O_3   0.293177 0.776069 0.708117 -0.713118
H69   H     H_    0.315689 0.812365 0.684159 0.331904
C127  C     C_R   0.040688 0.593548 0.807216 0.024110
C128  C     C_R   0.969460 0.571221 0.773317 -0.076853
C129  C     C_R   0.943653 0.485203 0.743350 -0.105490
C130  C     C_R   0.985992 0.419002 0.747521 -0.101264
C131  C     C_R   0.054847 0.439175 0.781586 -0.112356
C132  C     C_R   0.082428 0.526240 0.811298 -0.112704
H70   H     H_    0.934216 0.620499 0.770006 0.124912
H71   H     H_    0.890701 0.469918 0.716918 0.121021
H72   H     H_    0.965526 0.352125 0.724368 0.104302
H73   H     H_    0.087419 0.387722 0.784849 0.107012
H74   H     H_    0.136870 0.541636 0.837313 0.101375
O32   O     O_3   0.862299 0.899012 0.653928 -0.727038
H75   H     H_    0.913744 0.950457 0.637823 0.317187
O33   O     O_3   0.533816 0.368985 0.179942 -0.703087
H76   H     H_    0.530776 0.338140 0.204864 0.332794

loop_
_geom_bond_atom_site_label_1
_geom_bond_atom_site_label_2
_ccdc_geom_bond_type
C100  H39   S    
C65   C92   S    
C79   H25   S    
C21   C26   S    
C65   O24   A    
C109  C110  A    
C16   C25   S    
C101  C102  A    
C89   H34   S    
C73   C74   A    
C95   C96   A    
C11   O18   A    
C100  C105  A    
C55   C56   T    
C2    C12   A    
C3    O32   S    
C80   C85   A    
C81   C82   A    
C1    O20   A    
C21   O21   A    
C123  C124  A    
C123  H63   S    
Cr5   O8    S    
Cr4   O6    S    
C77   C78   A    
Cr1   O24   S    
C94   H35   S    
C49   H12   S    
C74   H24   S    
C11   O13   A    
C120  H60   S    
C42   C44   A    
C131  H73   S    
C83   C84   A    
C106  C107  A    
C10   O16   A    
C97   H45   S    
C28   C29   A    
C37   C38   A    
C98   O33   S    
C6    O7    A    
C86   C91   A    
C54   C58   S    
C83   H30   S    
Cr2   O2    S    
C8    O11   A    
C20   C25   A    
C15   C16   A    
C29   H10   S    
C7    O10   A    
C122  H62   S    
O32   H75   S    
C34   C35   A    
O27   H55   S    
C23   C26   A    
C49   C50   A    
C110  H50   S    
C104  C105  A    
C127  C132  A    
C103  C104  A    
C102  C103  A    
C124  H64   S    
C15   H27   S    
Cr2   O5    S    
C118  H58   S    
Cr6   O10   S    
C66   C72   A    
C88   C92   A    
C16   C17   A    
C118  C119  A    
C6    C41   S    
C4    C102  S    
C116  H56   S    
C129  C130  A    
C31   C33   A    
C70   C71   T    
C51   C57   A    
C22   C109  S    
C59   O29   S    
C127  C128  A    
C93   C99   A    
C87   H1    S    
C112  C113  A    
C17   H47   S    
C87   C98   A    
C11   C93   S    
Cr5   O15   S    
C27   C32   S    
Cr2   O21   S    
C59   C60   A    
C7    O9    A    
C36   C41   A    
C94   C95   A    
C9    C73   S    
C54   O3    A    
C67   H23   S    
C86   H32   S    
C125  C126  A    
C97   C99   A    
O30   H68   S    
C114  H54   S    
Cr5   O9    S    
C6    O8    A    
C53   C55   S    
Cr1   O25   S    
C38   C39   S    
Cr4   O7    S    
Cr3   O22   S    
C74   C75   A    
C119  C120  A    
C47   C48   A    
C67   C72   A    
C36   H9    S    
C24   C25   A    
C130  C131  A    
C124  C125  A    
Cr3   O3    S    
O28   H61   S    
C18   C19   A    
Cr4   O19   S    
C122  C123  A    
C117  C118  A    
C20   H49   S    
C99   H37   S    
C132  H74   S    
C27   C33   A    
C82   C91   S    
C110  C111  A    
C60   C61   A    
C63   H21   S    
C130  H72   S    
C67   C68   A    
C78   C79   A    
C29   C30   A    
Cr1   O5    S    
C8    C57   S    
C48   H14   S    
C24   H18   S    
O29   H67   S    
C13   C76   A    
C68   H22   S    
C23   C24   A    
C121  C122  A    
C96   C97   A    
C14   H36   S    
C62   C63   A    
Cr1   O12   S    
C17   C18   A    
C73   C79   A    
C30   C40   S    
C60   O30   S    
C93   C94   A    
C42   C48   A    
C111  H51   S    
C84   C85   A    
C89   C92   A    
C21   O22   A    
C75   C77   A    
C76   C87   A    
C2    C98   A    
C75   H29   S    
C109  C114  A    
C51   O28   S    
C103  H41   S    
Cr5   O16   S    
C20   C22   A    
Cr2   O20   S    
C45   H17   S    
C84   H31   S    
Cr6   O17   S    
C81   O31   S    
C119  H59   S    
C104  H42   S    
C10   C72   S    
Cr3   O4    S    
C128  C129  A    
C54   O2    A    
C3    C4    A    
C106  H43   S    
Cr5   O19   S    
O31   H69   S    
C107  H44   S    
C9    O14   A    
C8    O6    A    
C96   C105  S    
C50   H11   S    
C5    C107  A    
C34   H5    S    
C64   H19   S    
C1    O12   A    
Cr3   O23   S    
Cr2   O26   S    
Cr4   O13   S    
C2    C19   S    
C34   C38   A    
C50   C57   A    
C14   C19   A    
C68   C69   A    
C44   C45   A    
C58   C63   A    
C80   C81   A    
Cr1   O1    S    
C23   H3    S    
C45   C46   A    
C90   H26   S    
C126  H66   S    
C47   H13   S    
C7    C76   S    
C108  H46   S    
C3    C108  A    
Cr6   O18   S    
C64   C69   A    
C115  C120  A    
C65   O4    A    
C101  H38   S    
C80   H28   S    
C32   O23   A    
C95   H40   S    
C10   O17   A    
C111  C112  A    
C62   H20   S    
O33   H76   S    
C44   H15   S    
C52   H16   S    
C51   C52   A    
C64   C66   A    
Cr6   O19   S    
C18   H48   S    
C61   C71   S    
C90   C91   A    
C30   C31   A    
C4    C106  A    
C43   O25   A    
C78   C127  S    
C49   C53   A    
C32   O1    A    
C33   O27   S    
C100  C101  A    
C88   H33   S    
C121  C126  A    
C125  H65   S    
C113  C114  A    
C86   C88   A    
C128  H70   S    
C66   C121  S    
C61   C62   A    
C35   C41   A    
C58   C59   A    
C31   H6    S    
C46   C47   A    
C117  H57   S    
C77   C85   S    
C37   H8    S    
C39   C40   T    
C113  H53   S    
C13   C115  S    
C1    C42   S    
Cr6   O11   S    
C116  C117  A    
C43   O26   A    
C36   C37   A    
C82   C83   A    
C22   C26   A    
C46   C56   S    
C27   C28   A    
C14   C15   A    
C5    C43   S    
C35   H4    S    
Cr3   O5    S    
C69   C70   S    
C115  C116  A    
C12   C13   A    
C89   C90   A    
C131  C132  A    
C129  H71   S    
C9    O15   A    
C112  H52   S    
C52   C53   A    
Cr4   O14   S    
C12   H2    S    
C5    C108  A    
C28   H7    S    
