data_mof_unit_62219.cif
_audit_creation_date              2012-12-10T19:57:46-0500
_audit_creation_method            fapswitch 2.2
_symmetry_space_group_name_H-M    P1
_symmetry_Int_Tables_number       1
_space_group_crystal_system       triclinic
_cell_length_a                    39.225869
_cell_length_b                    32.084805
_cell_length_c                    21.815526
_cell_angle_alpha                 89.26265
_cell_angle_beta                  125.136438
_cell_angle_gamma                 90.234758
_cell_volume                      22451.0515361

loop_
_atom_site_label
_atom_site_type_symbol
_atom_type_description
_atom_site_fract_x
_atom_site_fract_y
_atom_site_fract_z
_atom_type_partial_charge
C1    C     C_R   0.419344 0.500080 0.419311 0.903835
C2    C     C_R   0.580665 0.499929 0.580651 0.903774
C3    C     C_R   0.919323 0.000088 0.419338 0.903001
C4    C     C_R   0.080661 0.999928 0.580675 0.904213
C5    C     C_R   0.274294 0.522073 0.320019 0.411870
C6    C     C_R   0.725547 0.528180 0.686969 0.415330
C7    C     C_R   0.774082 0.025360 0.316536 0.413371
C8    C     C_R   0.225624 0.030346 0.690154 0.414330
C9    C     C_R   0.293167 0.499082 0.291300 -0.125654
C10   C     C_R   0.706869 0.498532 0.708136 -0.122548
C11   C     C_R   0.793114 0.999150 0.291908 -0.125060
C12   C     C_R   0.206832 0.998286 0.707059 -0.122269
C13   C     C_R   0.268882 0.476565 0.222440 0.435827
C14   C     C_R   0.731360 0.470157 0.769982 0.434829
C15   C     C_R   0.768873 0.973663 0.226841 0.434947
C16   C     C_R   0.231269 0.967562 0.764597 0.434539
C17   C     C_1   0.162041 0.500824 0.164477 0.099061
C18   C     C_1   0.837977 0.500938 0.835203 0.099700
C19   C     C_1   0.661991 0.001118 0.164510 0.098984
C20   C     C_1   0.337974 0.001008 0.835109 0.099272
C21   C     C_1   0.337869 0.499679 0.335964 0.046271
C22   C     C_1   0.662150 0.498906 0.663394 0.048625
C23   C     C_1   0.837804 0.999740 0.336629 0.047133
C24   C     C_1   0.162151 0.998789 0.662767 0.048094
C25   C     C_1   0.375179 0.500187 0.374357 -0.178883
C26   C     C_1   0.624843 0.499662 0.625289 -0.178248
C27   C     C_1   0.875134 0.000235 0.374715 -0.180612
C28   C     C_1   0.124832 0.999645 0.625054 -0.178898
C29   C     C_1   0.124763 0.500370 0.126612 -0.132461
C30   C     C_1   0.875261 0.500449 0.873259 -0.132926
C31   C     C_1   0.624721 0.000533 0.126615 -0.132432
C32   C     C_1   0.375262 0.000499 0.873230 -0.133066
C33   C     C_R   0.500076 0.419310 0.000098 0.908430
C34   C     C_R   0.000076 0.919309 0.000099 0.908023
C35   C     C_R   0.499280 0.502457 0.880036 0.874623
C36   C     C_R   0.500719 0.497588 0.119999 0.872241
C37   C     C_R   0.999308 0.002499 0.880076 0.874583
C38   C     C_R   0.000708 0.997516 0.119985 0.872058
C39   C     C_R   0.499928 0.580714 0.999903 0.908537
C40   C     C_R   0.999928 0.080714 0.999902 0.909339
C41   C     C_R   0.501782 0.499496 0.620735 0.923362
C42   C     C_R   0.498104 0.500495 0.379176 0.922553
C43   C     C_R   0.001603 0.999493 0.620545 0.921738
C44   C     C_R   0.998149 0.000485 0.379191 0.922983
C45   C     C_R   0.999992 0.419435 0.000340 0.891849
C46   C     C_R   0.499992 0.919435 0.000340 0.891652
C47   C     C_R   0.080575 0.500002 0.081158 0.895691
C48   C     C_R   0.919437 0.500031 0.918844 0.897154
C49   C     C_R   0.580564 0.000015 0.081151 0.896430
C50   C     C_R   0.419429 0.000044 0.918837 0.897823
C51   C     C_R   0.999995 0.580631 0.999653 0.908756
C52   C     C_R   0.499995 0.080630 0.999653 0.910308
C53   C     C_R   0.970680 0.728220 0.004098 0.255660
C54   C     C_R   0.029371 0.728637 0.993667 0.255352
C55   C     C_R   0.470455 0.228225 0.003464 0.255969
C56   C     C_R   0.529590 0.228629 0.994273 0.255602
C57   C     C_R   0.999978 0.706637 0.998712 -0.010579
C58   C     C_R   0.499974 0.206637 0.998699 -0.011027
C59   C     C_R   0.529533 0.272067 0.994623 -0.195710
C60   C     C_R   0.470729 0.271656 0.003794 -0.194967
C61   C     C_R   0.029316 0.772073 0.994026 -0.195861
C62   C     C_R   0.970954 0.771648 0.004424 -0.194951
C63   C     C_R   0.500194 0.293406 0.999435 0.049339
C64   C     C_R   0.000197 0.793407 0.999452 0.049344
C65   C     C_1   0.999981 0.662137 0.998712 0.099351
C66   C     C_1   0.499978 0.162136 0.998704 0.099875
C67   C     C_1   0.500266 0.337801 0.999798 0.001183
C68   C     C_1   0.000267 0.837801 0.999809 0.000882
C69   C     C_1   0.500231 0.375091 0.000011 -0.159931
C70   C     C_1   0.000232 0.875090 0.000017 -0.160103
C71   C     C_2   0.531116 0.517512 0.814543 -0.236119
C72   C     C_2   0.468847 0.482286 0.185404 -0.233768
C73   C     C_2   0.031589 0.016353 0.814990 -0.234946
C74   C     C_2   0.968845 0.982231 0.185411 -0.234402
C75   C     C_1   0.999982 0.624843 0.998953 -0.092448
C76   C     C_1   0.499979 0.124841 0.998949 -0.091416
C77   C     C_R   0.972743 0.272333 0.933755 -0.171835
C78   C     C_R   0.026380 0.271246 0.067870 -0.171554
C79   C     C_R   0.472994 0.772335 0.933644 -0.172026
C80   C     C_R   0.526127 0.771243 0.067973 -0.171763
C81   C     C_R   0.999572 0.293418 0.000922 0.161193
C82   C     C_R   0.499571 0.793418 0.000918 0.161387
C83   C     C_R   0.526118 0.727805 0.067741 -0.172826
C84   C     C_R   0.472985 0.728900 0.933411 -0.168861
C85   C     C_R   0.026370 0.227808 0.067636 -0.172787
C86   C     C_R   0.972735 0.228897 0.933521 -0.168308
C87   C     C_R   0.499568 0.706724 0.000453 0.160502
C88   C     C_R   0.999569 0.206724 0.000455 0.160240
C89   C     C_1   0.999723 0.337852 0.001055 -0.059321
C90   C     C_1   0.499723 0.837852 0.001053 -0.059672
C91   C     C_1   0.499666 0.662291 0.000173 -0.056987
C92   C     C_1   0.999666 0.162291 0.000173 -0.056495
C93   C     C_1   0.499773 0.624976 0.999998 -0.161720
C94   C     C_1   0.999773 0.124976 0.999997 -0.161098
C95   C     C_1   0.999860 0.375169 0.000918 -0.162350
C96   C     C_1   0.499860 0.875169 0.000918 -0.162841
C97   C     C_2   0.496342 0.511357 0.811868 0.121186
C98   C     C_2   0.503702 0.488853 0.188211 0.118470
C99   C     C_2   0.996551 0.011661 0.812172 0.120119
C100  C     C_2   0.003668 0.988618 0.188128 0.118688
C101  C     C_2   0.529456 0.522291 0.746341 -0.125064
C102  C     C_2   0.470360 0.477695 0.253455 -0.121222
C103  C     C_2   0.030071 0.021179 0.746962 -0.123849
C104  C     C_2   0.970439 0.977597 0.253546 -0.121031
C105  C     C_2   0.504456 0.497041 0.688845 -0.246928
C106  C     C_2   0.495472 0.502934 0.311135 -0.243734
C107  C     C_2   0.003740 0.997084 0.688095 -0.242908
C108  C     C_2   0.995475 0.002875 0.311072 -0.245021
C109  C     C_R   0.225885 0.478338 0.183860 -0.260176
C110  C     C_R   0.774295 0.472594 0.808989 -0.260457
C111  C     C_R   0.725933 0.975735 0.187864 -0.260260
C112  C     C_R   0.274172 0.970187 0.803914 -0.260817
C113  C     C_R   0.206601 0.501334 0.209337 -0.033349
C114  C     C_R   0.793427 0.501400 0.790312 -0.031095
C115  C     C_R   0.706502 0.001714 0.209362 -0.033414
C116  C     C_R   0.293430 0.001487 0.790034 -0.030196
C117  C     C_R   0.229593 0.523680 0.276723 0.125459
C118  C     C_R   0.770297 0.529706 0.730096 0.120855
C119  C     C_R   0.729345 0.026992 0.272881 0.125078
C120  C     C_R   0.270406 0.032209 0.734320 0.119759
H1    H     H_    0.561742 0.518172 0.867797 0.161643
H2    H     H_    0.438213 0.481308 0.132016 0.160878
H3    H     H_    0.062374 0.015559 0.868257 0.161931
H4    H     H_    0.938225 0.981438 0.132095 0.161142
H5    H     H_    0.452404 0.712627 0.881233 0.151263
H6    H     H_    0.546737 0.710685 0.119730 0.148009
H7    H     H_    0.951958 0.212622 0.881425 0.151738
H8    H     H_    0.047185 0.210690 0.119542 0.148138
H9    H     H_    0.951979 0.289451 0.881825 0.148974
H10   H     H_    0.047208 0.287525 0.119939 0.148082
H11   H     H_    0.452425 0.789456 0.881631 0.148718
H12   H     H_    0.546761 0.787520 0.120125 0.147918
H13   H     H_    0.551422 0.543379 0.746305 0.155143
H14   H     H_    0.448115 0.456738 0.253194 0.148273
H15   H     H_    0.053294 0.041028 0.748174 0.153036
H16   H     H_    0.948340 0.956584 0.253474 0.149426
H17   H     H_    0.487382 0.471545 0.693385 0.182653
H18   H     H_    0.512685 0.528467 0.306819 0.178428
H19   H     H_    0.985246 0.972416 0.691076 0.181004
H20   H     H_    0.012603 0.028362 0.306550 0.178554
H21   H     H_    0.206954 0.461173 0.131976 0.193640
H22   H     H_    0.793384 0.451165 0.855700 0.192962
H23   H     H_    0.707054 0.956282 0.138960 0.193310
H24   H     H_    0.293188 0.946971 0.847177 0.192615
H25   H     H_    0.448027 0.288402 0.007471 0.182686
H26   H     H_    0.552318 0.289130 0.991219 0.182415
H27   H     H_    0.948424 0.788386 0.008580 0.182658
H28   H     H_    0.051928 0.789139 0.990140 0.182374
O1    O     O_R   0.439010 0.534430 0.439020 -0.604611
O2    O     O_R   0.560990 0.534430 0.560980 -0.607734
O3    O     O_R   0.939010 0.034430 0.439020 -0.603270
O4    O     O_R   0.060990 0.034430 0.560980 -0.606316
O5    O     O_R   0.060990 0.500040 0.112010 -0.598282
O6    O     O_R   0.939010 0.500040 0.887990 -0.601107
O7    O     O_R   0.560990 0.000040 0.112010 -0.599632
O8    O     O_R   0.439010 0.000040 0.887990 -0.602893
O9    O     O_R   0.060980 0.499970 0.009870 -0.615428
O10   O     O_R   0.939020 0.499970 0.990130 -0.614159
O11   O     O_R   0.560980 0.999970 0.009870 -0.614942
O12   O     O_R   0.439020 0.999970 0.990130 -0.613149
O13   O     O_R   0.000010 0.561020 0.051000 -0.600760
O14   O     O_R   0.999990 0.561020 0.949000 -0.602410
O15   O     O_R   0.500010 0.061020 0.051000 -0.600559
O16   O     O_R   0.499990 0.061020 0.949000 -0.602598
O17   O     O_R   0.439010 0.465570 0.438980 -0.625044
O18   O     O_R   0.560990 0.465570 0.561020 -0.621177
O19   O     O_R   0.939010 0.965570 0.438980 -0.626621
O20   O     O_R   0.060990 0.965570 0.561020 -0.622696
O21   O     O_R   0.500010 0.534430 0.590460 -0.601788
O22   O     O_R   0.499990 0.534430 0.409540 -0.626272
O23   O     O_R   0.000010 0.034430 0.590460 -0.600526
O24   O     O_R   0.999990 0.034430 0.409540 -0.625925
O25   O     O_R   0.500010 0.465570 0.590420 -0.624985
O26   O     O_R   0.499990 0.465570 0.409580 -0.600154
O27   O     O_R   0.000010 0.965570 0.590420 -0.625396
O28   O     O_R   0.999990 0.965570 0.409580 -0.600473
O29   O     O_R   0.534430 0.439010 0.034350 -0.605892
O30   O     O_R   0.465570 0.439010 0.965650 -0.612850
O31   O     O_R   0.034430 0.939010 0.034350 -0.605914
O32   O     O_R   0.965570 0.939010 0.965650 -0.613193
O33   O     O_R   0.534420 0.500000 0.943920 -0.643796
O34   O     O_R   0.465580 0.500000 0.056080 -0.643242
O35   O     O_R   0.034420 1.000000 0.943920 -0.643877
O36   O     O_R   0.965580 1.000000 0.056080 -0.643266
O37   O     O_R   0.465560 0.500000 0.875080 -0.572922
O38   O     O_R   0.534440 0.500000 0.124920 -0.573420
O39   O     O_R   0.965560 0.000000 0.875080 -0.573310
O40   O     O_R   0.034440 1.000000 0.124920 -0.573427
O41   O     O_R   0.534430 0.560990 0.034430 -0.615003
O42   O     O_R   0.465570 0.560990 0.965570 -0.608061
O43   O     O_R   0.034430 0.060990 0.034430 -0.614884
O44   O     O_R   0.965570 0.060990 0.965570 -0.607586
O45   O     O_R   0.000000 0.439050 0.051090 -0.615694
O46   O     O_R   0.000000 0.439050 0.948910 -0.614882
O47   O     O_R   0.500000 0.939050 0.051090 -0.615921
O48   O     O_R   0.500000 0.939050 0.948910 -0.615109
Zn1   Zn    Zn3+2 0.500000 0.545980 0.500000 0.997772
Zn2   Zn    Zn3+2 0.000000 0.045980 0.500000 0.999591
Zn3   Zn    Zn3+2 0.500000 0.454020 0.500000 0.989915
Zn4   Zn    Zn3+2 0.000000 0.954020 0.500000 0.987301
Zn5   Zn    Zn3+2 0.545980 0.500000 0.045940 1.018570
Zn6   Zn    Zn3+2 0.454020 0.500000 0.954060 1.018617
Zn7   Zn    Zn3+2 0.045980 0.000000 0.045940 1.018794
Zn8   Zn    Zn3+2 0.954020 0.000000 0.954060 1.018827
Zn9   Zn    Zn3+2 0.000010 0.500050 0.068180 1.026424
Zn10  Zn    Zn3+2 0.999990 0.500050 0.931820 1.023307
Zn11  Zn    Zn3+2 0.500010 0.000050 0.068180 1.025865
Zn12  Zn    Zn3+2 0.499990 0.000050 0.931820 1.021905
Br1   Br    Br    0.929923 0.699628 0.011148 -0.462896
Br2   Br    Br    0.070031 0.700605 0.986337 -0.468039
Br3   Br    Br    0.429379 0.199643 0.009627 -0.459334
Br4   Br    Br    0.570571 0.200587 0.987842 -0.465990
Br5   Br    Br    0.440275 0.521218 0.721965 -0.488498
Br6   Br    Br    0.559925 0.479583 0.278376 -0.470387
Br7   Br    Br    0.940753 0.023950 0.722885 -0.483372
Br8   Br    Br    0.059765 0.978862 0.278100 -0.469597
O49   O     O_3   0.282097 0.452755 0.186095 -0.599575
C121  C     C_3   0.325121 0.445391 0.224310 0.110750
H29   H     H_    0.338050 0.430115 0.279699 0.157034
H30   H     H_    0.341241 0.474912 0.228565 0.146305
C122  C     C_3   0.332241 0.415632 0.178873 -0.785386
H31   H     H_    0.318824 0.428900 0.121991 0.262419
H32   H     H_    0.366248 0.410754 0.207388 0.201461
H33   H     H_    0.317416 0.385072 0.173724 0.263663
O50   O     O_3   0.718397 0.438841 0.797744 -0.600821
C123  C     C_3   0.675373 0.434383 0.763347 0.109826
H34   H     H_    0.659544 0.424651 0.704171 0.162772
H35   H     H_    0.662028 0.463397 0.768920 0.143586
C124  C     C_3   0.668468 0.399783 0.803391 -0.776628
H36   H     H_    0.683711 0.407836 0.863146 0.260122
H37   H     H_    0.634532 0.395678 0.776346 0.207265
H38   H     H_    0.681719 0.369987 0.800317 0.264573
O51   O     O_3   0.782150 0.945920 0.195183 -0.600220
C125  C     C_3   0.825250 0.939979 0.232267 0.110639
H39   H     H_    0.839498 0.927568 0.290009 0.159533
H40   H     H_    0.839976 0.969307 0.230839 0.145007
C126  C     C_3   0.832511 0.907496 0.190618 -0.784013
H41   H     H_    0.818232 0.917968 0.131853 0.261449
H42   H     H_    0.866529 0.903043 0.218783 0.203021
H43   H     H_    0.818585 0.877227 0.190484 0.264217
O52   O     O_3   0.218233 0.933688 0.787673 -0.601599
C127  C     C_3   0.175242 0.928422 0.752520 0.112276
H44   H     H_    0.159443 0.921800 0.692033 0.163018
H45   H     H_    0.161842 0.955833 0.762392 0.144060
C128  C     C_3   0.168432 0.890649 0.787173 -0.774880
H46   H     H_    0.183716 0.895464 0.848012 0.260021
H47   H     H_    0.134524 0.885988 0.759583 0.207716
H48   H     H_    0.181646 0.862232 0.779544 0.263621
Br9   Br    Br    0.196222 0.553545 0.302179 -0.528386
Br10  Br    Br    0.803737 0.567505 0.714541 -0.530488
Br11  Br    Br    0.695694 0.060841 0.292847 -0.527140
Br12  Br    Br    0.304129 0.073819 0.726651 -0.529086
O53   O     O_3   0.302778 0.537748 0.393184 -0.597965
C129  C     C_3   0.288021 0.569566 0.416515 0.143867
H49   H     H_    0.268737 0.555351 0.433693 0.207603
H50   H     H_    0.271505 0.594557 0.372895 0.180180
C130  C     C_3   0.325089 0.589443 0.486853 -0.758430
H51   H     H_    0.344863 0.606544 0.473692 0.253610
H52   H     H_    0.313922 0.611644 0.510424 0.215394
H53   H     H_    0.344235 0.565042 0.529945 0.285887
O54   O     O_3   0.696756 0.552228 0.623048 -0.604647
C131  C     C_3   0.712151 0.584300 0.601206 0.156309
H54   H     H_    0.730265 0.570861 0.581502 0.199928
H55   H     H_    0.729921 0.607141 0.647042 0.191306
C132  C     C_3   0.675557 0.607705 0.534580 -0.790816
H56   H     H_    0.656225 0.622378 0.550705 0.258371
H57   H     H_    0.687311 0.632492 0.515292 0.216502
H58   H     H_    0.655898 0.585979 0.487652 0.270751
O55   O     O_3   0.802248 0.044255 0.386343 -0.599653
C133  C     C_3   0.787384 0.078286 0.404883 0.149195
H59   H     H_    0.768427 0.066377 0.424502 0.206694
H60   H     H_    0.770417 0.101174 0.357634 0.180974
C134  C     C_3   0.824170 0.100944 0.471452 -0.766375
H61   H     H_    0.843621 0.115978 0.455420 0.253695
H62   H     H_    0.812592 0.125414 0.490975 0.215584
H63   H     H_    0.843670 0.078583 0.518463 0.283237
O56   O     O_3   0.196944 0.056363 0.629233 -0.603937
C135  C     C_3   0.212692 0.090157 0.611437 0.157888
H64   H     H_    0.231352 0.078714 0.591429 0.197333
H65   H     H_    0.229991 0.111578 0.659666 0.193457
C136  C     C_3   0.176517 0.115066 0.546762 -0.792756
H66   H     H_    0.156677 0.127934 0.563266 0.258921
H67   H     H_    0.188775 0.141377 0.531263 0.216582
H68   H     H_    0.157249 0.094958 0.497091 0.268563

loop_
_geom_bond_atom_site_label_1
_geom_bond_atom_site_label_2
_ccdc_geom_bond_type
C2    O2    A    
C74   H4    S    
C128  H47   S    
C89   C95   T    
C80   H12   S    
C87   C91   S    
O32   Zn8   S    
O25   Zn3   S    
C17   C29   T    
C34   O32   A    
C81   C89   S    
O3    Zn2   S    
C84   C87   A    
C104  C108  D    
C40   C94   S    
C19   C31   T    
C18   C114  S    
C131  C132  S    
C102  H14   S    
C8    O56   S    
O28   Zn4   S    
O8    Zn12  S    
C3    O19   A    
O11   Zn12  S    
C72   C98   D    
C2    O18   A    
C10   C22   S    
C136  H68   S    
C7    C11   A    
C71   C97   D    
C16   C112  A    
O26   Zn3   S    
C124  H36   S    
C125  H40   S    
C48   O6    A    
C29   C47   S    
C60   C63   A    
O36   Zn8   S    
C64   C68   S    
C30   C48   S    
C13   O49   S    
C114  C118  A    
C61   H28   S    
C51   C75   S    
C130  H51   S    
O23   Zn2   S    
O7    Zn11  S    
O17   Zn3   S    
C20   C32   T    
O54   C131  S    
C39   O41   A    
C86   C88   A    
C106  H18   S    
O5    Zn9   S    
C41   O25   A    
C37   O35   A    
C126  H42   S    
C84   H5    S    
C134  H63   S    
C38   O36   A    
C51   O14   A    
C73   C99   D    
O52   C127  S    
C5    O53   S    
C11   C23   S    
C110  H22   S    
C9    C13   A    
O18   Zn3   S    
C39   C93   S    
C62   C64   A    
C42   O22   A    
C11   C15   A    
O41   Zn5   S    
C58   C66   S    
C88   C92   S    
C50   O8    A    
C73   H3    S    
C135  C136  S    
C102  C106  D    
C73   C103  S    
C129  H50   S    
O19   Zn4   S    
C133  H60   S    
O24   Zn2   S    
O53   C129  S    
C18   C30   T    
C23   C27   T    
C8    C12   A    
C3    O3    A    
C24   C28   T    
C132  H56   S    
C34   C70   S    
O2    Zn1   S    
C128  H48   S    
C109  C113  A    
C35   O33   A    
C123  H35   S    
C72   H2    S    
C16   O52   S    
C71   C101  S    
C13   C109  A    
C97   Br5   S    
O55   C133  S    
O14   Zn10  S    
C101  C105  D    
C79   C84   A    
C133  C134  S    
O13   Zn9   S    
C34   O31   A    
O43   Zn7   S    
C31   C49   S    
C80   C83   A    
O46   Zn10  S    
C33   C69   S    
C4    C28   S    
C71   H1    S    
O50   C123  S    
O21   Zn1   S    
C44   C108  S    
C45   O45   A    
C12   C16   A    
C4    O4    A    
C63   C67   S    
C127  C128  S    
O45   Zn9   S    
C109  H21   S    
C53   Br1   S    
C17   C113  S    
C7    C119  A    
C55   Br3   S    
C46   O47   A    
C72   C102  S    
C14   O50   S    
C38   C100  S    
C42   O26   A    
C57   C65   S    
C20   C116  S    
C39   O42   A    
C53   C57   A    
O42   Zn6   S    
C7    O55   S    
C74   C100  D    
C47   O5    A    
C129  C130  S    
C50   O12   A    
C136  H66   S    
C43   C107  S    
C33   O29   A    
O39   Zn8   S    
C116  C120  A    
O38   Zn5   S    
C5    C117  A    
C130  H52   S    
C125  C126  S    
C120  Br12  S    
O37   Zn6   S    
O48   Zn12  S    
C61   C64   A    
C44   O24   A    
C5    C9    A    
C122  H31   S    
C15   C111  A    
C91   C93   T    
C125  H39   S    
C111  C115  A    
C53   C62   A    
C108  H20   S    
C127  H45   S    
C40   O44   A    
C19   C115  S    
C35   O37   A    
C79   H11   S    
C15   O51   S    
C92   C94   T    
C134  H61   S    
O44   Zn8   S    
O4    Zn2   S    
C2    C26   S    
C77   H9    S    
C90   C96   T    
C132  H57   S    
C98   Br6   S    
C32   C50   S    
O6    Zn10  S    
C36   O34   A    
C41   C105  S    
C52   O16   A    
C113  C117  A    
C78   C85   A    
C80   C82   A    
O49   C121  S    
O31   Zn7   S    
C77   C86   A    
C123  H34   S    
C101  H13   S    
C62   H27   S    
O30   Zn6   S    
O16   Zn12  S    
O56   C135  S    
C135  H65   S    
C126  H43   S    
C136  H67   S    
C60   H25   S    
C83   H6    S    
C43   O27   A    
C9    C21   S    
C110  C114  A    
C112  C116  A    
C8    C120  A    
C121  C122  S    
C74   C104  S    
C47   O9    A    
C85   C88   A    
C45   O46   A    
C14   C110  A    
C21   C25   T    
C100  Br8   S    
C43   O23   A    
C104  H16   S    
C127  H44   S    
C86   H7    S    
O34   Zn6   S    
O10   Zn9   S    
C59   C63   A    
C49   O7    A    
C1    O17   A    
O33   Zn5   S    
O9    Zn10  S    
C44   O28   A    
C128  H46   S    
C1    O1    A    
C52   C76   S    
C82   C90   S    
C83   C87   A    
C6    C10   A    
C79   C82   A    
C131  H55   S    
C1    C25   S    
C56   Br4   S    
C131  H54   S    
C54   C61   A    
C111  H23   S    
C122  H33   S    
C123  C124  S    
C119  Br11  S    
O40   Zn7   S    
C115  C119  A    
C65   C75   T    
C56   C59   A    
C121  H30   S    
C122  H32   S    
C103  C107  D    
C118  Br10  S    
C130  H53   S    
C129  H49   S    
C3    C27   S    
C78   H10   S    
O35   Zn7   S    
C124  H37   S    
C35   C97   S    
C117  Br9   S    
O12   Zn11  S    
C37   C99   S    
C112  H24   S    
C121  H29   S    
C37   O39   A    
C40   O43   A    
C48   O10   A    
C38   O40   A    
C126  H41   S    
O15   Zn11  S    
C134  H62   S    
C56   C58   A    
C51   O13   A    
C6    O54   S    
C36   O38   A    
C78   C81   A    
C10   C14   A    
C107  H19   S    
C12   C24   S    
O20   Zn4   S    
C132  H58   S    
C103  H15   S    
O27   Zn4   S    
C52   O15   A    
C105  H17   S    
C124  H38   S    
C42   C106  S    
C59   H26   S    
C4    O20   A    
C54   Br2   S    
C46   C96   S    
O47   Zn11  S    
C68   C70   T    
C77   C81   A    
C22   C26   T    
C55   C58   A    
C46   O48   A    
C99   Br7   S    
C135  H64   S    
C49   O11   A    
C85   H8    S    
C36   C98   S    
C33   O30   A    
C67   C69   T    
C41   O21   A    
C55   C60   A    
O29   Zn5   S    
C6    C118  A    
O22   Zn1   S    
C133  H59   S    
C66   C76   T    
O51   C125  S    
O1    Zn1   S    
C54   C57   A    
C45   C95   S    
