data_mof_unit_32265.cif
_audit_creation_date              2012-10-26T20:02:34-0400
_audit_creation_method            fapswitch 2.2
_symmetry_space_group_name_H-M    P1
_symmetry_Int_Tables_number       1
_space_group_crystal_system       triclinic
_cell_length_a                    19.242083
_cell_length_b                    18.692242
_cell_length_c                    12.297888
_cell_angle_alpha                 90.42992
_cell_angle_beta                  129.600801
_cell_angle_gamma                 89.78596
_cell_volume                      3408.05401452

loop_
_atom_site_label
_atom_site_type_symbol
_atom_type_description
_atom_site_fract_x
_atom_site_fract_y
_atom_site_fract_z
_atom_type_partial_charge
Br1   Br    Br    0.274339 0.828267 0.638488 -0.639388
Br2   Br    Br    0.325642 0.203358 0.691602 -0.644180
Br3   Br    Br    0.774338 0.328267 0.638488 -0.639388
Br4   Br    Br    0.825640 0.703357 0.691600 -0.644181
C1    C     C_R   0.607425 0.895563 0.647352 0.533115
C2    C     C_R   0.660080 0.728492 0.027561 0.062891
C3    C     C_R   0.168749 0.759614 0.046850 0.067082
C4    C     C_R   0.160080 0.228492 0.027561 0.062891
C5    C     C_R   0.597068 0.213367 0.949541 -0.008489
C6    C     C_R   0.585178 0.769863 0.922360 -0.018999
C7    C     C_R   0.097067 0.713368 0.949540 -0.008489
C8    C     C_R   0.085178 0.269863 0.922360 -0.018999
C9    C     C_R   0.581220 0.195577 0.825137 -0.094199
C10   C     C_R   0.582298 0.799068 0.815459 -0.089721
C11   C     C_R   0.081219 0.695577 0.825136 -0.094200
C12   C     C_R   0.604146 0.106143 0.643730 0.538120
C13   C     C_R   0.082298 0.299068 0.815459 -0.089721
C14   C     C_R   0.294310 0.834265 0.115750 -0.134401
C15   C     C_R   0.302663 0.171580 0.124742 -0.134691
C16   C     C_R   0.794310 0.334265 0.115749 -0.134400
C17   C     C_R   0.802663 0.671580 0.124741 -0.134691
C18   C     C_R   0.258475 0.822739 0.271218 -0.130318
C19   C     C_R   0.242712 0.162574 0.247430 -0.126536
C20   C     C_R   0.758476 0.322738 0.271220 -0.130318
C21   C     C_R   0.742712 0.662574 0.247430 -0.126536
C22   C     C_R   0.646246 0.177303 0.704872 -0.038799
C23   C     C_R   0.107425 0.395563 0.647352 0.533114
C24   C     C_R   0.658503 0.828919 0.717566 -0.039035
C25   C     C_R   0.146246 0.677303 0.704872 -0.038799
C26   C     C_R   0.158503 0.328919 0.717566 -0.039035
C27   C     C_R   0.668406 0.945646 0.280136 -0.148937
C28   C     C_R   0.168405 0.445645 0.280136 -0.148938
C29   C     C_R   0.345416 0.013085 0.626306 0.111431
C30   C     C_R   0.845416 0.513085 0.626306 0.111432
C31   C     C_R   0.310981 0.018145 0.696941 -0.074363
C32   C     C_R   0.810981 0.518145 0.696940 -0.074362
C33   C     C_R   0.383874 0.098148 0.341038 0.546451
C34   C     C_R   0.104146 0.606143 0.643730 0.538120
C35   C     C_R   0.384267 0.901598 0.341354 0.545343
C36   C     C_R   0.883874 0.598148 0.341038 0.546451
C37   C     C_R   0.884267 0.401598 0.341354 0.545343
C38   C     C_R   0.367723 0.009878 0.842595 -0.109266
C39   C     C_R   0.867723 0.509878 0.842595 -0.109266
C40   C     C_R   0.459742 0.994523 0.919382 -0.025149
C41   C     C_R   0.959742 0.494524 0.919382 -0.025149
C42   C     C_R   0.493496 0.989472 0.843987 0.172961
C43   C     C_R   0.993496 0.489472 0.843987 0.172960
C44   C     C_R   0.520511 0.985327 0.069315 -0.022482
C45   C     C_R   0.222238 0.789143 0.015199 0.019569
C46   C     C_R   0.020511 0.485327 0.069315 -0.022482
C47   C     C_R   0.605047 0.953175 0.133666 0.007307
C48   C     C_R   0.105047 0.453174 0.133666 0.007307
C49   C     C_R   0.629213 0.934617 0.052723 -0.143043
C50   C     C_R   0.129213 0.434616 0.052722 -0.143043
C51   C     C_R   0.587183 0.970044 0.925543 0.038484
C52   C     C_R   0.087183 0.470043 0.925542 0.038485
C53   C     C_R   0.502180 0.006952 0.159191 0.040623
C54   C     C_R   0.002180 0.506952 0.159191 0.040623
C55   C     C_R   0.648349 0.971222 0.363157 0.053190
C56   C     C_R   0.227711 0.211742 0.016552 0.018187
C57   C     C_R   0.148349 0.471221 0.363156 0.053190
C58   C     C_R   0.687647 0.277477 0.174803 -0.123009
C59   C     C_R   0.668553 0.702878 0.143084 -0.126605
C60   C     C_R   0.187645 0.777478 0.174801 -0.123009
C61   C     C_R   0.168552 0.202877 0.143084 -0.126605
C62   C     C_R   0.312209 0.851164 0.242557 -0.004919
C63   C     C_R   0.309924 0.146458 0.238753 0.000915
C64   C     C_R   0.812210 0.351163 0.242557 -0.004919
C65   C     C_R   0.809924 0.646458 0.238753 0.000915
C66   C     C_R   0.689648 0.211132 0.661327 -0.096161
C67   C     C_R   0.722238 0.289143 0.015200 0.019569
C68   C     C_R   0.713937 0.803312 0.689267 -0.092696
C69   C     C_R   0.189648 0.711132 0.661328 -0.096161
C70   C     C_R   0.213937 0.303312 0.689267 -0.092696
C71   C     C_R   0.234304 0.775753 0.721970 0.154804
C72   C     C_R   0.266950 0.243341 0.757187 0.154937
C73   C     C_R   0.734303 0.275754 0.721969 0.154805
C74   C     C_R   0.766949 0.743340 0.757186 0.154937
C75   C     C_R   0.247184 0.802453 0.840033 -0.092063
C76   C     C_R   0.274197 0.212778 0.867394 -0.097910
C77   C     C_R   0.747183 0.302453 0.840033 -0.092063
C78   C     C_R   0.727711 0.711742 0.016552 0.018187
C79   C     C_R   0.774196 0.712778 0.867393 -0.097911
C80   C     C_R   0.705863 0.268714 0.888812 -0.000220
C81   C     C_R   0.720211 0.738080 0.901023 -0.001085
C82   C     C_R   0.205863 0.768714 0.888812 -0.000220
C83   C     C_R   0.220211 0.238080 0.901023 -0.001085
C84   C     C_R   0.643795 0.212931 0.805547 -0.004648
C85   C     C_R   0.653604 0.790092 0.811913 -0.001034
C86   C     C_R   0.143795 0.712931 0.805546 -0.004648
C87   C     C_R   0.153604 0.290092 0.811913 -0.001034
C88   C     C_3   0.656254 0.015976 0.937179 -0.325312
C89   C     C_R   0.668749 0.259613 0.046852 0.067082
C90   C     C_3   0.156254 0.515976 0.937179 -0.325312
C91   C     C_3   0.541315 0.177886 0.981023 -0.391865
C92   C     C_3   0.508396 0.785190 0.923121 -0.389507
C93   C     C_3   0.041314 0.677887 0.981022 -0.391866
C94   C     C_3   0.008396 0.285189 0.923119 -0.389507
Cu1   Cu    Cu3+1 0.526340 0.000000 0.421010 0.931494
Cu2   Cu    Cu3+1 0.026340 0.500000 0.421010 0.931494
Cu3   Cu    Cu3+1 0.473640 0.000000 0.578990 0.933789
Cu4   Cu    Cu3+1 0.973640 0.500000 0.578990 0.933788
H1    H     H_    0.270902 0.835616 0.368318 0.180714
H2    H     H_    0.937422 0.528408 0.117539 0.112493
H3    H     H_    0.300512 0.019923 0.513151 0.136887
H4    H     H_    0.800512 0.519923 0.513151 0.136887
H5    H     H_    0.337634 0.013152 0.892401 0.098731
H6    H     H_    0.837634 0.513153 0.892401 0.098731
H7    H     H_    0.239938 0.028729 0.638441 0.135921
H8    H     H_    0.739938 0.528729 0.638441 0.135922
H9    H     H_    0.647971 0.257037 0.201963 0.129126
H10   H     H_    0.618054 0.713244 0.154228 0.121765
H11   H     H_    0.147969 0.757039 0.201960 0.129126
H12   H     H_    0.246481 0.142947 0.333731 0.155406
H13   H     H_    0.118054 0.213244 0.154228 0.121764
H14   H     H_    0.338832 0.855392 0.098925 0.123805
H15   H     H_    0.357327 0.160658 0.123708 0.119278
H16   H     H_    0.838831 0.355393 0.098924 0.123804
H17   H     H_    0.857326 0.660658 0.123707 0.119278
H18   H     H_    0.686395 0.188771 0.576670 0.163582
H19   H     H_    0.714470 0.828644 0.610859 0.161654
H20   H     H_    0.186395 0.688771 0.576670 0.163582
H21   H     H_    0.214470 0.328644 0.610859 0.161653
H22   H     H_    0.285297 0.851418 0.886483 0.128614
H23   H     H_    0.770904 0.335614 0.368320 0.180714
H24   H     H_    0.318115 0.167087 0.919080 0.118478
H25   H     H_    0.785297 0.351419 0.886483 0.128614
H26   H     H_    0.818114 0.667086 0.919079 0.118477
H27   H     H_    0.519999 0.166706 0.745857 0.189820
H28   H     H_    0.520994 0.825937 0.731271 0.171800
H29   H     H_    0.019998 0.666706 0.745856 0.189819
H30   H     H_    0.020994 0.325937 0.731270 0.171800
H31   H     H_    0.696535 0.964265 0.476216 0.133636
H32   H     H_    0.196535 0.464263 0.476216 0.133636
H33   H     H_    0.635969 0.072120 0.923262 0.154288
H34   H     H_    0.746482 0.642947 0.333731 0.155407
H35   H     H_    0.723182 0.016570 0.045160 0.088429
H36   H     H_    0.672359 0.997747 0.870124 0.180141
H37   H     H_    0.135967 0.572120 0.923260 0.154289
H38   H     H_    0.223183 0.516570 0.045162 0.088431
H39   H     H_    0.172359 0.497746 0.870123 0.180141
H40   H     H_    0.493048 0.138854 0.897832 0.179593
H41   H     H_    0.585866 0.147325 0.080848 0.122620
H42   H     H_    0.503321 0.218722 0.990391 0.173224
H43   H     H_    0.460606 0.824111 0.840467 0.191814
H44   H     H_    0.471690 0.734944 0.905111 0.155671
H45   H     H_    0.695493 0.911386 0.105358 0.125564
H46   H     H_    0.533872 0.809628 0.025045 0.137479
H47   H     H_    0.993047 0.638854 0.897831 0.179593
H48   H     H_    0.085865 0.647327 0.080847 0.122620
H49   H     H_    0.003319 0.718724 0.990388 0.173224
H50   H     H_    0.960605 0.324110 0.840465 0.191813
H51   H     H_    0.971690 0.234943 0.905110 0.155671
H52   H     H_    0.033871 0.309628 0.025043 0.137479
H53   H     H_    0.195493 0.411385 0.105357 0.125563
H54   H     H_    0.733805 0.921666 0.330335 0.107352
H55   H     H_    0.233804 0.421664 0.330334 0.107353
H56   H     H_    0.437422 0.028406 0.117539 0.112493
N1    N     N_R   0.566260 0.000000 0.302220 -0.237235
N2    N     N_R   0.066260 0.500000 0.302220 -0.237235
N3    N     N_R   0.434410 0.000000 0.697680 -0.234797
N4    N     N_R   0.934410 0.500000 0.697680 -0.234797
O1    O     O_R   0.608610 0.924520 0.551740 -0.510428
O2    O     O_R   0.435880 0.924530 0.314850 -0.504857
O3    O     O_R   0.935880 0.575470 0.314850 -0.517331
O4    O     O_R   0.935880 0.424530 0.314850 -0.504857
O5    O     O_R   0.391380 0.075460 0.448260 -0.509696
O6    O     O_R   0.391380 0.924540 0.448260 -0.502888
O7    O     O_R   0.891380 0.575460 0.448260 -0.509696
O8    O     O_R   0.891380 0.424540 0.448260 -0.502888
O9    O     O_R   0.608610 0.075480 0.551740 -0.494941
O10   O     O_R   0.108610 0.424520 0.551740 -0.510428
O11   O     O_R   0.108610 0.575480 0.551740 -0.494941
O12   O     O_R   0.564110 0.924510 0.685150 -0.515530
O13   O     O_R   0.564110 0.075490 0.685150 -0.531847
O14   O     O_R   0.064110 0.424510 0.685150 -0.515530
O15   O     O_R   0.064110 0.575490 0.685150 -0.531848
O16   O     O_R   0.435880 0.075470 0.314850 -0.517331

loop_
_geom_bond_atom_site_label_1
_geom_bond_atom_site_label_2
_ccdc_geom_bond_type
Cu4   O8    S    
C75   H22   S    
C53   H56   S    
C94   H52   S    
C91   H41   S    
C2    C78   A    
C42   C51   A    
C83   C87   A    
C68   H19   S    
Cu2   O10   S    
C90   H38   S    
C1    O12   A    
C21   C65   A    
C29   N3    A    
C13   C87   A    
C79   H26   S    
C88   H36   S    
C16   H16   S    
C27   H54   S    
C44   C53   A    
C33   O5    A    
C94   H50   S    
C52   C90   S    
C92   H43   S    
C70   C72   A    
C1    O1    A    
C28   C57   A    
C28   H55   S    
C76   C83   A    
Cu1   N1    S    
C26   C70   A    
C25   C69   A    
Cu4   O14   S    
C49   H45   S    
Cu2   O4    S    
C21   C59   A    
C19   C63   A    
C35   O6    A    
C31   C38   A    
C21   H34   S    
C5    C9    A    
C25   C86   A    
C68   C74   A    
C43   N4    A    
C55   N1    A    
C74   C79   A    
C44   C47   A    
C18   C62   A    
C58   H9    S    
C40   C42   A    
C42   N3    A    
C8    C13   A    
C46   C48   A    
C93   H48   S    
C16   C67   A    
C15   C63   A    
C24   C85   A    
C6    C92   S    
C38   H5    S    
C5    C91   S    
C8    C94   S    
C31   H7    S    
C4    C8    A    
Cu4   O7    S    
C49   C51   A    
C70   H21   S    
C53   N1    A    
C94   H51   S    
C4    C61   A    
C34   O15   A    
C77   H25   S    
C66   C73   A    
C90   H37   S    
C61   H13   S    
Cu3   O12   S    
C24   C68   A    
C38   C40   A    
C88   H35   S    
C36   O7    A    
C56   C83   A    
C48   C50   A    
C57   H32   S    
C37   C64   S    
C41   C43   A    
C12   C22   S    
C92   H46   S    
C50   C52   A    
C36   C65   S    
C30   H4    S    
C28   C48   A    
C29   H3    S    
C3    C45   A    
Cu1   O16   S    
C6    C10   A    
C57   N2    A    
C66   H18   S    
C50   H53   S    
C81   C85   A    
C34   O11   A    
C55   H31   S    
C18   H1    S    
C17   C65   A    
Cu2   O3    S    
C47   C49   A    
C46   C54   A    
C2    C59   A    
C25   C34   S    
Cu3   O6    S    
C3    C7    A    
C10   C85   A    
Br4   C74   S    
C51   C88   S    
C33   O16   A    
C1    C24   S    
Cu2   N2    S    
C73   C77   A    
Cu4   N4    S    
C37   O4    A    
Cu2   Cu4   S    
C93   H49   S    
C11   H29   S    
C39   C41   A    
C36   O3    A    
Br1   C71   S    
Cu1   O1    S    
C12   O13   A    
Cu1   Cu3   S    
C7    C11   A    
C82   C86   A    
C20   H23   S    
C22   C66   A    
C35   C62   S    
Cu3   O13   S    
C88   H33   S    
C54   H2    S    
C69   C71   A    
C14   H14   S    
Br3   C73   S    
C5    C89   A    
Cu2   O11   S    
C77   C80   A    
Br2   C72   S    
C67   C80   A    
C10   H28   S    
C27   C55   A    
C20   C58   A    
C60   H11   S    
C79   C81   A    
C59   H10   S    
C90   H39   S    
C45   C82   A    
C16   C64   A    
C72   C76   A    
C27   C47   A    
C26   C87   A    
C30   N4    A    
C23   O14   A    
C2    C6    A    
C67   C89   A    
C15   C56   A    
C14   C62   A    
C78   C81   A    
Cu3   O5    S    
C37   O8    A    
C7    C93   S    
C19   C61   A    
Cu3   N3    S    
C17   H17   S    
C54   N2    A    
C4    C56   A    
C19   H12   S    
C32   H8    S    
C12   O9    A    
C11   C86   A    
C80   C84   A    
C76   H24   S    
C41   C46   A    
C33   C63   S    
C9    C84   A    
C29   C31   A    
C30   C32   A    
C39   H6    S    
C3    C60   A    
C20   C64   A    
C18   C60   A    
Cu1   O2    S    
C91   H42   S    
Cu1   O9    S    
C17   C78   A    
C15   H15   S    
C91   H40   S    
C22   C84   A    
C69   H20   S    
C58   C89   A    
C92   H44   S    
Cu4   O15   S    
C93   H47   S    
C23   C26   S    
C32   C39   A    
C35   O2    A    
C71   C75   A    
C23   O10   A    
C75   C82   A    
C9    H27   S    
C40   C44   A    
C14   C45   A    
C43   C52   A    
C13   H30   S    
