data_mof_unit_43917.cif
_audit_creation_date              2012-12-11T14:40:05-0500
_audit_creation_method            fapswitch 2.2
_symmetry_space_group_name_H-M    P1
_symmetry_Int_Tables_number       1
_space_group_crystal_system       triclinic
_cell_length_a                    19.607283
_cell_length_b                    10.826504
_cell_length_c                    19.471593
_cell_angle_alpha                 89.922234
_cell_angle_beta                  97.443173
_cell_angle_gamma                 90.868571
_cell_volume                      4098.09680304

loop_
_atom_site_label
_atom_site_type_symbol
_atom_type_description
_atom_site_fract_x
_atom_site_fract_y
_atom_site_fract_z
_atom_type_partial_charge
C1    C     C_R   0.708623 0.997152 0.367234 0.552838
C2    C     C_R   0.274160 0.950901 0.639467 0.534427
C3    C     C_R   0.208623 0.497156 0.367233 0.552847
C4    C     C_R   0.774161 0.450903 0.639466 0.534431
C5    C     C_3   0.725379 0.301208 0.483294 -0.171498
C6    C     C_3   0.307819 0.368341 0.506094 -0.177769
C7    C     C_3   0.225375 0.801221 0.483289 -0.171436
C8    C     C_3   0.807835 0.868398 0.506105 -0.177771
C9    C     C_3   0.746995 0.399962 0.432760 0.047813
C10   C     C_3   0.259907 0.371665 0.562136 0.066444
C11   C     C_3   0.247002 0.899972 0.432759 0.047889
C12   C     C_3   0.759911 0.871656 0.562136 0.066455
C13   C     C_3   0.711433 0.500302 0.469152 -0.120320
C14   C     C_3   0.241655 0.506823 0.545968 -0.145335
C15   C     C_3   0.211448 0.000319 0.469155 -0.120435
C16   C     C_3   0.741612 0.006795 0.545968 -0.145337
C17   C     C_3   0.780476 0.523667 0.516012 -0.054154
C18   C     C_3   0.179765 0.462152 0.493841 -0.137515
C19   C     C_3   0.280490 0.023661 0.516018 -0.054241
C20   C     C_3   0.679745 0.962066 0.493829 -0.137657
C21   C     C_3   0.814394 0.421453 0.478980 0.287111
C22   C     C_3   0.199163 0.327685 0.510424 0.299199
C23   C     C_3   0.314402 0.921442 0.478984 0.287168
C24   C     C_3   0.699189 0.827616 0.510414 0.299127
C25   C     C_3   0.794674 0.322886 0.530026 -0.137547
C26   C     C_3   0.246483 0.322100 0.454033 -0.095106
C27   C     C_3   0.294668 0.822876 0.530025 -0.137538
C28   C     C_3   0.746523 0.822102 0.454033 -0.094944
C29   C     C_3   0.759340 0.424288 0.566532 0.028966
C30   C     C_3   0.227917 0.457376 0.437745 0.013380
C31   C     C_3   0.259342 0.924285 0.566532 0.028939
C32   C     C_3   0.727913 0.957361 0.437745 0.013423
C33   C     C_3   0.521753 0.272122 0.968962 -0.101675
C34   C     C_3   0.479529 0.276834 0.030042 -0.098799
C35   C     C_3   0.021768 0.772109 0.968957 -0.101676
C36   C     C_3   0.979545 0.776849 0.030038 -0.098797
C37   C     C_3   0.566473 0.168214 0.003935 -0.151078
C38   C     C_3   0.428820 0.177613 0.996180 -0.143552
C39   C     C_3   0.066476 0.668188 0.003934 -0.151079
C40   C     C_3   0.928824 0.677641 0.996180 -0.143549
C41   C     C_3   0.524311 0.173242 0.064484 0.057052
C42   C     C_3   0.471123 0.173350 0.935686 0.054719
C43   C     C_3   0.024315 0.673244 0.064483 0.057051
C44   C     C_3   0.971126 0.673350 0.935686 0.054720
C45   C     C_R   0.533949 0.179344 0.337283 0.551205
C46   C     C_R   0.435783 0.183164 0.651498 0.534830
C47   C     C_R   0.033949 0.679344 0.337283 0.551198
C48   C     C_R   0.935782 0.683165 0.651498 0.534826
C49   C     C_3   0.473916 0.073714 0.031827 -0.103531
C50   C     C_3   0.515605 0.069045 0.969647 -0.105192
C51   C     C_3   0.973907 0.573728 0.031831 -0.103530
C52   C     C_3   0.015595 0.569032 0.969650 -0.105189
C53   C     C_1   0.757545 0.408732 0.899805 -0.003452
C54   C     C_1   0.217960 0.477133 0.085033 -0.017883
C55   C     C_1   0.257546 0.908732 0.899804 -0.003449
C56   C     C_1   0.717959 0.977135 0.085032 -0.017882
C57   C     C_1   0.734039 0.359405 0.025830 -0.045955
C58   C     C_1   0.241878 0.440150 0.957904 -0.040436
C59   C     C_1   0.234039 0.859404 0.025829 -0.045953
C60   C     C_1   0.741877 0.940152 0.957904 -0.040439
C61   C     C_1   0.744801 0.383017 0.956934 -0.040131
C62   C     C_1   0.229119 0.461671 0.026351 -0.044729
C63   C     C_1   0.244802 0.883017 0.956934 -0.040132
C64   C     C_1   0.729118 0.961673 0.026350 -0.044726
C65   C     C_1   0.727580 0.339604 0.085462 -0.016819
C66   C     C_1   0.252244 0.412608 0.900366 -0.006895
C67   C     C_1   0.227580 0.839603 0.085462 -0.016819
C68   C     C_1   0.752244 0.912609 0.900366 -0.006900
C69   C     C_R   0.740054 0.365590 0.360941 0.572846
C70   C     C_R   0.272675 0.319238 0.630837 0.544465
C71   C     C_R   0.240056 0.865595 0.360940 0.572837
C72   C     C_R   0.772677 0.819233 0.630838 0.544510
C73   C     C_R   0.704655 0.998710 0.154521 0.527879
C74   C     C_R   0.277499 0.950759 0.835574 0.537140
C75   C     C_R   0.204656 0.498710 0.154521 0.527880
C76   C     C_R   0.777500 0.450760 0.835577 0.537130
C77   C     C_R   0.556744 0.182029 0.135091 0.521355
C78   C     C_R   0.440579 0.181615 0.864412 0.560585
C79   C     C_R   0.056746 0.682030 0.135092 0.521362
C80   C     C_R   0.940580 0.681615 0.864412 0.560579
C81   C     C_R   0.722298 0.311138 0.156342 0.523560
C82   C     C_R   0.263508 0.363233 0.834761 0.548825
C83   C     C_R   0.222299 0.811138 0.156342 0.523556
C84   C     C_R   0.763508 0.863233 0.834761 0.548821
C85   C     C_1   0.455550 0.174993 0.583558 -0.019733
C86   C     C_1   0.505342 0.170503 0.400969 -0.003526
C87   C     C_1   0.955545 0.674994 0.583557 -0.019681
C88   C     C_1   0.005340 0.670503 0.400968 -0.003555
C89   C     C_1   0.487382 0.168059 0.457677 -0.013330
C90   C     C_1   0.470192 0.169975 0.525559 -0.026845
C91   C     C_1   0.987378 0.668060 0.457675 -0.013311
C92   C     C_1   0.970186 0.669976 0.525557 -0.026773
C93   C     C_3   0.690328 0.402790 0.521189 -0.122371
C94   C     C_3   0.289387 0.504184 0.488391 -0.134146
C95   C     C_3   0.190330 0.902810 0.521185 -0.122391
C96   C     C_3   0.789359 0.004222 0.488402 -0.134172
Cr1   Cr    Cr6+3 0.765830 0.160660 0.268180 1.023002
Cr2   Cr    Cr6+3 0.234170 0.160660 0.731820 1.047995
Cr3   Cr    Cr6+3 0.265830 0.660660 0.268180 1.023064
Cr4   Cr    Cr6+3 0.734170 0.660660 0.731820 1.047905
Cr5   Cr    Cr6+3 0.612110 0.009150 0.248770 1.016543
Cr6   Cr    Cr6+3 0.387890 0.009150 0.751230 1.026759
Cr7   Cr    Cr6+3 0.112110 0.509150 0.248770 1.016477
Cr8   Cr    Cr6+3 0.887890 0.509150 0.751230 1.026824
Cr9   Cr    Cr6+3 0.615930 0.324050 0.248450 1.020855
Cr10  Cr    Cr6+3 0.384070 0.324050 0.751550 1.021272
Cr11  Cr    Cr6+3 0.115930 0.824050 0.248450 1.020809
Cr12  Cr    Cr6+3 0.884070 0.824050 0.751550 1.021297
H1    H     H_    0.700134 0.212538 0.466010 0.109888
H2    H     H_    0.360583 0.331739 0.512356 0.115938
H3    H     H_    0.200126 0.712556 0.466002 0.109865
H4    H     H_    0.860613 0.831856 0.512378 0.115930
H5    H     H_    0.639685 0.393661 0.540566 0.135482
H6    H     H_    0.326338 0.577212 0.476621 0.120454
H7    H     H_    0.139685 0.893693 0.540559 0.135498
H8    H     H_    0.826291 0.077285 0.476640 0.120421
H9    H     H_    0.677793 0.568153 0.439421 0.149860
H10   H     H_    0.240702 0.580143 0.585609 0.131570
H11   H     H_    0.177824 0.068187 0.439423 0.149570
H12   H     H_    0.740628 0.080108 0.585607 0.131574
H13   H     H_    0.304910 0.113616 0.532311 0.094425
H14   H     H_    0.627685 0.002819 0.486583 0.096336
H15   H     H_    0.804893 0.613627 0.532301 0.094471
H16   H     H_    0.127722 0.502971 0.486608 0.096411
H17   H     H_    0.827875 0.251115 0.557119 0.109501
H18   H     H_    0.247787 0.248465 0.414651 0.131215
H19   H     H_    0.327855 0.751084 0.557118 0.109436
H20   H     H_    0.747856 0.748475 0.414652 0.131267
H21   H     H_    0.623366 0.164164 0.008632 0.100768
H22   H     H_    0.371816 0.181508 0.990961 0.113565
H23   H     H_    0.123368 0.664119 0.008631 0.100769
H24   H     H_    0.871820 0.681558 0.990962 0.113565
H25   H     H_    0.541654 0.353775 0.942789 0.145421
H26   H     H_    0.464636 0.362430 0.055328 0.146370
H27   H     H_    0.041679 0.853749 0.942780 0.145421
H28   H     H_    0.964661 0.862457 0.055320 0.146367
H29   H     H_    0.455163 0.992818 0.059475 0.138968
H30   H     H_    0.529778 0.984223 0.943173 0.137918
H31   H     H_    0.955145 0.492845 0.059483 0.138966
H32   H     H_    0.029759 0.484198 0.943180 0.137921
O1    O     O_R   0.783230 0.287800 0.346510 -0.510093
O2    O     O_R   0.216770 0.287800 0.653490 -0.452594
O3    O     O_R   0.283230 0.787800 0.346510 -0.510020
O4    O     O_R   0.716770 0.787800 0.653490 -0.452716
O5    O     O_R   0.554500 0.081650 0.170370 -0.507529
O6    O     O_R   0.445500 0.081650 0.829630 -0.490179
O7    O     O_R   0.054500 0.581650 0.170370 -0.507527
O8    O     O_R   0.945500 0.581650 0.829630 -0.490176
O9    O     O_R   0.545430 0.285140 0.163100 -0.509499
O10   O     O_R   0.454570 0.285140 0.836900 -0.509390
O11   O     O_R   0.045430 0.785140 0.163100 -0.509501
O12   O     O_R   0.954570 0.785140 0.836900 -0.509386
O13   O     O_R   0.677850 0.374730 0.185500 -0.488848
O14   O     O_R   0.322150 0.374730 0.814500 -0.505230
O15   O     O_R   0.177850 0.874730 0.185500 -0.488856
O16   O     O_R   0.822150 0.874730 0.814500 -0.505224
O17   O     O_3   0.664630 0.164620 0.255130 -0.327254
O18   O     O_3   0.335370 0.164620 0.744870 -0.311123
O19   O     O_3   0.164630 0.664620 0.255130 -0.327250
O20   O     O_3   0.835370 0.664620 0.744870 -0.311127
O21   O     O_R   0.760130 0.037060 0.338610 -0.487772
O22   O     O_R   0.239870 0.037060 0.661390 -0.494481
O23   O     O_R   0.260130 0.537060 0.338610 -0.487741
O24   O     O_R   0.739870 0.537060 0.661390 -0.494460
O25   O     O_R   0.666620 0.921370 0.332440 -0.512571
O26   O     O_R   0.333380 0.921370 0.667560 -0.524090
O27   O     O_R   0.166620 0.421370 0.332440 -0.512661
O28   O     O_R   0.833380 0.421370 0.667560 -0.524068
O29   O     O_R   0.557170 0.082420 0.312350 -0.506480
O30   O     O_R   0.442830 0.082420 0.687650 -0.473971
O31   O     O_R   0.057170 0.582420 0.312350 -0.506489
O32   O     O_R   0.942830 0.582420 0.687650 -0.473924
O33   O     O_R   0.548310 0.285980 0.316250 -0.500829
O34   O     O_R   0.451690 0.285980 0.683750 -0.501144
O35   O     O_R   0.048310 0.785980 0.316250 -0.500842
O36   O     O_R   0.951690 0.785980 0.683750 -0.501139
O37   O     O_R   0.680520 0.375500 0.327470 -0.504595
O38   O     O_R   0.319480 0.375500 0.672530 -0.520748
O39   O     O_R   0.180520 0.875500 0.327470 -0.504618
O40   O     O_R   0.819480 0.875500 0.672530 -0.520740
O41   O     O_R   0.780350 0.286970 0.193350 -0.495004
O42   O     O_R   0.219650 0.286970 0.806650 -0.500399
O43   O     O_R   0.280350 0.786970 0.193350 -0.494994
O44   O     O_R   0.719650 0.786970 0.806650 -0.500416
O45   O     O_R   0.757460 0.036290 0.196640 -0.487112
O46   O     O_R   0.242540 0.036290 0.803360 -0.495743
O47   O     O_R   0.257460 0.536290 0.196640 -0.487108
O48   O     O_R   0.742540 0.536290 0.803360 -0.495743
O49   O     O_R   0.663740 0.920540 0.179290 -0.487292
O50   O     O_R   0.336260 0.920540 0.820710 -0.512294
O51   O     O_R   0.163740 0.420540 0.179290 -0.487299
O52   O     O_R   0.836260 0.420540 0.820710 -0.512288
O53   O     O_3   0.876907 0.443881 0.452177 -0.556917
C97   C     C_3   0.917550 0.337682 0.458844 -0.111504
H33   H     H_    0.888980 0.254407 0.436777 0.133574
H34   H     H_    0.938039 0.322068 0.514057 0.112041
H35   H     H_    0.961532 0.352760 0.429196 0.132171
O54   O     O_3   0.155570 0.229751 0.526482 -0.551325
C98   C     C_3   0.090246 0.241913 0.488056 -0.136999
H36   H     H_    0.093417 0.254676 0.431781 0.118770
H37   H     H_    0.062818 0.319574 0.508837 0.124920
H38   H     H_    0.059914 0.156158 0.494061 0.132374
O55   O     O_3   0.376918 0.943869 0.452185 -0.556874
C99   C     C_3   0.417610 0.837739 0.458961 -0.111577
H39   H     H_    0.389120 0.754450 0.436811 0.133605
H40   H     H_    0.437965 0.822127 0.514205 0.111893
H41   H     H_    0.461691 0.852898 0.429458 0.132107
O56   O     O_3   0.655668 0.729564 0.526465 -0.551532
C100  C     C_3   0.590185 0.742042 0.488419 -0.136981
H42   H     H_    0.593051 0.755366 0.432123 0.118690
H43   H     H_    0.562895 0.819473 0.509620 0.125147
H44   H     H_    0.559899 0.656183 0.494329 0.132356

loop_
_geom_bond_atom_site_label_1
_geom_bond_atom_site_label_2
_ccdc_geom_bond_type
C58   C62   S    
C97   H34   S    
O55   C99   S    
C67   C83   S    
Cr10  O10   S    
C49   H29   S    
C17   C29   S    
C14   C18   S    
C7    C27   S    
C35   C39   S    
C35   C36   S    
C8    C96   S    
C81   O41   A    
C19   C31   S    
Cr6   O18   S    
Cr3   O47   S    
C94   H6    S    
C3    O27   A    
C38   C49   S    
C10   C22   S    
C15   C19   S    
Cr5   O5    S    
Cr11  O35   S    
C37   C41   S    
C33   C42   S    
C38   H22   S    
Cr3   O3    S    
C16   C20   S    
Cr4   O48   S    
C9    C69   S    
Cr1   O45   S    
C38   C42   S    
Cr3   O19   S    
C16   H12   S    
C15   C95   S    
C73   O49   A    
C11   C71   S    
C13   H9    S    
C97   H35   S    
C83   O15   A    
C4    O24   A    
C34   H26   S    
C69   O1    A    
Cr8   O52   S    
C100  H44   S    
C81   O13   A    
Cr1   O41   S    
Cr12  O40   S    
C80   O12   A    
C12   C24   S    
C26   H18   S    
C71   O39   A    
C49   C50   S    
C9    C13   S    
C36   C40   S    
C25   H17   S    
C59   C67   T    
Cr12  O12   S    
C55   C74   S    
C11   C15   S    
C17   H15   S    
Cr9   O17   S    
Cr2   O18   S    
C15   H11   S    
O56   C100  S    
Cr10  O14   S    
C55   C63   T    
C98   H38   S    
C46   O34   A    
Cr5   O29   S    
O54   C98   S    
C18   C30   S    
C23   C27   S    
C2    O26   A    
C40   C44   S    
C20   H14   S    
C4    C29   S    
C76   O48   A    
C3    O23   A    
Cr8   O32   S    
C46   C85   S    
Cr11  O11   S    
C44   C52   S    
C39   C52   S    
C40   H24   S    
Cr5   O17   S    
C98   H36   S    
Cr6   O26   S    
Cr9   O33   S    
C87   C92   T    
Cr2   O2    S    
Cr7   O31   S    
C6    H2    S    
C2    O22   A    
C34   C41   S    
C53   C61   T    
Cr8   O20   S    
C36   H28   S    
C28   C32   S    
C41   C49   S    
C73   O45   A    
Cr2   O22   S    
C69   O37   A    
C58   C66   T    
C7    C11   S    
C74   O46   A    
C25   C29   S    
C70   O2    A    
C16   C96   S    
C27   C31   S    
C51   C52   S    
C68   C84   S    
C12   C16   S    
C84   O44   A    
Cr10  O38   S    
C100  H42   S    
C10   C14   S    
C35   H27   S    
C91   C92   S    
C29   C93   S    
C19   C23   S    
C70   O38   A    
C39   C43   S    
C54   C62   T    
C6    C94   S    
Cr9   O13   S    
Cr10  O18   S    
C24   O56   S    
C1    C32   S    
C33   C37   S    
C46   O30   A    
C82   O14   A    
C23   O55   S    
C2    C31   S    
Cr1   O17   S    
Cr2   O42   S    
C3    C30   S    
C75   O51   A    
C5    C9    S    
C76   O52   A    
C45   O33   A    
Cr8   O28   S    
Cr4   O20   S    
C47   O31   A    
Cr12  O16   S    
C88   C91   T    
C44   C80   S    
C8    C12   S    
Cr11  O19   S    
C74   O50   A    
C56   C64   T    
C33   C34   S    
Cr10  O34   S    
C48   C87   S    
C83   O43   A    
Cr4   O24   S    
C78   O10   A    
C93   H5    S    
Cr7   O27   S    
Cr5   O25   S    
C35   C44   S    
Cr1   O1    S    
C42   C50   S    
C79   O7    A    
C10   C70   S    
C14   C94   S    
Cr9   O37   S    
C32   C96   S    
C99   H40   S    
C42   C78   S    
Cr1   O21   S    
Cr4   O4    S    
C8    C28   S    
C5    C25   S    
C59   C63   S    
C53   C76   S    
Cr7   O51   S    
C72   O40   A    
C77   O9    A    
C9    C21   S    
C77   O5    A    
C7    C95   S    
C48   O32   A    
C14   H10   S    
C20   C32   S    
C79   O11   A    
C72   O4    A    
C21   C25   S    
C19   H13   S    
C56   C73   S    
Cr11  O39   S    
C1    O25   A    
C34   C38   S    
Cr3   O43   S    
C22   O54   S    
C33   H25   S    
C75   O47   A    
C24   C28   S    
C57   C65   T    
C86   C89   T    
C45   O29   A    
C6    C10   S    
C5    C93   S    
C85   C90   T    
C50   H30   S    
C57   C61   S    
Cr12  O20   S    
C7    H3    S    
C40   C51   S    
Cr9   O9    S    
C82   O42   A    
Cr5   O49   S    
C13   C17   S    
C60   C64   S    
C47   C88   S    
C18   C22   S    
C45   C86   S    
C95   H7    S    
Cr8   O8    S    
Cr2   O46   S    
Cr6   O6    S    
C66   C82   S    
C41   C77   S    
C37   C50   S    
C84   O16   A    
Cr7   O19   S    
C6    C26   S    
C71   O3    A    
C39   H23   S    
Cr6   O30   S    
C43   C51   S    
C31   C95   S    
Cr12  O36   S    
C11   C23   S    
Cr6   O50   S    
C8    H4    S    
C37   H21   S    
C97   H33   S    
C99   H41   S    
C12   C72   S    
Cr4   O44   S    
C17   C21   S    
C27   H19   S    
Cr3   O23   S    
C78   O6    A    
C47   O35   A    
C1    O21   A    
C54   C75   S    
C52   H32   S    
C4    O28   A    
C80   O8    A    
C99   H39   S    
C60   C68   T    
C30   C94   S    
O53   C97   S    
C22   C26   S    
C13   C93   S    
C98   H37   S    
C100  H43   S    
C65   C81   S    
C96   H8    S    
C36   C43   S    
C5    H1    S    
C21   O53   S    
C89   C90   S    
C43   C79   S    
C20   C24   S    
Cr11  O15   S    
C28   H20   S    
C18   H16   S    
Cr7   O7    S    
C48   O36   A    
C26   C30   S    
C51   H31   S    
