data_mof_unit_22653.cif
_audit_creation_date              2012-10-26T18:54:56-0400
_audit_creation_method            fapswitch 2.2
_symmetry_space_group_name_H-M    P1
_symmetry_Int_Tables_number       1
_space_group_crystal_system       triclinic
_cell_length_a                    10.833182
_cell_length_b                    9.532484
_cell_length_c                    10.861823
_cell_angle_alpha                 90.000054
_cell_angle_beta                  90.456643
_cell_angle_gamma                 90.00001
_cell_volume                      1121.63370828

loop_
_atom_site_label
_atom_site_type_symbol
_atom_type_description
_atom_site_fract_x
_atom_site_fract_y
_atom_site_fract_z
_atom_type_partial_charge
C1    C     C_R   0.262104 0.499962 0.499908 0.549374
C2    C     C_R   0.500139 0.621332 0.938019 0.020869
C3    C     C_R   0.499881 0.498242 0.130065 0.010561
C4    C     C_R   0.500113 0.498242 0.869935 0.010562
C5    C     C_R   0.500022 0.370297 0.064551 -0.160774
C6    C     C_R   0.499954 0.370297 0.935448 -0.160776
C7    C     C_3   0.500199 0.777309 0.929082 -0.269310
C8    C     C_3   0.499836 0.777309 0.070919 -0.269307
C9    C     C_R   0.063847 0.372526 0.500037 -0.138055
C10   C     C_R   0.936153 0.372526 0.499978 -0.138054
C11   C     C_R   0.871764 0.499989 0.500073 0.021557
C12   C     C_R   0.737896 0.499962 0.500093 0.549374
C13   C     C_R   0.128236 0.499989 0.499928 0.021558
C14   C     C_R   0.936141 0.627478 0.500077 -0.141439
C15   C     C_R   0.063859 0.627478 0.499910 -0.141438
C16   C     C_R   0.423327 0.074106 0.422446 0.191417
C17   C     C_R   0.576673 0.074107 0.577553 0.191415
C18   C     C_R   0.423742 0.925110 0.422809 -0.002220
C19   C     C_R   0.576258 0.925110 0.577191 -0.002219
C20   C     C_R   0.499878 0.499882 0.262663 0.552391
C21   C     C_R   0.500121 0.499882 0.737337 0.552391
C22   C     C_R   0.499868 0.621332 0.061982 0.020867
Cu1   Cu    Cu3+1 0.500000 0.640660 0.500000 0.929681
Cu2   Cu    Cu3+1 0.500000 0.359340 0.500000 1.002470
H1    H     H_    0.500263 0.270545 0.112227 0.136463
H2    H     H_    0.111881 0.727157 0.499810 0.125842
H3    H     H_    0.362778 0.868298 0.361126 0.109712
H4    H     H_    0.637222 0.868299 0.638874 0.109712
H5    H     H_    0.362083 0.115696 0.250728 0.192636
H6    H     H_    0.251851 0.116198 0.359658 0.193868
H7    H     H_    0.637909 0.115703 0.749273 0.192644
H8    H     H_    0.748147 0.116196 0.640347 0.193866
H9    H     H_    0.499700 0.270545 0.887772 0.136460
H10   H     H_    0.587066 0.818563 0.889048 0.128027
H11   H     H_    0.412977 0.818583 0.110953 0.128027
H12   H     H_    0.413570 0.818598 0.887216 0.141900
H13   H     H_    0.586473 0.818577 0.112784 0.141901
H14   H     H_    0.111819 0.272853 0.500221 0.129519
H15   H     H_    0.888181 0.272853 0.499805 0.129521
H16   H     H_    0.888118 0.727157 0.500167 0.125843
N1    N     N_R   0.500000 0.852070 0.500000 -0.251799
N2    N     N_R   0.500000 0.147940 0.500000 -0.164327
N3    N     N_3   0.342183 0.147475 0.340530 -0.566317
N4    N     N_3   0.657816 0.147476 0.659471 -0.566320
O1    O     O_R   0.319640 0.618740 0.499990 -0.515585
O2    O     O_R   0.680360 0.618740 0.500010 -0.515586
O3    O     O_R   0.319620 0.381170 0.499990 -0.479786
O4    O     O_R   0.680380 0.381170 0.500010 -0.479784
O5    O     O_R   0.499990 0.618810 0.319660 -0.507763
O6    O     O_R   0.500010 0.618810 0.680340 -0.507762
O7    O     O_R   0.499960 0.381240 0.319650 -0.480901
O8    O     O_R   0.500040 0.381240 0.680350 -0.480903

loop_
_geom_bond_atom_site_label_1
_geom_bond_atom_site_label_2
_ccdc_geom_bond_type
C2    C22   A    
C8    C22   S    
C11   C12   S    
Cu2   O8    S    
C20   O5    A    
Cu1   O1    S    
Cu2   N2    S    
C9    C10   A    
C3    C22   A    
C2    C4    A    
C2    C7    S    
Cu1   N1    S    
C6    H9    S    
C12   O4    A    
H7    N4    S    
Cu2   O7    S    
H8    N4    S    
C17   N4    S    
C7    C8    S    
Cu1   O2    S    
H5    N3    S    
C4    C21   S    
C16   N3    S    
C1    O1    A    
C5    H1    S    
C12   O2    A    
C21   O6    A    
C17   C19   A    
C20   O7    A    
C10   C11   A    
C13   C15   A    
C19   H4    S    
C5    C6    A    
C11   C14   A    
H6    N3    S    
Cu1   O5    S    
C4    C6    A    
C1    C13   S    
C8    H13   S    
Cu1   Cu2   S    
C14   H16   S    
Cu2   O4    S    
C16   N2    A    
C3    C20   S    
C7    H10   S    
C16   C18   A    
C7    H12   S    
C18   N1    A    
C9    C13   A    
C14   C15   A    
C9    H14   S    
C15   H2    S    
C3    C5    A    
C17   N2    A    
Cu2   O3    S    
C21   O8    A    
C1    O3    A    
C18   H3    S    
C19   N1    A    
C10   H15   S    
Cu1   O6    S    
C8    H11   S    
