data_mof_unit_42553.cif
_audit_creation_date              2012-12-10T20:42:41-0500
_audit_creation_method            fapswitch 2.2
_symmetry_space_group_name_H-M    P1
_symmetry_Int_Tables_number       1
_space_group_crystal_system       triclinic
_cell_length_a                    8.912281
_cell_length_b                    10.678894
_cell_length_c                    9.876702
_cell_angle_alpha                 89.966273
_cell_angle_beta                  90.014829
_cell_angle_gamma                 90.059535
_cell_volume                      939.997661278

loop_
_atom_site_label
_atom_site_type_symbol
_atom_type_description
_atom_site_fract_x
_atom_site_fract_y
_atom_site_fract_z
_atom_type_partial_charge
C1    C     C_R   0.504432 0.259966 0.500070 0.871657
C2    C     C_R   0.429147 0.406791 0.928786 0.214136
C3    C     C_3   0.266092 0.375745 0.923430 -0.510465
C4    C     C_R   0.218734 0.499893 0.499975 0.938328
C5    C     C_3   0.266491 0.375215 0.077154 -0.502899
C6    C     C_R   0.504729 0.740011 0.499976 0.871863
C7    C     C_R   0.781284 0.500022 0.500030 0.930242
C8    C     C_1   0.065411 0.499869 0.499988 -0.213841
C9    C     C_1   0.934621 0.499922 0.500031 -0.201328
C10   C     C_R   0.526279 0.063761 0.623043 0.141438
C11   C     C_R   0.528123 0.128567 0.500739 -0.101628
C12   C     C_R   0.559030 0.935356 0.379653 -0.227748
C13   C     C_R   0.558738 0.064876 0.379679 -0.227813
C14   C     C_R   0.528651 0.871403 0.500680 -0.100213
C15   C     C_R   0.526670 0.936022 0.623032 0.125823
C16   C     C_3   0.418256 0.928470 0.738276 -0.473961
C17   C     C_3   0.417551 0.070409 0.738070 -0.492485
C18   C     C_R   0.429308 0.406697 0.071241 0.213000
C19   C     C_R   0.580717 0.585715 0.071895 -0.127823
C20   C     C_R   0.580708 0.585741 0.927992 -0.130846
H1    H     H_    0.572035 0.113973 0.284401 0.171405
H2    H     H_    0.197520 0.452599 0.879434 0.225796
H3    H     H_    0.246621 0.280847 0.121236 0.201118
H4    H     H_    0.468760 0.111754 0.830481 0.203975
H5    H     H_    0.245121 0.281814 0.879046 0.197399
H6    H     H_    0.197830 0.451562 0.121923 0.225614
H7    H     H_    0.572501 0.886422 0.284373 0.166846
H8    H     H_    0.308711 0.886644 0.708648 0.205280
H9    H     H_    0.470214 0.887705 0.830660 0.201719
H10   H     H_    0.307675 0.111091 0.707891 0.198873
H11   H     H_    0.643585 0.656439 0.126074 0.142727
H12   H     H_    0.643538 0.656498 0.873761 0.145986
N1    N     N_R   0.499010 0.499140 0.142800 -0.105500
N2    N     N_R   0.499010 0.499180 0.857150 -0.104718
O1    O     O_R   0.500020 0.316790 0.614690 -0.616447
O2    O     O_R   0.500000 0.316760 0.385350 -0.624466
O3    O     O_R   0.285350 0.500020 0.614650 -0.617902
O4    O     O_R   0.285340 0.499980 0.385310 -0.614562
O5    O     O_R   0.500000 0.683240 0.614650 -0.621833
O6    O     O_R   0.499980 0.683210 0.385310 -0.626619
O7    O     O_R   0.714660 0.500020 0.614690 -0.616256
O8    O     O_R   0.714650 0.499980 0.385350 -0.616631
Zn1   Zn    Zn3+2 0.500010 0.500020 0.653130 0.941509
Zn2   Zn    Zn3+2 0.499990 0.499980 0.346870 0.941252

loop_
_geom_bond_atom_site_label_1
_geom_bond_atom_site_label_2
_ccdc_geom_bond_type
O3    Zn1   S    
C16   H8    S    
C2    C18   A    
O1    Zn1   S    
C19   H11   S    
C19   C20   A    
C5    H3    S    
O6    Zn2   S    
C4    C8    S    
C20   N2    A    
C2    N2    A    
C2    C3    S    
C13   H1    S    
C4    O3    A    
O4    Zn2   S    
C17   H10   S    
O7    Zn1   S    
O8    Zn2   S    
C11   C13   A    
C12   C14   A    
C10   C15   A    
C7    O7    A    
C19   N1    A    
C18   N1    A    
C6    O6    A    
O2    Zn2   S    
C17   H4    S    
C6    C14   S    
C10   C11   A    
C10   C17   S    
C5    H6    S    
C3    H5    S    
C12   C13   A    
C1    O1    A    
C20   H12   S    
C7    O8    A    
C7    C9    S    
C6    O5    A    
C16   C17   S    
C3    H2    S    
O5    Zn1   S    
C5    C18   S    
C12   H7    S    
C16   H9    S    
C14   C15   A    
N1    Zn2   S    
N2    Zn1   S    
C15   C16   S    
C1    O2    A    
C4    O4    A    
C8    C9    T    
C3    C5    S    
C1    C11   S    
