data_mof_unit_5994.cif
_audit_creation_date              2012-10-26T21:07:46-0400
_audit_creation_method            fapswitch 2.2
_symmetry_space_group_name_H-M    P1
_symmetry_Int_Tables_number       1
_space_group_crystal_system       triclinic
_cell_length_a                    11.374882
_cell_length_b                    9.093592
_cell_length_c                    7.792031
_cell_angle_alpha                 90.000204
_cell_angle_beta                  100.96857
_cell_angle_gamma                 89.99961
_cell_volume                      791.272101242

loop_
_atom_site_label
_atom_site_type_symbol
_atom_type_description
_atom_site_fract_x
_atom_site_fract_y
_atom_site_fract_z
_atom_type_partial_charge
C1    C     C_R   0.500000 0.220058 0.500000 0.553582
C2    C     C_1   0.500000 0.934601 0.500000 -0.061114
C3    C     C_3   0.878415 0.478580 0.275697 -0.209783
C4    C     C_3   0.868581 0.642933 0.227159 -0.291952
C5    C     C_3   0.815114 0.667584 0.035493 -0.423572
C6    C     C_3   0.121588 0.478589 0.724310 -0.209771
C7    C     C_3   0.131405 0.642945 0.772843 -0.291962
C8    C     C_3   0.184883 0.667607 0.964500 -0.423567
C9    C     C_R   0.500000 0.779922 0.500000 0.553417
C10   C     C_R   0.264826 0.493169 0.433959 0.542213
C11   C     C_R   0.735175 0.493173 0.566042 0.542212
C12   C     C_2   0.136149 0.474687 0.402990 -0.118768
C13   C     C_2   0.863854 0.474703 0.597016 -0.118775
C14   C     C_2   0.067118 0.463788 0.528252 -0.015291
C15   C     C_2   0.932886 0.463789 0.471756 -0.015293
C16   C     C_1   0.500000 0.065366 0.500000 -0.058167
Cu1   Cu    Cu3+1 0.500010 0.500000 0.669080 0.975762
Cu2   Cu    Cu3+1 0.499990 0.500000 0.330920 0.975770
H1    H     H_    0.875137 0.620839 0.953341 0.143521
H2    H     H_    0.194167 0.787372 0.991408 0.139210
H3    H     H_    0.187989 0.700720 0.692611 0.184493
H4    H     H_    0.041071 0.694216 0.744393 0.148282
H5    H     H_    0.071760 0.417601 0.809764 0.103954
H6    H     H_    0.206543 0.418469 0.764769 0.182248
H7    H     H_    0.899820 0.471330 0.734074 0.079158
H8    H     H_    0.100183 0.471286 0.265937 0.079145
H9    H     H_    0.725409 0.616110 0.002958 0.204737
H10   H     H_    0.805702 0.787343 0.008618 0.139241
H11   H     H_    0.811977 0.700696 0.307378 0.184503
H12   H     H_    0.958908 0.694226 0.255628 0.148291
H13   H     H_    0.928244 0.417600 0.190238 0.103965
H14   H     H_    0.793465 0.418449 0.235248 0.182229
H15   H     H_    0.124930 0.620725 0.046664 0.143564
H16   H     H_    0.274647 0.616278 0.996987 0.204715
N1    N     N_1   0.499980 0.500000 0.076820 -0.112052
N2    N     N_1   0.500020 0.500000 0.923180 -0.112061
O1    O     O_R   0.500010 0.288400 0.642760 -0.495772
O2    O     O_R   0.499990 0.711600 0.357240 -0.497899
O3    O     O_R   0.499990 0.288400 0.357240 -0.495772
O4    O     O_R   0.500010 0.711600 0.642760 -0.497896
O5    O     O_R   0.320690 0.500000 0.590310 -0.513948
O6    O     O_R   0.679310 0.500000 0.409690 -0.513949
O7    O     O_R   0.320680 0.500000 0.304730 -0.518413
O8    O     O_R   0.679320 0.500000 0.695270 -0.518433

loop_
_geom_bond_atom_site_label_1
_geom_bond_atom_site_label_2
_ccdc_geom_bond_type
Cu2   O3    S    
C6    C7    S    
C5    H1    S    
Cu1   N2    S    
C6    C14   S    
C5    H10   S    
C2    C16   T    
Cu2   N1    S    
N1    N2    T    
C1    O1    A    
C6    H6    S    
C13   C15   D    
Cu1   Cu2   S    
Cu2   O2    S    
Cu1   O8    S    
C11   O8    A    
C1    C16   S    
Cu1   O1    S    
Cu2   O7    S    
C10   O5    A    
C3    H13   S    
C11   C13   S    
C13   H7    S    
C8    H2    S    
C10   C12   S    
C6    H5    S    
C9    O2    A    
C12   C14   D    
C8    H15   S    
Cu2   O6    S    
C3    H14   S    
Cu1   O5    S    
C1    O3    A    
C3    C4    S    
C7    H4    S    
C7    C8    S    
C3    C15   S    
C11   O6    A    
C7    H3    S    
C14   C15   S    
C8    H16   S    
C10   O7    A    
C5    H9    S    
C2    C9    S    
C9    O4    A    
C4    H12   S    
C4    H11   S    
C12   H8    S    
C4    C5    S    
Cu1   O4    S    
