data_mof_unit_32263.cif
_audit_creation_date              2012-12-10T19:46:22-0500
_audit_creation_method            fapswitch 2.2
_symmetry_space_group_name_H-M    P1
_symmetry_Int_Tables_number       1
_space_group_crystal_system       triclinic
_cell_length_a                    10.941732
_cell_length_b                    10.901282
_cell_length_c                    10.453765
_cell_angle_alpha                 92.242619
_cell_angle_beta                  91.223238
_cell_angle_gamma                 89.599581
_cell_volume                      1245.65105088

loop_
_atom_site_label
_atom_site_type_symbol
_atom_type_description
_atom_site_fract_x
_atom_site_fract_y
_atom_site_fract_z
_atom_type_partial_charge
C1    C     C_R   0.500679 0.261464 0.497208 0.793281
C2    C     C_R   0.503752 0.738585 0.502742 0.788301
C3    C     C_R   0.871858 0.500469 0.503944 -0.107419
C4    C     C_R   0.127648 0.504809 0.497880 -0.103871
C5    C     C_R   0.941770 0.466324 0.612105 -0.006973
C6    C     C_R   0.057610 0.539273 0.390060 0.008878
C7    C     C_R   0.297938 0.112976 0.075080 -0.153421
C8    C     C_R   0.739598 0.910905 0.914174 -0.124636
C9    C     C_R   0.323006 0.085157 0.202587 -0.202026
C10   C     C_R   0.707248 0.930784 0.786365 -0.172927
C11   C     C_R   0.440748 0.102363 0.255858 0.125755
C12   C     C_R   0.590131 0.899096 0.738182 0.103741
C13   C     C_R   0.533693 0.144325 0.178628 -0.071147
C14   C     C_R   0.506682 0.848500 0.820522 -0.073366
C15   C     C_R   0.508347 0.172489 0.051215 -0.123796
C16   C     C_R   0.540498 0.825245 0.947277 -0.128441
C17   C     C_R   0.390429 0.157272 0.999666 -0.109645
C18   C     C_R   0.656899 0.856596 0.994051 -0.091044
C19   C     C_R   0.470116 0.928388 0.392862 -0.241675
C20   C     C_R   0.544314 0.072334 0.605034 -0.236511
C21   C     C_R   0.505929 0.872362 0.506173 -0.084945
C22   C     C_R   0.505987 0.127989 0.492714 -0.085660
C23   C     C_R   0.261404 0.502501 0.498920 0.805959
C24   C     C_R   0.738472 0.498788 0.501396 0.798865
C25   C     C_R   0.546680 0.945627 0.613615 -0.007435
C26   C     C_R   0.471821 0.054783 0.383335 -0.009624
C27   C     C_1   0.499986 0.499932 0.072017 0.097558
C28   C     C_1   0.500000 0.499866 0.927983 0.109118
C29   C     C_R   0.204902 0.744183 0.159426 -0.256748
C30   C     C_R   0.858879 0.253858 0.870555 -0.277640
C31   C     C_R   0.159103 0.698493 0.270995 -0.193508
C32   C     C_R   0.891024 0.296948 0.752217 -0.205416
C33   C     C_R   0.113388 0.578712 0.271684 0.110976
C34   C     C_R   0.887968 0.422971 0.730601 0.073834
C35   C     C_R   0.117738 0.501568 0.159230 0.274753
C36   C     C_R   0.848558 0.506487 0.828381 0.281447
C37   C     C_R   0.165308 0.549294 0.047821 -0.212191
C38   C     C_R   0.817033 0.462263 0.947339 -0.140420
C39   C     C_R   0.206822 0.670698 0.047029 0.061827
C40   C     C_R   0.823738 0.336043 0.969473 0.022557
C41   C     C_R   0.930808 0.537288 0.394395 -0.172435
C42   C     C_R   0.068636 0.469010 0.607660 -0.218909
Cu1   Cu    Cu3+1 0.500000 0.500000 0.625300 1.008948
Cu2   Cu    Cu3+1 0.500000 0.500000 0.374700 1.010256
H1    H     H_    0.625966 0.151654 0.216885 0.132801
H2    H     H_    0.414644 0.831441 0.786133 0.158680
H3    H     H_    0.580216 0.203952 0.991399 0.126577
H4    H     H_    0.475933 0.786107 0.010715 0.124482
H5    H     H_    0.441454 0.873110 0.309091 0.164345
H6    H     H_    0.572900 0.128364 0.688349 0.165602
H7    H     H_    0.237009 0.837799 0.160147 0.132707
H8    H     H_    0.865172 0.156453 0.886176 0.131349
H9    H     H_    0.156642 0.757647 0.356681 0.135868
H10   H     H_    0.922320 0.232276 0.678473 0.143301
H11   H     H_    0.165891 0.492836 0.960167 0.159192
H12   H     H_    0.789799 0.526893 0.022996 0.168633
H13   H     H_    0.878156 0.565211 0.311260 0.179931
H14   H     H_    0.121493 0.441108 0.690696 0.173244
H15   H     H_    0.371209 0.178157 0.900837 0.129199
H16   H     H_    0.682211 0.840819 0.092739 0.121286
H17   H     H_    0.207123 0.098922 0.034319 0.121757
H18   H     H_    0.828533 0.938494 0.951783 0.109107
H19   H     H_    0.251366 0.048157 0.259388 0.121646
H20   H     H_    0.771593 0.975370 0.726343 0.122522
N1    N     N_1   0.500010 0.499990 0.186410 -0.121355
N2    N     N_1   0.499990 0.500010 0.813590 -0.117189
O1    O     O_R   0.499990 0.319650 0.605810 -0.592650
O2    O     O_R   0.500010 0.680350 0.394190 -0.590081
O3    O     O_R   0.499990 0.319640 0.394190 -0.565218
O4    O     O_R   0.500010 0.680360 0.605810 -0.564047
O5    O     O_R   0.319640 0.500010 0.605810 -0.539729
O6    O     O_R   0.680360 0.499990 0.394190 -0.533691
O7    O     O_R   0.319650 0.500010 0.394190 -0.583505
O8    O     O_R   0.680350 0.499990 0.605810 -0.595531
C43   C     C_2   0.245350 0.724657 0.927795 0.254685
H21   H     H_    0.256452 0.823323 0.924830 0.061979
O9    O     O_2   0.263627 0.660545 0.831662 -0.555556
C44   C     C_2   0.800547 0.288778 0.096836 0.336735
H22   H     H_    0.813854 0.191885 0.113449 0.044435
O10   O     O_2   0.767765 0.357035 0.184922 -0.540524
N3    N     N_2   0.067038 0.380725 0.151847 -0.420258
H23   H     H_    0.066444 0.339763 0.061174 0.243443
C45   C     C_3   0.102309 0.295767 0.249314 -0.654496
H24   H     H_    0.086161 0.200289 0.212475 0.195643
H25   H     H_    0.043806 0.308122 0.333913 0.245775
H26   H     H_    0.200349 0.306310 0.276910 0.243473
N4    N     N_2   0.843196 0.635022 0.809520 -0.419154
H27   H     H_    0.817254 0.658439 0.718360 0.267454
C46   C     C_3   0.951759 0.699194 0.853626 -0.710132
H28   H     H_    0.947407 0.796094 0.825400 0.219055
H29   H     H_    0.032840 0.656498 0.808149 0.265572
H30   H     H_    0.960230 0.697091 0.959519 0.238412

loop_
_geom_bond_atom_site_label_1
_geom_bond_atom_site_label_2
_ccdc_geom_bond_type
C38   C40   A    
N4    H27   S    
C15   H3    S    
C43   H21   S    
C42   H14   S    
N3    H23   S    
C35   N3    S    
C14   H2    S    
C19   C21   A    
C2    O2    A    
C44   O10   D    
C20   C25   A    
C7    C9    A    
C19   C26   A    
C7    H17   S    
C20   H6    S    
C1    O1    A    
C7    C17   A    
C6    C41   A    
C31   C33   A    
C14   C16   A    
C39   C43   S    
C46   H29   S    
Cu1   O8    S    
C1    C22   S    
C16   H4    S    
Cu2   N1    S    
C23   O7    A    
C32   H10   S    
N3    C45   S    
C36   N4    S    
C30   C32   A    
C23   O5    A    
C4    C6    A    
C4    C23   S    
C44   H22   S    
C11   C26   S    
C8    C18   A    
C32   C34   A    
C28   N2    T    
Cu1   Cu2   S    
Cu1   O1    S    
C27   N1    T    
C43   O9    D    
C19   H5    S    
C45   H24   S    
C5    C34   S    
C29   C39   A    
C2    C21   S    
C30   C40   A    
Cu2   O3    S    
C16   C18   A    
C31   H9    S    
C46   H30   S    
C9    C11   A    
C10   C12   A    
C17   H15   S    
C18   H16   S    
C45   H25   S    
C12   C14   A    
Cu1   O4    S    
C13   C15   A    
C40   C44   S    
Cu2   O2    S    
C20   C22   A    
C24   O6    A    
C5    C42   A    
C29   H7    S    
C15   C17   A    
C21   C25   A    
C3    C41   A    
Cu1   O5    S    
C35   C37   A    
C9    H19   S    
C8    C10   A    
C10   H20   S    
C3    C24   S    
C3    C5    A    
C6    C33   S    
C12   C25   S    
C36   C38   A    
C41   H13   S    
C29   C31   A    
C13   H1    S    
C11   C13   A    
C24   O8    A    
C4    C42   A    
Cu1   N2    S    
C33   C35   A    
Cu2   O6    S    
C34   C36   A    
Cu2   O7    S    
C1    O3    A    
C37   H11   S    
C45   H26   S    
C38   H12   S    
C37   C39   A    
C22   C26   A    
C27   C28   S    
N4    C46   S    
C46   H28   S    
C2    O4    A    
C8    H18   S    
C30   H8    S    
