data_mof_unit_15057.cif
_audit_creation_date              2012-12-11T15:14:51-0500
_audit_creation_method            fapswitch 2.2
_symmetry_space_group_name_H-M    P1
_symmetry_Int_Tables_number       1
_space_group_crystal_system       triclinic
_cell_length_a                    11.161532
_cell_length_b                    11.130143
_cell_length_c                    18.467129
_cell_angle_alpha                 89.802451
_cell_angle_beta                  89.915778
_cell_angle_gamma                 119.833786
_cell_volume                      1990.09595375

loop_
_atom_site_label
_atom_site_type_symbol
_atom_type_description
_atom_site_fract_x
_atom_site_fract_y
_atom_site_fract_z
_atom_type_partial_charge
C1    C     C_R   0.523506 0.455170 0.644028 0.577657
C2    C     C_R   0.452756 0.520313 0.356197 0.537859
C3    C     C_R   0.458345 0.881425 0.137803 0.537479
C4    C     C_R   0.066927 0.547022 0.355787 0.539213
C5    C     C_3   0.509243 0.115782 0.456515 -0.154493
C6    C     C_3   0.621840 0.525518 0.043390 -0.148593
C7    C     C_3   0.909417 0.396272 0.462156 -0.155137
C8    C     C_3   0.487226 0.061667 0.038037 -0.121940
C9    C     C_3   0.602940 0.504827 0.462530 -0.152707
C10   C     C_3   0.876213 0.407760 0.044811 -0.153499
C11   C     C_3   0.944907 0.363045 0.985835 -0.105672
C12   C     C_R   0.886388 0.457256 0.862202 0.527443
C13   C     C_3   0.613398 0.610007 0.520232 -0.096677
C14   C     C_3   0.384245 0.981343 0.976859 -0.096377
C15   C     C_3   0.007358 0.395583 0.520944 -0.098753
C16   C     C_3   0.596332 0.595472 0.977202 -0.100726
C17   C     C_3   0.404675 0.029627 0.516663 -0.098714
C18   C     C_3   0.630153 0.137240 0.506337 -0.180499
C19   C     C_3   0.550786 0.383895 0.003404 -0.191683
C20   C     C_3   0.873336 0.487437 0.511155 -0.170526
C21   C     C_3   0.609703 0.088772 0.988397 -0.157162
C22   C     C_3   0.506059 0.383200 0.513192 -0.168021
C23   C     C_R   0.564773 0.102307 0.638012 0.548958
C24   C     C_3   0.874500 0.515259 0.991563 -0.173912
C25   C     C_3   0.089822 0.476119 0.010257 -0.128092
C26   C     C_3   0.484782 0.608389 0.488079 -0.132675
C27   C     C_3   0.377690 0.845558 0.002808 -0.147674
C28   C     C_3   0.127978 0.529453 0.488197 -0.133016
C29   C     C_3   0.454632 0.561647 0.009167 -0.129599
C30   C     C_3   0.398277 0.896227 0.487707 -0.129452
C31   C     C_3   0.526396 0.050551 0.564713 0.035243
C32   C     C_3   0.524189 0.454395 0.938417 0.029169
C33   C     C_3   0.973289 0.488433 0.568338 0.038733
C34   C     C_R   0.542215 0.424898 0.862813 0.537128
C35   C     C_3   0.506947 0.007308 0.928241 0.032979
C36   C     C_3   0.514612 0.488128 0.569051 0.038018
C37   C     C_3   0.940927 0.470231 0.934495 0.037201
C38   C     C_3   0.019334 0.519258 0.068695 0.029853
C39   C     C_3   0.475699 0.502297 0.431725 0.032876
C40   C     C_3   0.480406 0.927618 0.062610 0.028111
C41   C     C_3   0.027282 0.527111 0.431013 0.032635
C42   C     C_3   0.483291 0.492339 0.073400 0.036926
C43   C     C_3   0.503180 0.984645 0.428924 0.031407
C44   C     C_3   0.519994 0.919685 0.537117 -0.026551
C45   C     C_R   0.931706 0.477210 0.643706 0.579213
C46   C     C_3   0.384133 0.420808 0.970469 -0.004715
C47   C     C_3   0.090920 0.619685 0.536593 -0.034147
C48   C     C_3   0.501494 0.874522 0.953094 -0.035881
C49   C     C_3   0.388491 0.486092 0.538356 -0.036279
C50   C     C_3   0.083395 0.580787 0.956930 -0.028240
C51   C     C_3   0.017181 0.625256 0.015447 -0.021841
C52   C     C_3   0.378785 0.381676 0.482092 -0.013639
C53   C     C_3   0.602760 0.954564 0.013399 -0.011777
C54   C     C_3   0.992881 0.618962 0.479096 -0.014337
C55   C     C_3   0.411041 0.352065 0.034940 -0.019811
C56   C     C_R   0.543715 0.064299 0.855314 0.562431
C57   C     C_3   0.623284 0.005375 0.478371 -0.015968
C58   C     C_1   0.528163 0.829255 0.592763 0.227287
C59   C     C_1   0.255406 0.358968 0.928406 0.240173
C60   C     C_1   0.173041 0.728169 0.589648 0.216240
C61   C     C_1   0.512224 0.787701 0.896530 0.213421
C62   C     C_1   0.289652 0.475416 0.594368 0.212515
C63   C     C_1   0.174380 0.661623 0.896516 0.236048
C64   C     C_1   0.042009 0.764721 0.029676 0.221902
C65   C     C_1   0.252782 0.255132 0.461221 0.216036
C66   C     C_1   0.723945 0.943720 0.033861 0.218701
C67   C     C_R   0.455898 0.518096 0.146012 0.533849
C68   C     C_1   0.985159 0.740130 0.454778 0.219086
C69   C     C_1   0.309648 0.224230 0.071311 0.217252
C70   C     C_1   0.746344 0.999218 0.457117 0.219981
C71   C     C_R   0.480863 0.935739 0.355012 0.542327
C72   C     C_R   0.068272 0.547363 0.143289 0.532697
Cr1   Cr    Cr6+3 0.769930 0.543130 0.750000 1.062679
Cr2   Cr    Cr6+3 0.773200 0.230070 0.750000 1.067029
Cr3   Cr    Cr6+3 0.456870 0.226800 0.750000 1.066813
Cr4   Cr    Cr6+3 0.543130 0.769930 0.250000 1.058756
Cr5   Cr    Cr6+3 0.230070 0.773200 0.250000 1.069014
Cr6   Cr    Cr6+3 0.226800 0.456870 0.250000 1.059810
H1    H     H_    0.716993 0.228396 0.529630 0.112903
H2    H     H_    0.229758 0.551000 0.468645 0.104109
H3    H     H_    0.411559 0.630120 0.017936 0.085689
H4    H     H_    0.308504 0.799507 0.469387 0.111951
H5    H     H_    0.507024 0.193367 0.419475 0.131489
H6    H     H_    0.714816 0.569642 0.078390 0.146603
H7    H     H_    0.841276 0.311126 0.425206 0.134991
H8    H     H_    0.487151 0.134988 0.078281 0.140358
H9    H     H_    0.685473 0.511003 0.426514 0.128946
H10   H     H_    0.791681 0.339502 0.082477 0.125733
H11   H     H_    0.921336 0.256977 0.970996 0.159734
H12   H     H_    0.595480 0.316787 0.996263 0.097216
H13   H     H_    0.709202 0.702922 0.538655 0.159143
H14   H     H_    0.296569 0.994002 0.958544 0.161306
H15   H     H_    0.011127 0.302809 0.539947 0.158105
H16   H     H_    0.677270 0.694354 0.953251 0.157292
H17   H     H_    0.315238 0.039446 0.535075 0.160263
H18   H     H_    0.772240 0.466661 0.531214 0.112006
H19   H     H_    0.698121 0.188845 0.974793 0.102508
H20   H     H_    0.519480 0.299220 0.535134 0.112162
H21   H     H_    0.804046 0.546002 0.968157 0.124490
H22   H     H_    0.177083 0.462626 0.026824 0.120560
H23   H     H_    0.473821 0.696321 0.468906 0.107063
H24   H     H_    0.291747 0.747907 0.022572 0.091639
N1    N     N_1   0.535832 0.762036 0.638448 -0.239990
N2    N     N_1   0.979930 0.835942 0.434989 -0.225496
N3    N     N_1   0.230615 0.125805 0.102102 -0.226192
N4    N     N_1   0.843768 0.995236 0.439877 -0.225154
N5    N     N_1   0.155311 0.309528 0.894367 -0.255273
N6    N     N_1   0.234035 0.810598 0.633245 -0.236618
N7    N     N_1   0.519918 0.721488 0.850525 -0.217660
N8    N     N_1   0.216054 0.467011 0.640767 -0.245015
N9    N     N_1   0.240407 0.723564 0.847134 -0.225977
N10   N     N_1   0.058571 0.874014 0.040316 -0.232960
N11   N     N_1   0.153578 0.155218 0.444565 -0.233306
N12   N     N_1   0.819573 0.935436 0.050192 -0.251518
O1    O     O_R   0.913270 0.574260 0.668550 -0.499113
O2    O     O_R   0.574260 0.913270 0.331450 -0.505756
O3    O     O_R   0.086730 0.660990 0.168550 -0.508159
O4    O     O_R   0.339010 0.425740 0.331450 -0.505246
O5    O     O_R   0.640160 0.530400 0.673300 -0.497346
O6    O     O_R   0.890240 0.359840 0.826700 -0.479839
O7    O     O_R   0.469600 0.109760 0.673300 -0.485558
O8    O     O_R   0.640160 0.530400 0.826700 -0.490761
O9    O     O_R   0.890240 0.359840 0.673300 -0.502277
O10   O     O_R   0.469600 0.109760 0.826700 -0.509972
O11   O     O_R   0.530400 0.640160 0.173300 -0.511426
O12   O     O_R   0.660990 0.086730 0.831450 -0.505896
O13   O     O_R   0.359840 0.890240 0.326700 -0.496063
O14   O     O_R   0.109760 0.469600 0.173300 -0.501655
O15   O     O_R   0.530400 0.640160 0.326700 -0.498235
O16   O     O_R   0.359840 0.890240 0.173300 -0.486053
O17   O     O_R   0.109760 0.469600 0.326700 -0.496375
O18   O     O_3   0.666667 0.333333 0.750000 -0.353235
O19   O     O_3   0.333333 0.666667 0.250000 -0.319082
O20   O     O_R   0.425740 0.339010 0.668550 -0.503274
O21   O     O_R   0.913270 0.574260 0.831450 -0.497625
O22   O     O_R   0.660990 0.086730 0.668550 -0.493356
O23   O     O_R   0.425740 0.339010 0.831450 -0.480260
O24   O     O_R   0.574260 0.913270 0.168550 -0.499616
O25   O     O_R   0.086730 0.660990 0.331450 -0.509439
O26   O     O_R   0.339010 0.425740 0.168550 -0.508847

loop_
_geom_bond_atom_site_label_1
_geom_bond_atom_site_label_2
_ccdc_geom_bond_type
C27   C48   S    
C28   C47   S    
C13   C26   S    
C22   H20   S    
Cr2   O18   S    
C29   C42   S    
C24   H21   S    
C33   C45   S    
Cr6   O14   S    
C2    O4    A    
Cr3   O20   S    
C23   O7    A    
Cr2   O12   S    
C45   O9    A    
C6    C19   S    
C10   H10   S    
C23   O22   A    
C72   O14   A    
Cr1   O5    S    
C56   O10   A    
Cr6   O4    S    
Cr5   O3    S    
C67   O11   A    
C26   H23   S    
C42   C55   S    
C9    C22   S    
C64   N10   T    
C5    C17   S    
C4    C41   S    
C35   C48   S    
C3    O16   A    
C28   C41   S    
C9    C39   S    
C2    O15   A    
C1    O5    A    
C12   C37   S    
C11   C37   S    
C9    C13   S    
C25   C50   S    
C18   C57   S    
C47   C60   S    
C12   O6    A    
C2    C39   S    
C20   H18   S    
Cr1   O21   S    
C44   C58   S    
C18   H1    S    
C12   O21   A    
Cr2   O22   S    
C46   C55   S    
C8    C14   S    
C17   H17   S    
C56   O12   A    
C14   C27   S    
C44   C57   S    
C60   N6    T    
C32   C46   S    
C24   C51   S    
C7    C15   S    
Cr2   O9    S    
C5    C43   S    
Cr1   O18   S    
C61   N7    T    
C34   O8    A    
C13   H13   S    
C17   C30   S    
C30   C44   S    
Cr5   O19   S    
C28   H2    S    
C19   C32   S    
C72   O3    A    
C18   C31   S    
C50   C51   S    
C4    O17   A    
C50   C63   S    
C48   C53   S    
C38   C72   S    
C6    H6    S    
C31   C44   S    
Cr3   O10   S    
Cr5   O25   S    
C13   C36   S    
C20   C54   S    
C70   N4    T    
C26   C49   S    
C14   C35   S    
C69   N3    T    
C38   C51   S    
C71   O13   A    
C10   C24   S    
C16   C29   S    
C59   N5    T    
Cr6   O26   S    
C32   C34   S    
C30   H4    S    
Cr6   O17   S    
C36   C49   S    
C29   H3    S    
C8    C21   S    
C25   C38   S    
C21   H19   S    
Cr4   O15   S    
C45   O1    A    
C25   H22   S    
C62   N8    T    
C27   C40   S    
C49   C52   S    
C11   H11   S    
C24   C37   S    
C3    O24   A    
C53   C66   S    
C14   H14   S    
C55   C69   S    
C47   C54   S    
C21   C35   S    
C20   C33   S    
C27   H24   S    
C3    C40   S    
C40   C53   S    
Cr3   O23   S    
C42   C67   S    
C33   C47   S    
C30   C43   S    
C65   N11   T    
C1    O20   A    
Cr2   O6    S    
Cr3   O18   S    
C22   C52   S    
C19   C55   S    
C67   O26   A    
C43   C71   S    
C49   C62   S    
C66   N12   T    
C35   C56   S    
Cr3   O7    S    
Cr4   O11   S    
Cr1   O8    S    
C51   C64   S    
C68   N2    T    
Cr5   O13   S    
C15   H15   S    
Cr4   O19   S    
C5    H5    S    
C5    C18   S    
Cr4   O24   S    
C16   C32   S    
C22   C36   S    
C34   O23   A    
C16   H16   S    
Cr1   O1    S    
C29   C46   S    
C10   C38   S    
C19   H12   S    
C9    H9    S    
C4    O25   A    
C21   C53   S    
C37   C50   S    
C15   C28   S    
C7    H7    S    
C17   C31   S    
Cr4   O2    S    
C71   O2    A    
C39   C52   S    
C8    H8    S    
Cr5   O16   S    
C7    C41   S    
C63   N9    T    
C26   C39   S    
Cr6   O19   S    
C41   C54   S    
C10   C11   S    
C43   C57   S    
C57   C70   S    
C6    C16   S    
C54   C68   S    
C46   C59   S    
C7    C20   S    
C6    C42   S    
C48   C61   S    
C11   C25   S    
C58   N1    T    
C8    C40   S    
C15   C33   S    
C52   C65   S    
C1    C36   S    
C23   C31   S    
