data_mof_unit_40800.cif
_audit_creation_date              2012-12-10T17:03:58-0500
_audit_creation_method            fapswitch 2.2
_symmetry_space_group_name_H-M    P1
_symmetry_Int_Tables_number       1
_space_group_crystal_system       triclinic
_cell_length_a                    9.888767
_cell_length_b                    11.009598
_cell_length_c                    15.864302
_cell_angle_alpha                 95.959637
_cell_angle_beta                  79.158491
_cell_angle_gamma                 110.931806
_cell_volume                      1583.12872579

loop_
_atom_site_label
_atom_site_type_symbol
_atom_type_description
_atom_site_fract_x
_atom_site_fract_y
_atom_site_fract_z
_atom_type_partial_charge
C1    C     C_R   0.556127 0.745259 0.506002 0.845789
C2    C     C_R   0.443782 0.254745 0.494121 0.846678
C3    C     C_R   0.318053 0.437779 0.074616 -0.220671
C4    C     C_R   0.669296 0.498226 0.921974 -0.220862
C5    C     C_R   0.218518 0.420613 0.019514 -0.234366
C6    C     C_R   0.768232 0.512338 0.976900 -0.233383
C7    C     C_2   0.584114 0.884305 0.514872 -0.357821
C8    C     C_2   0.415429 0.115655 0.485615 -0.356979
C9    C     C_2   0.491938 0.932287 0.490873 -0.161836
C10   C     C_2   0.506692 0.067444 0.510443 -0.161397
C11   C     C_2   0.928928 0.498284 0.487427 0.392470
C12   C     C_2   0.070463 0.500646 0.513034 0.389977
C13   C     C_R   0.411838 0.486325 0.662500 0.783239
C14   C     C_R   0.587946 0.512686 0.337441 0.784353
C15   C     C_R   0.359298 0.473247 0.755327 -0.056176
C16   C     C_R   0.638176 0.515044 0.244073 -0.056848
C17   C     C_R   0.164176 0.422431 0.877569 -0.213874
C18   C     C_R   0.826191 0.529048 0.119833 -0.212673
C19   C     C_R   0.210126 0.439105 0.789638 -0.186974
C20   C     C_R   0.783639 0.529914 0.208687 -0.190846
C21   C     C_R   0.461567 0.491217 0.809876 -0.250358
C22   C     C_R   0.536117 0.498931 0.189687 -0.249722
C23   C     C_R   0.417752 0.469766 0.898156 0.088627
C24   C     C_R   0.574655 0.492793 0.099921 0.088243
C25   C     C_R   0.266498 0.437703 0.931936 0.171019
C26   C     C_R   0.723344 0.511363 0.065379 0.171153
C27   C     C_R   0.519999 0.480908 0.953679 0.066205
C28   C     C_R   0.470435 0.471342 0.043821 0.066023
Cu1   Cu    Cu3+1 0.362980 0.479380 0.485080 0.961617
Cu2   Cu    Cu3+1 0.637020 0.520620 0.514920 0.962214
H1    H     H_    0.102839 0.394256 0.045885 0.139336
H2    H     H_    0.881388 0.525418 0.949756 0.139517
H3    H     H_    0.427280 0.494171 0.219092 0.153852
H4    H     H_    0.575712 0.524183 0.781944 0.153302
H5    H     H_    0.048297 0.396377 0.903066 0.131512
H6    H     H_    0.939691 0.542182 0.093584 0.134150
H7    H     H_    0.270546 0.419827 0.140976 0.142422
H8    H     H_    0.713365 0.497651 0.854568 0.143432
H9    H     H_    0.593703 0.128243 0.545034 0.167679
H10   H     H_    0.404370 0.871363 0.456709 0.167910
H11   H     H_    0.323474 0.053247 0.455153 0.148202
H12   H     H_    0.676564 0.946838 0.544883 0.148137
H13   H     H_    0.144761 0.432990 0.399152 0.175962
H14   H     H_    0.855362 0.567919 0.600782 0.175495
N1    N     N_2   0.842890 0.551600 0.537350 -0.319761
N2    N     N_2   0.157110 0.448400 0.462650 -0.319929
O1    O     O_R   0.426810 0.668300 0.492040 -0.571750
O2    O     O_R   0.573190 0.331700 0.507960 -0.570331
O3    O     O_R   0.658240 0.703130 0.517240 -0.573100
O4    O     O_R   0.341760 0.296870 0.482760 -0.573190
O5    O     O_R   0.319390 0.472820 0.610170 -0.515781
O6    O     O_R   0.680610 0.527180 0.389830 -0.516304
O7    O     O_R   0.550820 0.507640 0.635370 -0.598080
O8    O     O_R   0.449180 0.492360 0.364630 -0.598077
H15   H     H_    0.864424 0.542630 0.249481 0.191791
H16   H     H_    0.129173 0.424954 0.748682 0.186292
O9    O     O_3   0.103224 0.549904 0.593987 -0.572569
C29   C     C_3   0.146614 0.687705 0.598501 0.087803
H17   H     H_    0.051196 0.720666 0.614609 0.108272
H18   H     H_    0.210327 0.732192 0.537318 0.144441
C30   C     C_3   0.237379 0.742614 0.670246 -0.733944
H19   H     H_    0.338508 0.717636 0.657586 0.241436
H20   H     H_    0.269155 0.850272 0.674964 0.198028
H21   H     H_    0.172173 0.702379 0.732473 0.231073
O10   O     O_3   0.895039 0.447076 0.407003 -0.573479
C31   C     C_3   0.852935 0.309394 0.403744 0.084323
H22   H     H_    0.789196 0.266051 0.465235 0.145506
H23   H     H_    0.948931 0.277138 0.388560 0.109354
C32   C     C_3   0.762597 0.252106 0.332060 -0.738738
H24   H     H_    0.662970 0.279310 0.342812 0.244650
H25   H     H_    0.829147 0.288547 0.269289 0.228119
H26   H     H_    0.728450 0.144298 0.329841 0.200217

loop_
_geom_bond_atom_site_label_1
_geom_bond_atom_site_label_2
_ccdc_geom_bond_type
C19   H16   S    
C9    H10   S    
C32   H26   S    
C6    H2    S    
C11   C12   S    
Cu1   Cu2   S    
C14   C16   S    
C23   C27   A    
C30   H21   S    
C17   H5    S    
C9    C10   S    
Cu2   N1    S    
C18   C20   A    
C18   C26   A    
Cu1   N2    S    
C16   C20   A    
C17   C25   A    
C3    C5    A    
C29   C30   S    
C13   C15   S    
C31   H22   S    
C1    C7    S    
Cu2   O7    S    
C8    H11   S    
C15   C19   A    
O9    C29   S    
C6    C26   A    
C18   H6    S    
Cu1   O1    S    
C20   H15   S    
C5    C25   A    
C12   O9    S    
C32   H24   S    
C3    C28   A    
C14   O8    A    
Cu2   O3    S    
C24   C26   A    
C13   O7    A    
Cu1   O4    S    
C23   C25   A    
C21   C23   A    
C1    O1    A    
C30   H19   S    
H13   N2    S    
C22   C24   A    
C11   N1    D    
C31   C32   S    
C32   H25   S    
Cu1   O8    S    
C29   H18   S    
C11   O10   S    
C15   C21   A    
C4    C27   A    
H14   N1    S    
C3    H7    S    
C8    C10   D    
O10   C31   S    
Cu1   O5    S    
C7    H12   S    
Cu2   O2    S    
C27   C28   A    
C7    C9    D    
C22   H3    S    
Cu2   O6    S    
C17   C19   A    
C2    C8    S    
C16   C22   A    
C21   H4    S    
C2    O4    A    
C31   H23   S    
C2    O2    A    
C29   H17   S    
C13   O5    A    
C4    C6    A    
C1    O3    A    
C30   H20   S    
C14   O6    A    
C24   C28   A    
C4    H8    S    
C10   H9    S    
C5    H1    S    
C12   N2    D    
