data_mof_unit_21236.cif
_audit_creation_date              2012-12-11T15:35:35-0500
_audit_creation_method            fapswitch 2.2
_symmetry_space_group_name_H-M    P1
_symmetry_Int_Tables_number       1
_space_group_crystal_system       triclinic
_cell_length_a                    17.514979
_cell_length_b                    24.304738
_cell_length_c                    14.95896
_cell_angle_alpha                 90.457124
_cell_angle_beta                  124.655163
_cell_angle_gamma                 89.261049
_cell_volume                      5237.79814832

loop_
_atom_site_label
_atom_site_type_symbol
_atom_type_description
_atom_site_fract_x
_atom_site_fract_y
_atom_site_fract_z
_atom_type_partial_charge
C1    C     C_R   0.308817 0.122668 0.912111 -0.069879
C2    C     C_R   0.557500 0.153527 0.911109 0.194468
C3    C     C_R   0.253147 0.547091 0.301558 0.139176
C4    C     C_R   0.053254 0.345303 0.910351 0.197927
C5    C     C_R   0.067049 0.649852 0.911886 0.181471
C6    C     C_R   0.541847 0.998818 0.718675 0.053956
C7    C     C_R   0.058902 0.496934 0.735767 0.034842
C8    C     C_R   0.815764 0.997221 0.348401 -0.126532
C9    C     C_R   0.308440 0.502071 0.357709 -0.115555
C10   C     C_R   0.617330 0.184154 0.002830 -0.040516
C11   C     C_R   0.681976 0.856968 0.997461 -0.029695
C12   C     C_R   0.139356 0.675111 0.003468 -0.031412
C13   C     C_R   0.308279 0.880467 0.907386 -0.103605
C14   C     C_R   0.110012 0.312831 0.001147 -0.036110
C15   C     C_3   0.056408 0.019464 0.611724 -0.431240
C16   C     C_3   0.066147 0.031521 0.450111 -0.331607
C17   C     C_3   0.548846 0.471507 0.615059 -0.417421
C18   C     C_3   0.551801 0.564512 0.544298 -0.378892
C19   C     C_3   0.950506 0.020176 0.535658 -0.332310
C20   C     C_3   0.960695 0.026729 0.370929 -0.404010
C21   C     C_3   0.443056 0.472083 0.540198 -0.331279
C22   C     C_3   0.445884 0.564445 0.474519 -0.380878
C23   C     C_3   0.064947 0.937293 0.513746 -0.366968
C24   C     C_R   0.850418 0.651848 0.907928 -0.079678
C25   C     C_3   0.560445 0.480230 0.453682 -0.349393
C26   C     C_3   0.100236 0.996858 0.552524 0.328866
C27   C     C_3   0.591171 0.504545 0.564460 0.352912
C28   C     C_3   0.918844 0.995391 0.424185 0.364834
C29   C     C_3   0.410459 0.505041 0.435997 0.357115
C30   C     C_R   0.399501 0.875737 0.088974 -0.077815
C31   C     C_R   0.401872 0.122501 0.093565 -0.097293
C32   C     C_R   0.904433 0.376412 0.094723 -0.106814
C33   C     C_R   0.949020 0.654860 0.087336 -0.054290
C34   C     C_3   0.959275 0.936119 0.446216 -0.387784
C35   C     C_R   0.810708 0.375788 0.912680 -0.075555
C36   C     C_3   0.455036 0.483776 0.376318 -0.393506
C37   C     C_R   0.230882 0.780018 0.916196 -0.126536
C38   C     C_R   0.155238 0.174409 0.925003 -0.147304
C39   C     C_R   0.662781 0.323910 0.938116 -0.154440
C40   C     C_R   0.885627 0.765081 0.098836 -0.134712
C41   C     C_R   0.611869 0.280548 0.938572 -0.100249
C42   C     C_R   0.831928 0.806835 0.098990 -0.136022
C43   C     C_R   0.195191 0.732122 0.922983 -0.097931
C44   C     C_R   0.102377 0.217788 0.924591 -0.095135
C45   C     C_R   0.658156 0.237659 0.013845 0.131867
C46   C     C_R   0.642906 0.152056 0.090267 -0.128746
C47   C     C_R   0.756359 0.827532 0.000047 0.136069
C48   C     C_R   0.179327 0.725767 0.003278 0.136129
C49   C     C_R   0.142641 0.255419 0.011458 0.123219
C50   C     C_R   0.751764 0.242960 0.098780 -0.134351
C51   C     C_R   0.748470 0.814729 0.903607 -0.091887
C52   C     C_R   0.201215 0.767135 0.079711 -0.134732
C53   C     C_R   0.227288 0.241177 0.108068 -0.127862
C54   C     C_R   0.240124 0.815447 0.074956 -0.146776
C55   C     C_R   0.278451 0.197113 0.110189 -0.133214
C56   C     C_R   0.801346 0.286539 0.100674 -0.140514
C57   C     C_R   0.688126 0.877077 0.087842 -0.097690
C58   C     C_R   0.800590 0.771431 0.902897 -0.122544
C59   C     C_R   0.254974 0.821522 0.993013 0.124644
C60   C     C_R   0.246595 0.166917 0.014994 0.122610
C61   C     C_R   0.758486 0.325389 0.016761 0.130594
C62   C     C_R   0.862527 0.742928 0.999729 0.111020
C63   C     C_R   0.467522 0.010357 0.526833 0.237975
C64   C     C_R   0.635295 0.991203 0.646178 0.196529
C65   C     C_R   0.078306 0.443778 0.609683 0.193188
C66   C     C_R   0.130336 0.537744 0.646219 0.194666
C67   C     C_R   0.473233 0.012553 0.439805 -0.197118
C68   C     C_R   0.161799 0.645636 0.092904 -0.142013
C69   C     C_R   0.639603 0.992937 0.556947 -0.121447
C70   C     C_R   0.046728 0.449744 0.502528 -0.163301
C71   C     C_R   0.117068 0.539281 0.544894 -0.146144
C72   C     C_R   0.558326 0.003552 0.455476 0.100999
C73   C     C_R   0.067112 0.497261 0.468780 0.092082
C74   C     C_R   0.545678 0.046357 0.301692 0.155967
C75   C     C_R   0.542876 0.955498 0.302017 0.178324
C76   C     C_R   0.030172 0.544818 0.295961 0.218438
C77   C     C_R   0.044746 0.453986 0.301149 0.134438
C78   C     C_R   0.549108 0.000125 0.629989 -0.055203
C79   C     C_R   0.137693 0.346212 0.088860 -0.109314
C80   C     C_R   0.101300 0.491241 0.674474 -0.023343
C81   C     C_R   0.252417 0.953481 0.694433 0.123954
C82   C     C_R   0.248510 0.045034 0.693447 0.150629
C83   C     C_R   0.743027 0.455124 0.697538 0.144275
C84   C     C_R   0.746006 0.546995 0.698186 0.148639
C85   C     C_R   0.313866 0.135705 0.006141 0.002421
C86   C     C_R   0.311847 0.864666 0.997476 -0.007776
C87   C     C_R   0.886302 0.685558 0.997469 0.011829
C88   C     C_R   0.817920 0.361988 0.007278 0.003251
C89   C     C_R   0.557287 0.001652 0.361198 -0.061731
C90   C     C_R   0.590744 0.864647 0.909172 0.175031
C91   C     C_R   0.044982 0.498861 0.358461 -0.052117
C92   C     C_R   0.202902 0.998560 0.630969 -0.047232
C93   C     C_R   0.693596 0.502108 0.640458 -0.098699
C94   C     C_R   0.519226 0.044743 0.752265 -0.033159
C95   C     C_R   0.510552 0.953798 0.742163 -0.056254
C96   C     C_R   0.023084 0.543879 0.754734 -0.043182
C97   C     C_R   0.025925 0.453386 0.761679 -0.065010
C98   C     C_R   0.759133 0.952327 0.296407 0.134983
C99   C     C_R   0.763452 0.044715 0.295842 0.180713
C100  C     C_R   0.261192 0.454784 0.299025 0.197684
H1    H     H_    0.248387 0.126796 0.830288 0.130340
H2    H     H_    0.931203 0.068571 0.343550 0.197175
H3    H     H_    0.414259 0.491305 0.583038 0.175271
H4    H     H_    0.422419 0.580654 0.524865 0.210838
H5    H     H_    0.921147 0.996100 0.572258 0.174541
H6    H     H_    0.944066 0.004222 0.296820 0.172055
H7    H     H_    0.419320 0.429356 0.525014 0.211506
H8    H     H_    0.420250 0.592420 0.404080 0.189575
H9    H     H_    0.090850 0.909218 0.584016 0.183340
H10   H     H_    0.088848 0.921504 0.463462 0.204808
H11   H     H_    0.581342 0.436630 0.460330 0.210046
H12   H     H_    0.250790 0.876069 0.823369 0.126909
H13   H     H_    0.592890 0.503009 0.419271 0.182709
H14   H     H_    0.940647 0.913601 0.495289 0.210595
H15   H     H_    0.933244 0.913577 0.368996 0.176500
H16   H     H_    0.429650 0.443045 0.338138 0.200485
H17   H     H_    0.436061 0.512391 0.308678 0.171264
H18   H     H_    0.245441 0.782583 0.855026 0.154027
H19   H     H_    0.126731 0.149111 0.853028 0.127957
H20   H     H_    0.628547 0.354928 0.875092 0.130119
H21   H     H_    0.936332 0.745978 0.175954 0.149344
H22   H     H_    0.537906 0.280262 0.878969 0.165289
H23   H     H_    0.807731 0.664685 0.824359 0.148537
H24   H     H_    0.844529 0.817917 0.176325 0.135544
H25   H     H_    0.180894 0.699556 0.865946 0.171708
H26   H     H_    0.032526 0.222074 0.854676 0.167930
H27   H     H_    0.789329 0.211022 0.159209 0.151529
H28   H     H_    0.696622 0.834460 0.827636 0.156827
H29   H     H_    0.188923 0.761845 0.142359 0.138677
H30   H     H_    0.260024 0.267282 0.179211 0.159770
H31   H     H_    0.260835 0.847067 0.135917 0.137491
H32   H     H_    0.347349 0.191746 0.183246 0.144451
H33   H     H_    0.875303 0.286362 0.162579 0.143195
H34   H     H_    0.751047 0.369480 0.831331 0.138780
H35   H     H_    0.786015 0.757437 0.825864 0.150193
H36   H     H_    0.422574 0.865245 0.169547 0.147434
H37   H     H_    0.425151 0.124039 0.176639 0.131586
H38   H     H_    0.930060 0.372289 0.178802 0.135540
H39   H     H_    0.004056 0.671927 0.163865 0.140532
H40   H     H_    0.410950 0.019747 0.359175 0.154384
H41   H     H_    0.704689 0.985360 0.565796 0.167137
H42   H     H_    0.012549 0.415328 0.448433 0.174911
H43   H     H_    0.144859 0.573222 0.526062 0.195474
H44   H     H_    0.530405 0.086188 0.739343 0.152365
H45   H     H_    0.080081 0.062063 0.641862 0.182197
H46   H     H_    0.506394 0.912763 0.713038 0.159864
H47   H     H_    0.032154 0.585663 0.740265 0.163005
H48   H     H_    0.042751 0.411395 0.762253 0.160096
H49   H     H_    0.667764 0.169246 0.168160 0.174893
H50   H     H_    0.749941 0.878489 0.167965 0.127738
H51   H     H_    0.208911 0.657827 0.176347 0.157329
H52   H     H_    0.156085 0.329670 0.165069 0.166555
H53   H     H_    0.078770 0.993464 0.683838 0.168479
H54   H     H_    0.100744 0.017707 0.410236 0.194161
H55   H     H_    0.572764 0.427967 0.629846 0.194429
H56   H     H_    0.081167 0.075464 0.470066 0.210099
H57   H     H_    0.572651 0.588012 0.498437 0.208573
H58   H     H_    0.571595 0.489580 0.695154 0.167563
H59   H     H_    0.577287 0.586079 0.622317 0.183908
H60   H     H_    0.926596 0.062865 0.529786 0.208261
I1    I     I_    0.332449 0.020200 0.493228 -0.358862
I2    I     I_    0.236832 0.125906 0.634420 -0.327811
I3    I     I_    0.724148 0.375349 0.629292 -0.356823
I4    I     I_    0.757017 0.616164 0.621449 -0.374509
I5    I     I_    0.767143 0.872366 0.360732 -0.370180
I6    I     I_    0.799449 0.126236 0.359557 -0.414271
I7    I     I_    0.309733 0.371528 0.342124 -0.416728
I8    I     I_    0.239708 0.619661 0.372573 -0.441647
I9    I     I_    0.515285 0.806067 0.781964 -0.324129
I10   I     I_    0.467211 0.186207 0.751798 -0.319064
I11   I     I_    0.953966 0.316790 0.750073 -0.322231
I12   I     I_    0.758240 0.973764 0.801102 -0.397235
I13   I     I_    0.973154 0.691770 0.763626 -0.340993
I14   I     I_    0.124130 0.362839 0.672479 -0.285174
I15   I     I_    0.205795 0.602179 0.757341 -0.377201
I16   I     I_    0.593505 0.125689 0.371611 -0.332502
I17   I     I_    0.569710 0.875665 0.373121 -0.329398
I18   I     I_    0.998476 0.624188 0.328145 -0.364796
I19   I     I_    0.112077 0.376592 0.367261 -0.358468
I20   I     I_    0.273150 0.878886 0.635437 -0.364464
N1    N     N_R   0.392140 0.102630 0.941800 -0.041210
N2    N     N_R   0.525160 0.972040 0.206160 -0.087608
N3    N     N_R   0.025160 0.527960 0.206160 -0.077843
N4    N     N_R   0.025160 0.472040 0.206160 -0.081134
N5    N     N_R   0.317870 0.971120 0.792790 -0.081521
N6    N     N_R   0.317870 0.028880 0.792790 -0.083412
N7    N     N_R   0.817870 0.471120 0.792790 -0.075804
N8    N     N_R   0.817870 0.528880 0.792790 -0.074794
N9    N     N_R   0.473480 0.027920 0.793480 -0.042469
N10   N     N_R   0.473480 0.972080 0.793480 -0.044869
N11   N     N_R   0.973480 0.527920 0.793480 -0.043681
N12   N     N_R   0.392140 0.897370 0.941800 -0.033942
N13   N     N_R   0.973480 0.472080 0.793480 -0.044569
N14   N     N_R   0.681610 0.971120 0.207570 -0.076241
N15   N     N_R   0.681610 0.028880 0.207570 -0.071315
N16   N     N_R   0.181610 0.471120 0.207570 -0.069858
N17   N     N_R   0.181610 0.528880 0.207570 -0.071936
N18   N     N_R   0.605410 0.102620 0.056870 -0.054136
N19   N     N_R   0.605410 0.897380 0.056870 -0.045179
N20   N     N_R   0.105410 0.602620 0.056870 -0.052142
N21   N     N_R   0.105410 0.397380 0.056870 -0.052908
N22   N     N_R   0.549680 0.896430 0.944180 -0.062489
N23   N     N_R   0.892140 0.602630 0.941800 -0.049753
N24   N     N_R   0.549680 0.103570 0.944180 -0.074007
N25   N     N_R   0.049680 0.396430 0.944180 -0.076613
N26   N     N_R   0.049680 0.603570 0.944180 -0.068054
N27   N     N_R   0.892140 0.397370 0.941800 -0.040487
N28   N     N_R   0.450890 0.896450 0.057150 -0.037112
N29   N     N_R   0.450890 0.103550 0.057150 -0.042229
N30   N     N_R   0.950890 0.396450 0.057150 -0.042456
N31   N     N_R   0.950890 0.603550 0.057150 -0.045051
N32   N     N_R   0.525160 0.027960 0.206160 -0.090157
Ni1   Ni    Ni4+2 0.433410 0.064680 0.868830 0.275271
Ni2   Ni    Ni4+2 0.433410 0.935320 0.868830 0.277956
Ni3   Ni    Ni4+2 0.933410 0.564680 0.868830 0.264104
Ni4   Ni    Ni4+2 0.933410 0.435320 0.868830 0.274089
Ni5   Ni    Ni4+2 0.565650 0.934380 0.131170 0.272775
Ni6   Ni    Ni4+2 0.565650 0.065620 0.131170 0.250113
Ni7   Ni    Ni4+2 0.065650 0.434380 0.131170 0.252892
Ni8   Ni    Ni4+2 0.065650 0.565620 0.131170 0.244420

loop_
_geom_bond_atom_site_label_1
_geom_bond_atom_site_label_2
_ccdc_geom_bond_type
C44   C49   A    
C58   C62   A    
C26   C92   S    
C24   N23   A    
C37   C43   A    
N3    Ni8   S    
C31   C85   A    
C22   C29   S    
C65   I14   S    
C53   C55   A    
C11   C47   S    
N19   Ni5   S    
C2    C10   A    
C12   C48   S    
C83   N7    A    
C43   H25   S    
C56   H33   S    
C22   H4    S    
C4    N25   A    
C39   C41   A    
N26   Ni3   S    
C15   C19   S    
C40   H21   S    
C12   C68   A    
C29   C36   S    
C44   H26   S    
C77   I19   S    
C13   N12   A    
C82   N6    A    
C100  I7    S    
C3    C9    A    
N29   Ni6   S    
C96   N11   A    
N23   Ni3   S    
C4    I11   S    
C8    C99   A    
C52   H29   S    
C13   H12   S    
C76   I18   S    
C22   H8    S    
C46   N18   A    
C14   C49   S    
C20   H2    S    
C38   C44   A    
C69   H41   S    
C39   H20   S    
C83   C93   A    
N6    Ni1   S    
C99   N15   A    
C77   N4    A    
C82   C92   A    
N5    Ni2   S    
C98   N14   A    
C6    C78   S    
N1    N29   A    
C67   C72   A    
C23   C26   S    
N12   Ni2   S    
N21   N25   A    
C23   H10   S    
C8    C98   A    
C18   H59   S    
C95   N10   A    
N11   Ni3   S    
C5    N26   A    
C81   C92   A    
N4    Ni7   S    
C36   H17   S    
C37   H18   S    
N25   Ni4   S    
C79   N21   A    
C13   C86   A    
C16   H56   S    
N19   N22   A    
C76   C91   A    
C30   C86   A    
C76   N3    A    
C43   C48   A    
C84   I4    S    
C9    C29   S    
C84   C93   A    
C99   I6    S    
C40   C42   A    
N14   N15   A    
C40   C62   A    
C28   C34   S    
C65   C80   A    
C55   C60   A    
C57   N19   A    
C16   C26   S    
N12   N28   A    
N23   N31   A    
C32   H38   S    
N18   Ni6   S    
C95   H46   S    
C5    I13   S    
C70   C73   A    
C39   C61   A    
C35   H34   S    
C81   N5    A    
C7    C80   S    
N8    Ni3   S    
C52   C54   A    
C3    I8    S    
N14   Ni5   S    
C20   H6    S    
C54   C59   A    
C100  N16   A    
C1    C85   A    
C34   H14   S    
C23   H9    S    
C63   C67   A    
C70   H42   S    
C15   H53   S    
C42   H24   S    
C17   C27   S    
C36   H16   S    
C2    N24   A    
N21   Ni7   S    
C5    C12   A    
C15   H45   S    
C1    N1    A    
C15   C26   S    
C47   C51   A    
C20   C28   S    
C6    C94   A    
C34   H15   S    
C64   C69   A    
C16   H54   S    
C21   C29   S    
N24   Ni1   S    
C24   H23   S    
C17   C21   S    
N30   Ni7   S    
C74   N32   A    
C41   H22   S    
C64   I12   S    
C69   C72   A    
N3    N4    A    
N11   N13   A    
C74   I16   S    
C7    C96   A    
C61   C88   S    
C25   H13   S    
N27   N30   A    
C32   N30   A    
C35   C88   A    
C66   C71   A    
C31   N29   A    
N31   Ni8   S    
C16   C20   S    
C23   C34   S    
C30   N28   A    
C57   H50   S    
C10   C45   S    
N2    N32   A    
C51   C58   A    
C37   C59   A    
C14   C79   A    
N22   Ni2   S    
C67   H40   S    
N10   Ni2   S    
C73   C91   S    
C21   H7    S    
N9    Ni1   S    
C2    I10   S    
C38   C60   A    
C38   H19   S    
C19   H5    S    
C35   N27   A    
C55   H32   S    
C9    C100  A    
C30   H36   S    
C19   C28   S    
N20   Ni8   S    
C97   H48   S    
C66   I15   S    
C27   C93   S    
C32   C88   A    
C31   H37   S    
C51   H28   S    
N17   Ni8   S    
C1    H1    S    
C10   C46   A    
N16   Ni7   S    
C66   C80   A    
C74   C89   A    
N13   Ni4   S    
C71   C73   A    
N28   Ni5   S    
C63   I1    S    
C96   H47   S    
C83   I3    S    
N7    Ni4   S    
C77   C91   A    
N20   N26   A    
C7    C97   A    
C18   C22   S    
C64   C78   A    
C18   C27   S    
C81   I20   S    
N16   N17   A    
C60   C85   S    
C53   H30   S    
C58   H35   S    
C25   C27   S    
C82   I2    S    
C62   C87   S    
C68   N20   A    
C94   H44   S    
C33   C87   A    
C94   N9    A    
N7    N8    A    
C68   H51   S    
C19   H60   S    
N2    Ni5   S    
N18   N24   A    
C72   C89   S    
C33   N31   A    
C11   C90   A    
N5    N6    A    
C71   H43   S    
N32   Ni6   S    
C45   C50   A    
C33   H39   S    
C49   C53   A    
C90   I9    S    
N27   Ni4   S    
C3    N17   A    
C42   C47   A    
C4    C14   A    
N9    N10   A    
C75   I17   S    
C24   C87   A    
C50   C56   A    
C59   C86   S    
C98   I5    S    
C84   N8    A    
C25   H11   S    
C25   C36   S    
C21   H3    S    
C48   C52   A    
C46   H49   S    
C8    C28   S    
C6    C95   A    
C75   C89   A    
C97   N13   A    
C18   H57   S    
C41   C45   A    
C56   C61   A    
C17   H58   S    
N1    Ni1   S    
C50   H27   S    
C11   C57   A    
C75   N2    A    
C54   H31   S    
N15   Ni6   S    
C65   C70   A    
C79   H52   S    
C90   N22   A    
C63   C78   A    
C17   H55   S    
