data_mof_unit_21908.cif
_audit_creation_date              2013-03-05T15:41:40-0500
_audit_creation_method            fapswitch 2.2
_symmetry_space_group_name_H-M    P1
_symmetry_Int_Tables_number       1
_space_group_crystal_system       triclinic
_cell_length_a                    17.199933
_cell_length_b                    8.675688
_cell_length_c                    7.487394
_cell_angle_alpha                 103.344394
_cell_angle_beta                  90.407881
_cell_angle_gamma                 93.807424
_cell_volume                      1084.42285654

loop_
_atom_site_label
_atom_site_type_symbol
_atom_site_description
_atom_site_fract_x
_atom_site_fract_y
_atom_site_fract_z
_atom_type_partial_charge
O1    O     O_R   0.505650 0.286040 0.618880 -0.558719
O2    O     O_R   0.494350 0.713960 0.381120 -0.583760
O3    O     O_R   0.490960 0.256910 0.309800 -0.630301
O4    O     O_R   0.509040 0.743090 0.690200 -0.615293
C1    C     C_R   0.497127 0.199694 0.453461 0.856386
C2    C     C_R   0.503033 0.800329 0.546506 0.848106
O5    O     O_R   0.394600 0.516230 0.672450 -0.541121
O6    O     O_R   0.605400 0.483770 0.327550 -0.546396
O7    O     O_R   0.379910 0.487100 0.363380 -0.599630
O8    O     O_R   0.620090 0.512900 0.636620 -0.584318
C3    C     C_R   0.351394 0.508038 0.526429 0.765582
C4    C     C_R   0.648752 0.494203 0.473898 0.759784
Cu1   Cu    Cu3+1 0.508700 0.517250 0.683000 1.014488
Cu2   Cu    Cu3+1 0.491300 0.482750 0.317000 0.995891
C5    C     C_R   0.268304 0.531463 0.544369 -0.028847
C6    C     C_R   0.732558 0.479421 0.457147 -0.029329
C7    C     C_R   0.227766 0.570451 0.399232 -0.192218
C8    C     C_R   0.774789 0.446697 0.603646 -0.197293
C9    C     C_R   0.148630 0.590348 0.410850 -0.143686
C10   C     C_R   0.854643 0.436047 0.593280 -0.139774
C11   C     C_R   0.108591 0.567885 0.565726 0.141450
C12   C     C_R   0.893597 0.461259 0.438107 0.143163
C13   C     C_R   0.149229 0.536700 0.715040 -0.152415
C14   C     C_R   0.851553 0.487781 0.288236 -0.153924
C15   C     C_R   0.229170 0.519332 0.704832 -0.200387
C16   C     C_R   0.771020 0.496511 0.297490 -0.190112
C17   C     C_2   0.023421 0.567941 0.566270 -0.115270
C18   C     C_2   0.978813 0.464090 0.435635 -0.115534
H1    H     H_    0.257055 0.585025 0.275950 0.163031
H2    H     H_    0.746237 0.429650 0.726862 0.163837
H3    H     H_    0.739307 0.520005 0.182278 0.171962
H4    H     H_    0.259799 0.492915 0.819831 0.170099
H5    H     H_    0.118687 0.520930 0.836327 0.136898
H6    H     H_    0.881304 0.505738 0.166817 0.135268
H7    H     H_    0.886457 0.411572 0.707948 0.135352
H8    H     H_    0.117983 0.618288 0.296607 0.136408
C19   C     C_2   0.493948 0.031303 0.428359 -0.385514
C20   C     C_2   0.506386 0.968749 0.571531 -0.365120
H9    H     H_    0.480531 0.958624 0.291498 0.160124
H10   H     H_    0.519667 0.041487 0.708422 0.169584
N1    N     N_2   0.478180 0.456750 0.041980 0.121903
N2    N     N_2   0.521820 0.543250 0.958020 0.138267
C21   C     C_1   0.012597 0.346964 0.292292 0.251473
N3    N     N_1   0.039463 0.253517 0.177874 -0.276101
C22   C     C_1   0.989622 0.685001 0.709593 0.249250
N4    N     N_1   0.962715 0.778394 0.823999 -0.276530
O9    O     O_3   0.410803 0.397883 0.951729 -0.509956
C23   C     C_3   0.394551 0.243201 0.976982 0.182247
H11   H     H_    0.368892 0.247945 0.113346 0.163302
H12   H     H_    0.448112 0.176161 0.964119 0.129502
C24   C     C_3   0.335109 0.153759 0.830253 -0.408899
H13   H     H_    0.279992 0.215041 0.845696 0.221303
H14   H     H_    0.357856 0.153451 0.691681 0.231963
C25   C     C_3   0.317854 0.982421 0.845868 -0.894308
H15   H     H_    0.371953 0.917856 0.829247 0.257634
H16   H     H_    0.275127 0.920584 0.736600 0.270588
H17   H     H_    0.292826 0.979821 0.981612 0.256771
O10   O     O_3   0.592355 0.591385 0.037811 -0.508890
C26   C     C_3   0.601373 0.758934 0.069981 0.177089
H18   H     H_    0.610922 0.806213 0.219930 0.142608
H19   H     H_    0.549509 0.814725 0.029177 0.123898
C27   C     C_3   0.673453 0.811242 0.974505 -0.380850
H20   H     H_    0.724721 0.751702 0.010033 0.221011
H21   H     H_    0.663849 0.777678 0.823686 0.240696
C28   C     C_3   0.690770 0.991054 0.031980 -0.906171
H22   H     H_    0.640503 0.052934 0.995693 0.254151
H23   H     H_    0.742796 0.025832 0.959484 0.269645
H24   H     H_    0.702781 0.029232 0.182293 0.259950

loop_
_geom_bond_atom_site_label_1
_geom_bond_atom_site_label_2
_geom_bond_distance
_ccdc_geom_bond_type
O5    Cu1   1.962888 S    
C20   H10   1.086233 S    
O7    Cu2   1.950825 S    
C2    C20   1.426775 S    
C19   C20   1.330472 D    
C8    H2    1.083491 S    
C1    C19   1.426552 S    
C7    H1    1.083441 S    
N1    N2    1.292846 D    
C18   C21   1.451194 S    
O9    C23   1.408137 S    
C28   H23   1.110429 S    
O6    C4    1.303264 A    
C21   N3    1.157373 T    
C24   C25   1.527578 S    
N2    O10   1.345502 S    
C15   H4    1.082645 S    
C23   H12   1.114815 S    
C11   C17   1.464976 S    
O3    C1    1.290934 A    
C16   H3    1.082791 S    
C19   H9    1.086256 S    
C12   C18   1.464608 S    
C22   N4    1.157372 T    
O5    C3    1.303154 A    
O7    C3    1.296893 A    
C17   C22   1.450915 S    
C27   H20   1.111637 S    
O3    Cu2   1.947199 S    
O8    C4    1.296804 A    
Cu2   N1    2.028361 S    
O1    C1    1.292758 A    
C12   C14   1.401722 A    
C6    C8    1.403991 A    
C23   H11   1.108316 S    
C9    C11   1.398158 A    
C14   C16   1.393588 A    
C8    C10   1.384233 A    
C9    H8    1.083772 S    
C13   C15   1.393847 A    
C11   C13   1.401869 A    
C6    C16   1.403097 A    
O2    Cu2   1.948852 S    
C25   H16   1.110723 S    
C5    C15   1.402894 A    
C26   H19   1.115841 S    
C7    C9    1.384203 A    
C24   H13   1.111245 S    
C4    C6    1.459351 S    
N1    O9    1.345883 S    
C26   H18   1.109767 S    
C28   H24   1.111108 S    
O1    Cu1   1.948852 S    
O4    C2    1.290998 A    
C28   H22   1.111388 S    
C17   C18   1.359361 D    
C5    C7    1.404164 A    
C25   H15   1.110759 S    
Cu1   N2    2.028361 S    
C26   C27   1.530249 S    
C27   H21   1.107444 S    
O6    Cu2   1.962892 S    
C27   C28   1.527763 S    
C13   H5    1.083494 S    
O10   C26   1.415250 S    
Cu1   Cu2   2.699385 S    
C10   H7    1.083761 S    
C3    C5    1.459619 S    
C25   H17   1.111015 S    
C23   C24   1.529548 S    
C14   H6    1.083516 S    
O2    C2    1.292817 A    
O4    Cu1   1.947199 S    
C10   C12   1.398414 A    
C24   H14   1.110951 S    
O8    Cu1   1.950825 S    
