data_mof_unit_47643.cif
_audit_creation_date              2012-12-10T17:36:49-0500
_audit_creation_method            fapswitch 2.2
_symmetry_space_group_name_H-M    P1
_symmetry_Int_Tables_number       1
_space_group_crystal_system       triclinic
_cell_length_a                    10.624206
_cell_length_b                    12.322749
_cell_length_c                    13.197163
_cell_angle_alpha                 116.458207
_cell_angle_beta                  78.055208
_cell_angle_gamma                 101.466404
_cell_volume                      1502.06069508

loop_
_atom_site_label
_atom_site_type_symbol
_atom_type_description
_atom_site_fract_x
_atom_site_fract_y
_atom_site_fract_z
_atom_type_partial_charge
C1    C     C_R   0.509784 0.854498 0.286756 0.786812
C2    C     C_3   0.019034 0.012904 0.602654 0.157678
C3    C     C_3   0.930730 0.907353 0.522789 -0.174500
C4    C     C_3   0.876293 0.001623 0.503277 -0.049520
C5    C     C_R   0.346560 0.264369 0.024842 0.187684
C6    C     C_R   0.457235 0.226388 0.834205 -0.091053
C7    C     C_R   0.575314 0.815874 0.083965 -0.181294
C8    C     C_R   0.592870 0.738082 0.968769 -0.134775
C9    C     C_R   0.553243 0.613613 0.932296 -0.173200
C10   C     C_R   0.490878 0.563909 0.010993 0.095787
C11   C     C_R   0.459824 0.645543 0.126724 0.088303
C12   C     C_R   0.740003 0.000940 0.501855 0.812448
C13   C     C_R   0.456529 0.435972 0.978096 0.041029
C14   C     C_R   0.380790 0.391723 0.057625 0.143606
C15   C     C_R   0.338920 0.475709 0.167273 -0.213904
C16   C     C_R   0.376120 0.599349 0.200391 -0.167070
C17   C     C_R   0.497290 0.350634 0.868378 -0.257791
C18   C     C_R   0.384476 0.183071 0.912578 -0.153198
C19   C     C_R   0.511533 0.771168 0.164479 -0.092230
C20   C     C_R   0.705680 0.348264 0.329718 -0.285948
C21   C     C_R   0.325109 0.758452 0.644688 0.090256
C22   C     C_R   0.287502 0.661395 0.675855 -0.238889
C23   C     C_R   0.481654 0.144886 0.713202 0.825827
C24   C     C_R   0.353120 0.558395 0.621299 -0.198384
C25   C     C_R   0.458098 0.551127 0.534323 -0.006075
C26   C     C_R   0.493401 0.653285 0.505485 0.281096
C27   C     C_R   0.529518 0.447070 0.475227 -0.038169
C28   C     C_R   0.633979 0.447767 0.389020 0.166791
C29   C     C_R   0.666920 0.547874 0.362510 -0.264319
C30   C     C_R   0.598685 0.648107 0.419476 -0.187153
C31   C     C_R   0.502696 0.341582 0.497467 0.016285
C32   C     C_R   0.674433 0.247855 0.355777 0.073971
C33   C     C_R   0.259607 0.999737 0.499096 0.843568
C34   C     C_3   0.978833 0.989668 0.399858 -0.172798
C35   C     C_3   0.035446 0.895800 0.419515 0.151770
C36   C     C_3   0.122543 0.000423 0.499441 -0.059738
C37   C     C_3   0.067184 0.095023 0.480384 -0.193421
C38   C     C_3   0.961794 0.107389 0.584055 -0.171811
Cu1   Cu    Cu3+1 0.529830 0.098270 0.475420 0.941979
Cu2   Cu    Cu3+1 0.470170 0.901730 0.524580 0.943246
H1    H     H_    0.560832 0.378297 0.806925 0.157703
H2    H     H_    0.613662 0.911279 0.110129 0.157980
H3    H     H_    0.569978 0.559609 0.841440 0.130835
H4    H     H_    0.640584 0.774084 0.907305 0.154211
H5    H     H_    0.332482 0.657056 0.283867 0.207810
H6    H     H_    0.729425 0.170815 0.310290 0.125633
H7    H     H_    0.747065 0.549113 0.296887 0.179449
H8    H     H_    0.785626 0.348280 0.263660 0.151903
H9    H     H_    0.425020 0.333128 0.561403 0.126853
H10   H     H_    0.273680 0.837939 0.687672 0.155060
H11   H     H_    0.959534 0.979989 0.316510 0.153108
H12   H     H_    0.319846 0.486108 0.648929 0.140849
H13   H     H_    0.207142 0.666038 0.742637 0.159099
H14   H     H_    0.632885 0.719699 0.392835 0.213157
H15   H     H_    0.124988 0.171811 0.462742 0.160097
H16   H     H_    0.928260 0.193878 0.651823 0.154283
H17   H     H_    0.873028 0.830453 0.540333 0.173557
H18   H     H_    0.354113 0.086033 0.885352 0.164934
H19   H     H_    0.276341 0.447217 0.229180 0.167801
N1    N     N_R   0.575030 0.246270 0.438190 -0.182361
N2    N     N_R   0.425760 0.754330 0.561190 -0.211641
O1    O     O_R   0.537510 0.972500 0.318130 -0.581873
O2    O     O_R   0.487140 0.806530 0.359650 -0.614040
O3    O     O_R   0.708330 0.082950 0.479220 -0.583229
O4    O     O_R   0.657960 0.916980 0.520740 -0.602528
O5    O     O_R   0.512860 0.193470 0.640350 -0.590762
O6    O     O_R   0.462490 0.027500 0.681870 -0.586308
O7    O     O_R   0.342040 0.083020 0.479260 -0.590578
O8    O     O_R   0.291670 0.917050 0.520780 -0.567612
I1    I     I_    0.078025 0.725095 0.283828 -0.460575
I2    I     I_    0.051435 0.033314 0.765065 -0.446903
C39   C     C_3   0.268234 0.213255 0.106676 -0.870490
H20   H     H_    0.319722 0.242554 0.181558 0.231591
H21   H     H_    0.171380 0.246017 0.135665 0.239844
H22   H     H_    0.253052 0.111820 0.066338 0.240241

loop_
_geom_bond_atom_site_label_1
_geom_bond_atom_site_label_2
_ccdc_geom_bond_type
C24   H12   S    
C34   C37   S    
Cu1   O7    S    
C35   C36   S    
C1    O1    A    
C7    C8    A    
Cu1   O3    S    
C30   H14   S    
C11   C19   A    
C34   H11   S    
C29   C30   A    
Cu2   O2    S    
C29   H7    S    
C23   O5    A    
C36   C37   S    
C26   N2    A    
C5    C39   S    
C12   O3    A    
C6    C23   S    
C15   C16   A    
C33   C36   S    
C34   C35   S    
C7    H2    S    
C23   O6    A    
Cu1   O1    S    
C18   H18   S    
C35   I1    S    
C8    C9    A    
Cu2   O6    S    
C4    C12   S    
C9    C10   A    
C21   N2    A    
C33   O8    A    
C21   C22   A    
C32   H6    S    
C31   H9    S    
C39   H22   S    
C1    O2    A    
C21   H10   S    
C22   H13   S    
C6    C18   A    
C4    C34   S    
C9    H3    S    
C1    C19   S    
Cu2   O8    S    
C27   C31   A    
C24   C25   A    
C39   H21   S    
Cu1   Cu2   S    
C5    C18   A    
C20   C28   A    
C25   C26   A    
Cu2   N2    S    
C31   N1    A    
C37   C38   S    
C11   C16   A    
C2    C38   S    
C3    C35   S    
C5    C14   A    
C20   H8    S    
C3    H17   S    
C4    C38   S    
C26   C30   A    
C7    C19   A    
Cu2   O4    S    
Cu1   O5    S    
C22   C24   A    
C32   N1    A    
C2    I2    S    
C20   C32   A    
C2    C36   S    
C6    C17   A    
C28   C29   A    
C15   H19   S    
C8    H4    S    
C39   H20   S    
C10   C13   A    
C16   H5    S    
C25   C27   A    
C12   O4    A    
C13   C17   A    
C2    C3    S    
Cu1   N1    S    
C17   H1    S    
C10   C11   A    
C37   H15   S    
C38   H16   S    
C27   C28   A    
C14   C15   A    
C13   C14   A    
C3    C4    S    
C33   O7    A    
