data_mof_unit_31492.cif
_audit_creation_date              2012-12-10T16:51:18-0500
_audit_creation_method            fapswitch 2.2
_symmetry_space_group_name_H-M    P1
_symmetry_Int_Tables_number       1
_space_group_crystal_system       triclinic
_cell_length_a                    27.855437
_cell_length_b                    8.729394
_cell_length_c                    7.487248
_cell_angle_alpha                 102.805541
_cell_angle_beta                  94.624532
_cell_angle_gamma                 93.96281
_cell_volume                      1762.44565956

loop_
_atom_site_label
_atom_site_type_symbol
_atom_type_description
_atom_site_fract_x
_atom_site_fract_y
_atom_site_fract_z
_atom_type_partial_charge
C1    C     C_R   0.497907 0.200301 0.454399 0.838939
C2    C     C_R   0.502092 0.799698 0.545601 0.838931
C3    C     C_R   0.102023 0.498915 0.522421 -0.106449
C4    C     C_R   0.897985 0.500943 0.477728 -0.106445
C5    C     C_R   0.122818 0.362093 0.438393 -0.033870
C6    C     C_R   0.877191 0.637766 0.561768 -0.033875
C7    C     C_R   0.093692 0.238200 0.320805 -0.174289
C8    C     C_R   0.906317 0.761653 0.679370 -0.174285
C9    C     C_R   0.132404 0.635128 0.612187 -0.193453
C10   C     C_R   0.867604 0.364736 0.387937 -0.193444
C11   C     C_R   0.354295 0.493366 0.506788 -0.164536
C12   C     C_R   0.645709 0.506617 0.493235 -0.164560
C13   C     C_R   0.970042 0.360081 0.410489 -0.079153
C14   C     C_R   0.029966 0.639770 0.589669 -0.079146
C15   C     C_R   0.978796 0.634846 0.592017 0.103239
C16   C     C_R   0.021212 0.365002 0.408149 0.103237
C17   C     C_R   0.949131 0.499616 0.489635 -0.049917
C18   C     C_R   0.050877 0.500236 0.510525 -0.049919
C19   C     C_R   0.938758 0.218688 0.348358 0.427800
C20   C     C_R   0.061248 0.781166 0.651784 0.427790
C21   C     C_R   0.888849 0.224074 0.317969 0.353754
C22   C     C_R   0.111158 0.775788 0.682155 0.353775
C23   C     C_R   0.407412 0.497071 0.501164 0.853779
C24   C     C_R   0.592589 0.502930 0.498839 0.853762
C25   C     C_R   0.043853 0.247170 0.290634 0.468185
C26   C     C_R   0.956155 0.752678 0.709539 0.468181
C27   C     C_2   0.490357 0.033782 0.434188 0.131744
C28   C     C_2   0.509640 0.966218 0.565812 0.131741
C29   C     C_R   0.173053 0.358242 0.457493 0.608445
C30   C     C_R   0.826956 0.641624 0.542659 0.608459
C31   C     C_R   0.183052 0.630368 0.609354 0.663506
C32   C     C_R   0.816956 0.369503 0.390742 0.663511
C33   C     C_R   0.285691 0.534295 0.692349 0.511792
C34   C     C_R   0.714322 0.465672 0.307717 0.511778
C35   C     C_R   0.335771 0.536524 0.678826 -0.282782
C36   C     C_R   0.664239 0.463509 0.321195 -0.282748
C37   C     C_R   0.321467 0.446375 0.346123 0.370062
C38   C     C_R   0.678535 0.553503 0.653943 0.370110
C39   C     C_R   0.271978 0.449212 0.359758 -0.210662
C40   C     C_R   0.728025 0.550615 0.640343 -0.210656
C41   C     C_R   0.253732 0.491249 0.531047 0.226020
C42   C     C_R   0.746275 0.508630 0.469052 0.226007
Cu1   Cu    Cu3+1 0.505380 0.517380 0.684380 1.192845
Cu2   Cu    Cu3+1 0.494620 0.482620 0.315620 1.192846
H1    H     H_    0.247194 0.416545 0.235586 0.213901
H2    H     H_    0.752808 0.583206 0.764540 0.213893
H3    H     H_    0.110104 0.140896 0.238848 0.192887
H4    H     H_    0.889904 0.858955 0.761334 0.192888
H5    H     H_    0.639780 0.428448 0.196336 0.222669
H6    H     H_    0.360231 0.571674 0.803654 0.222608
N1    N     N_R   0.202231 0.492022 0.538614 -0.444114
N2    N     N_R   0.797777 0.507849 0.461504 -0.444112
N3    N     N_2   0.486510 0.456430 0.038510 0.123098
N4    N     N_2   0.513490 0.543570 0.961490 0.123104
O1    O     O_R   0.503500 0.286120 0.619780 -0.547353
O2    O     O_R   0.496500 0.713880 0.380220 -0.547357
O3    O     O_R   0.494410 0.256780 0.308360 -0.523121
O4    O     O_R   0.505590 0.743220 0.691640 -0.523128
O5    O     O_R   0.434810 0.514700 0.655690 -0.575660
O6    O     O_R   0.565190 0.485300 0.344310 -0.575645
O7    O     O_R   0.425720 0.485350 0.344280 -0.518689
O8    O     O_R   0.574280 0.514650 0.655720 -0.518676
O9    O     O_2   0.192713 0.222360 0.391825 -0.481242
O10   O     O_2   0.807297 0.777505 0.608350 -0.481236
O11   O     O_2   0.787089 0.236226 0.332114 -0.451958
O12   O     O_2   0.212916 0.763651 0.667926 -0.451954
Cl1   Cl    Cl    0.339138 0.374925 0.124392 -0.495560
Cl2   Cl    Cl    0.660862 0.624883 0.875691 -0.495671
Cl3   Cl    Cl    0.444115 0.314323 0.906451 -0.346307
Cl4   Cl    Cl    0.555882 0.685685 0.093551 -0.346312
O13   O     O_3   0.732900 0.427029 0.139598 -0.672184
H7    H     H_    0.705850 0.390805 0.041464 0.359498
O14   O     O_3   0.267121 0.572960 0.860480 -0.672169
H8    H     H_    0.294175 0.609177 0.958600 0.359487
O15   O     O_3   0.861727 0.086824 0.227502 -0.619035
H9    H     H_    0.840671 0.113560 0.127642 0.364832
O16   O     O_3   0.138281 0.913043 0.772607 -0.619040
H10   H     H_    0.159345 0.886311 0.872448 0.364835
Cl5   Cl    Cl    0.957777 0.028867 0.346336 -0.474587
Cl6   Cl    Cl    0.042225 0.970983 0.653808 -0.474612
O17   O     O_3   0.018171 0.156222 0.132913 -0.679799
H11   H     H_    0.039982 0.086260 0.062111 0.382600
O18   O     O_3   0.981837 0.843621 0.867263 -0.679793
H12   H     H_    0.960031 0.913612 0.938044 0.382616
Cl7   Cl    Cl    0.448510 0.933849 0.245494 -0.484827
Cl8   Cl    Cl    0.551487 0.066150 0.754508 -0.484824

loop_
_geom_bond_atom_site_label_1
_geom_bond_atom_site_label_2
_ccdc_geom_bond_type
C31   O12   S    
C29   O9    S    
C26   O18   S    
C30   O10   S    
C8    C26   A    
O14   H8    S    
C14   C18   A    
C34   C42   A    
Cu1   Cu2   S    
N3    Cl3   S    
O17   H11   S    
C39   C41   A    
O16   H10   S    
C23   O5    A    
C19   C21   A    
C9    C22   A    
C3    C18   A    
C11   C37   A    
C27   Cl7   S    
C32   N2    A    
Cu1   O4    S    
Cu2   N3    S    
C12   C36   A    
Cu1   O5    S    
C39   H1    S    
C40   C42   A    
C25   O17   S    
C5    C29   A    
C10   C21   A    
C20   Cl6   S    
C14   C20   A    
C4    C6    A    
C5    C7    A    
C13   C19   A    
C15   C26   A    
C6    C8    A    
N3    N4    D    
C7    H3    S    
C40   H2    S    
O15   H9    S    
C8    H4    S    
C3    C9    A    
C1    O3    A    
Cu2   O2    S    
Cu1   N4    S    
O18   H12   S    
N4    Cl4   S    
Cu2   O3    S    
C24   O6    A    
C35   H6    S    
C19   Cl5   S    
C4    C17   A    
Cu1   O1    S    
C6    C30   A    
C38   Cl2   S    
C28   Cl8   S    
C20   C22   A    
C4    C10   A    
C29   N1    A    
C33   O14   S    
C16   C25   A    
C15   C17   A    
C30   N2    A    
C24   O8    A    
C22   O16   S    
C31   N1    A    
C3    C5    A    
C2    O4    A    
Cu2   O7    S    
C12   C24   S    
C7    C25   A    
C13   C17   A    
C33   C41   A    
C11   C35   A    
C1    O1    A    
O13   H7    S    
C37   C39   A    
C2    O2    A    
C38   C40   A    
Cu2   O6    S    
C37   Cl1   S    
C11   C23   S    
C33   C35   A    
C34   C36   A    
C12   C38   A    
C9    C31   A    
C10   C32   A    
C23   O7    A    
C16   C18   A    
C21   O15   S    
C13   C16   A    
C27   C28   D    
C1    C27   S    
C14   C15   A    
C2    C28   S    
C34   O13   S    
C41   N1    S    
C36   H5    S    
Cu1   O8    S    
C42   N2    S    
C32   O11   S    
