data_mof_unit_26637.cif
_audit_creation_date              2012-12-10T17:05:16-0500
_audit_creation_method            fapswitch 2.2
_symmetry_space_group_name_H-M    P1
_symmetry_Int_Tables_number       1
_space_group_crystal_system       triclinic
_cell_length_a                    10.119661
_cell_length_b                    10.661868
_cell_length_c                    15.530904
_cell_angle_alpha                 89.915803
_cell_angle_beta                  66.583378
_cell_angle_gamma                 88.550563
_cell_volume                      1537.12805382

loop_
_atom_site_label
_atom_site_type_symbol
_atom_type_description
_atom_site_fract_x
_atom_site_fract_y
_atom_site_fract_z
_atom_type_partial_charge
C1    C     C_R   0.493321 0.736647 0.507676 0.940535
C2    C     C_R   0.730173 0.457631 0.026099 0.099522
C3    C     C_R   0.593280 0.512237 0.081868 0.044951
C4    C     C_R   0.408256 0.503247 0.676035 0.865703
C5    C     C_R   0.830166 0.433031 0.066812 -0.195432
C6    C     C_R   0.793024 0.451073 0.162957 0.177769
C7    C     C_R   0.557596 0.529028 0.177890 -0.290421
C8    C     C_2   0.544207 0.065717 0.559122 0.199681
C9    C     C_2   0.516480 0.130052 0.492240 0.036900
C10   C     C_2   0.566674 0.931186 0.549736 -0.157467
C11   C     C_2   0.469465 0.865876 0.533264 -0.374219
C12   C     C_R   0.415809 0.521741 0.911511 0.110394
C13   C     C_2   0.063317 0.404719 0.518939 0.197733
C14   C     C_2   0.940828 0.402878 0.487574 0.272500
C15   C     C_R   0.502333 0.262894 0.499748 0.931413
C16   C     C_R   0.591914 0.498822 0.323399 0.874720
C17   C     C_R   0.348269 0.520448 0.777956 -0.078492
C18   C     C_R   0.652070 0.495051 0.219838 -0.084474
C19   C     C_R   0.191897 0.626027 0.921657 -0.210204
C20   C     C_R   0.224360 0.596372 0.827463 0.170212
C21   C     C_R   0.434176 0.475914 0.823149 -0.310611
C22   C     C_3   0.545416 0.126555 0.646890 -0.930722
C23   C     C_R   0.288701 0.592933 0.962655 0.127182
C24   C     C_3   0.527788 0.074532 0.399464 -0.954478
C25   C     C_3   0.079787 0.298887 0.578038 -0.815459
C26   C     C_3   0.922687 0.284939 0.441444 -0.850142
C27   C     C_3   0.859748 0.605340 0.555879 -0.652364
C28   C     C_3   0.902579 0.415416 0.202453 -0.882979
C29   C     C_3   0.904872 0.363447 0.869862 -0.951552
C30   C     C_3   0.132156 0.653586 0.780718 -0.876537
C31   C     C_R   0.522137 0.501730 0.948883 0.028394
C32   C     C_R   0.491923 0.541417 0.041941 0.076259
C33   C     C_R   0.362077 0.610767 0.091615 -0.210314
C34   C     C_R   0.262763 0.635626 0.052507 -0.231657
C35   C     C_R   0.659990 0.448960 0.894390 -0.233201
C36   C     C_R   0.763251 0.426641 0.931506 0.193002
H1    H     H_    0.166397 0.691165 0.092234 0.148265
H2    H     H_    0.544502 0.149034 0.346234 0.234720
H3    H     H_    0.621318 0.007753 0.370550 0.258122
H4    H     H_    0.427060 0.027326 0.407935 0.246632
H5    H     H_    0.135680 0.329833 0.622648 0.263544
H6    H     H_    0.971836 0.267020 0.625873 0.198327
H7    H     H_    0.139570 0.218771 0.532453 0.244021
H8    H     H_    0.029930 0.244072 0.396067 0.212558
H9    H     H_    0.864209 0.215320 0.495382 0.238131
H10   H     H_    0.864689 0.304964 0.395703 0.261605
H11   H     H_    0.751777 0.649370 0.592068 0.252826
H12   H     H_    0.663218 0.888290 0.552858 0.165386
H13   H     H_    0.892647 0.577856 0.613705 0.183057
H14   H     H_    0.930207 0.677996 0.510655 0.173900
H15   H     H_    0.451396 0.561555 0.223427 0.167267
H16   H     H_    0.924413 0.497296 0.238407 0.256846
H17   H     H_    0.861688 0.336692 0.251789 0.237999
H18   H     H_    0.007078 0.383769 0.146890 0.231966
H19   H     H_    0.995859 0.421568 0.866498 0.253451
H20   H     H_    0.914965 0.270294 0.899048 0.246596
H21   H     H_    0.914053 0.348660 0.796929 0.240864
H22   H     H_    0.096252 0.682591 0.961154 0.145911
H23   H     H_    0.368095 0.909841 0.538867 0.166373
H24   H     H_    0.198495 0.714568 0.722275 0.244588
H25   H     H_    0.084744 0.579242 0.752917 0.256179
H26   H     H_    0.041820 0.712164 0.830464 0.230659
H27   H     H_    0.519659 0.409494 0.785193 0.159998
H28   H     H_    0.692508 0.427103 0.821057 0.153615
H29   H     H_    0.136365 0.562328 0.452545 0.154858
H30   H     H_    0.336256 0.653131 0.159459 0.141338
H31   H     H_    0.936716 0.395337 0.024779 0.161347
H32   H     H_    0.637252 0.190249 0.629198 0.252567
H33   H     H_    0.442928 0.180350 0.684264 0.227257
H34   H     H_    0.556390 0.054739 0.695720 0.245030
N1    N     N_2   0.148330 0.498670 0.499030 -0.206827
N2    N     N_2   0.852680 0.498640 0.499000 -0.063962
O1    O     O_R   0.386950 0.680940 0.500010 -0.617056
O2    O     O_R   0.613110 0.680900 0.499990 -0.612354
O3    O     O_R   0.322330 0.500030 0.632270 -0.612558
O4    O     O_R   0.548480 0.499990 0.632240 -0.610311
O5    O     O_R   0.386890 0.319100 0.500010 -0.606638
O6    O     O_R   0.613050 0.319060 0.499990 -0.617184
O7    O     O_R   0.451520 0.500010 0.367760 -0.610995
O8    O     O_R   0.677670 0.499970 0.367730 -0.599819
Zn1   Zn    Zn3+2 0.349000 0.500030 0.500020 0.920581
Zn2   Zn    Zn3+2 0.651000 0.499970 0.499980 0.925177

loop_
_geom_bond_atom_site_label_1
_geom_bond_atom_site_label_2
_ccdc_geom_bond_type
C34   H1    S    
C19   C20   A    
C1    C11   S    
C5    H31   S    
C25   H7    S    
C26   H8    S    
C20   C30   S    
C29   C36   S    
C1    O2    A    
C3    C7    A    
C5    C6    A    
C15   O6    A    
C2    C36   A    
C17   C20   A    
C4    O3    A    
C26   H9    S    
C6    C28   S    
C35   C36   A    
C8    C9    D    
C30   H24   S    
C24   H2    S    
C35   H28   S    
C22   H33   S    
C27   H14   S    
C23   C34   A    
C13   C14   S    
C13   C25   S    
O2    Zn2   S    
C11   H23   S    
O1    Zn1   S    
C33   H30   S    
C19   H22   S    
C6    C18   A    
C4    O4    A    
O8    Zn2   S    
O4    Zn2   S    
O7    Zn1   S    
C28   H18   S    
O3    Zn1   S    
C13   N1    D    
H29   N1    S    
C12   C21   A    
C17   C21   A    
C16   O8    A    
C19   C23   A    
O6    Zn2   S    
C8    C22   S    
C31   C32   A    
C12   C23   A    
O5    Zn1   S    
C7    C18   A    
C33   C34   A    
C14   C26   S    
C22   H32   S    
C4    C17   S    
C16   C18   S    
C29   H21   S    
C30   H26   S    
C12   C31   A    
C10   H12   S    
C31   C35   A    
C2    C5    A    
C25   H5    S    
C27   H11   S    
C14   N2    D    
C25   H6    S    
C28   H17   S    
C9    C24   S    
C29   H20   S    
C29   H19   S    
C16   O7    A    
C1    O1    A    
C32   C33   A    
C2    C3    A    
C9    C15   S    
C7    H15   S    
C28   H16   S    
C15   O5    A    
C24   H4    S    
C3    C32   A    
C21   H27   S    
C10   C11   D    
C26   H10   S    
C8    C10   S    
C30   H25   S    
C24   H3    S    
C22   H34   S    
N2    Zn2   S    
C27   N2    S    
C27   H13   S    
N1    Zn1   S    
