data_mof_unit_15602.cif
_audit_creation_date              2012-10-26T20:02:37-0400
_audit_creation_method            fapswitch 2.2
_symmetry_space_group_name_H-M    P1
_symmetry_Int_Tables_number       1
_space_group_crystal_system       triclinic
_cell_length_a                    18.790044
_cell_length_b                    18.666607
_cell_length_c                    12.49559
_cell_angle_alpha                 90.325407
_cell_angle_beta                  130.352553
_cell_angle_gamma                 89.822569
_cell_volume                      3339.95330325

loop_
_atom_site_label
_atom_site_type_symbol
_atom_type_description
_atom_site_fract_x
_atom_site_fract_y
_atom_site_fract_z
_atom_type_partial_charge
C1    C     C_R   0.614682 0.899047 0.655346 0.570817
C2    C     C_R   0.687059 0.759556 0.066502 -0.003873
C3    C     C_R   0.172979 0.746984 0.049942 0.025947
C4    C     C_R   0.167379 0.237486 0.025953 -0.017649
C5    C     C_R   0.589355 0.238285 0.902068 0.160416
C6    C     C_R   0.602129 0.778108 0.934468 0.130521
C7    C     C_R   0.091332 0.712028 0.934585 0.150222
C8    C     C_R   0.086972 0.251814 0.886041 0.130287
C9    C     C_R   0.595288 0.215820 0.800604 0.098522
C10   C     C_R   0.600276 0.794049 0.822942 0.117368
C11   C     C_R   0.077464 0.701324 0.810674 0.100937
C12   C     C_R   0.615188 0.100133 0.656018 0.556297
C13   C     C_R   0.096436 0.279181 0.791173 0.115327
C14   C     C_R   0.281693 0.839816 0.109808 0.230798
C15   C     C_R   0.330140 0.201190 0.173873 0.217245
C16   C     C_R   0.831648 0.297335 0.175368 0.214137
C17   C     C_R   0.836979 0.703340 0.179034 0.209722
C18   C     C_R   0.265888 0.805106 0.280830 0.040812
C19   C     C_R   0.236559 0.168644 0.238047 0.092651
C20   C     C_R   0.744967 0.323449 0.254585 0.042158
C21   C     C_R   0.760864 0.689501 0.278208 0.092094
C22   C     C_R   0.690260 0.151555 0.756055 0.009803
C23   C     C_R   0.116176 0.400692 0.657301 0.566273
C24   C     C_R   0.687814 0.845215 0.753543 0.029079
C25   C     C_R   0.159200 0.673299 0.717174 -0.006882
C26   C     C_R   0.193630 0.351955 0.761357 0.030172
C27   C     C_R   0.680147 0.957649 0.288372 0.150727
C28   C     C_R   0.190763 0.493788 0.298282 0.103753
C29   C     C_R   0.340393 0.002727 0.620277 0.368155
C30   C     C_R   0.840525 0.501894 0.622651 0.370510
C31   C     C_R   0.302182 0.005948 0.686853 0.203570
C32   C     C_R   0.803868 0.495116 0.691540 0.203177
C33   C     C_R   0.385656 0.101004 0.345147 0.536676
C34   C     C_R   0.107213 0.605243 0.646304 0.550753
C35   C     C_R   0.382711 0.901308 0.341346 0.555513
C36   C     C_R   0.888369 0.602799 0.348673 0.539687
C37   C     C_R   0.886689 0.398210 0.346428 0.546694
C38   C     C_R   0.360135 0.997976 0.832917 0.099115
C39   C     C_R   0.863798 0.483011 0.836776 0.111834
C40   C     C_R   0.458924 0.994296 0.917672 -0.068563
C41   C     C_R   0.962052 0.489526 0.920378 -0.069407
C42   C     C_R   0.495035 0.994653 0.844914 0.093222
C43   C     C_R   0.996921 0.494611 0.846029 0.079858
C44   C     C_R   0.523682 0.989483 0.070864 -0.061367
C45   C     C_R   0.230840 0.779342 0.028735 0.002938
C46   C     C_R   0.027247 0.491101 0.074281 -0.049894
C47   C     C_R   0.617584 0.968442 0.141862 0.001766
C48   C     C_R   0.124700 0.485934 0.149545 0.046430
C49   C     C_R   0.650327 0.965318 0.068565 0.087903
C50   C     C_R   0.155466 0.476327 0.074930 0.101975
C51   C     C_R   0.593819 0.988080 0.929624 0.263564
C52   C     C_R   0.096676 0.491623 0.931536 0.256583
C53   C     C_R   0.501099 0.005260 0.158592 0.063216
C54   C     C_R   0.001212 0.499364 0.158624 0.061516
C55   C     C_R   0.655490 0.979476 0.366241 0.395672
C56   C     C_R   0.256025 0.244080 0.063625 0.018577
C57   C     C_R   0.158812 0.500900 0.372823 0.409704
C58   C     C_R   0.669406 0.281531 0.142643 0.249033
C59   C     C_R   0.691252 0.737675 0.178778 0.262073
C60   C     C_R   0.193189 0.756974 0.179770 0.249038
C61   C     C_R   0.161874 0.209054 0.125218 0.246883
C62   C     C_R   0.308886 0.848106 0.243806 -0.004875
C63   C     C_R   0.317847 0.158956 0.254824 -0.021254
C64   C     C_R   0.821394 0.337969 0.260524 -0.005793
C65   C     C_R   0.828725 0.666398 0.269577 -0.026053
C66   C     C_R   0.778637 0.142293 0.793642 0.063287
C67   C     C_R   0.758265 0.252642 0.068724 0.005297
C68   C     C_R   0.771537 0.843126 0.775429 0.057884
C69   C     C_R   0.221868 0.699558 0.700271 0.076825
C70   C     C_R   0.283543 0.367959 0.809452 0.065899
C71   C     C_R   0.290804 0.748127 0.798033 -0.115277
C72   C     C_R   0.361580 0.353611 0.948075 -0.100464
C73   C     C_R   0.858680 0.153875 0.932790 -0.096011
C74   C     C_R   0.855266 0.827653 0.908527 -0.124673
C75   C     C_R   0.300839 0.769582 0.914123 0.126973
C76   C     C_R   0.351670 0.321197 0.037748 0.155697
C77   C     C_R   0.851676 0.181117 0.029630 0.145714
C78   C     C_R   0.767566 0.752687 0.080402 0.022216
C79   C     C_R   0.855735 0.808140 0.016164 0.157249
C80   C     C_R   0.765594 0.210380 0.981636 0.059563
C81   C     C_R   0.770651 0.788713 0.983573 0.060372
C82   C     C_R   0.228720 0.754467 0.918756 0.062896
C83   C     C_R   0.265524 0.288517 0.981607 0.059946
C84   C     C_R   0.682962 0.193354 0.843804 -0.049020
C85   C     C_R   0.685204 0.809174 0.851274 -0.042941
C86   C     C_R   0.154227 0.708999 0.813948 -0.047307
C87   C     C_R   0.184536 0.305861 0.842346 -0.044353
C88   C     C_R   0.671716 0.255810 0.038670 0.028986
Cu1   Cu    Cu3+1 0.526340 0.000000 0.421010 0.999674
Cu2   Cu    Cu3+1 0.026340 0.500000 0.421010 1.057319
Cu3   Cu    Cu3+1 0.473640 0.000000 0.578990 1.033370
Cu4   Cu    Cu3+1 0.973640 0.500000 0.578990 1.039239
H1    H     H_    0.433746 0.024523 0.116779 0.202355
H2    H     H_    0.168550 0.102148 0.272671 0.258910
H3    H     H_    0.743178 0.315900 0.414828 0.217652
H4    H     H_    0.677807 0.384086 0.300254 0.236012
H5    H     H_    0.766936 0.706111 0.444163 0.250517
H6    H     H_    0.696054 0.638014 0.336463 0.271208
H7    H     H_    0.784927 0.992552 0.163586 0.228151
H8    H     H_    0.748513 0.913459 0.073665 0.252510
H9    H     H_    0.289567 0.488868 0.150897 0.239485
H10   H     H_    0.242743 0.405946 0.086280 0.247012
H11   H     H_    0.774796 0.879916 0.414160 0.260126
H12   H     H_    0.930422 0.507958 0.114306 0.194930
H13   H     H_    0.822030 0.961644 0.434711 0.264691
H14   H     H_    0.324281 0.458105 0.446489 0.239127
H15   H     H_    0.313738 0.548930 0.419365 0.229828
H16   H     H_    0.224521 0.975598 0.437271 0.301771
H17   H     H_    0.719524 0.490788 0.434311 0.309282
H18   H     H_    0.269267 0.945257 0.838995 0.300707
H19   H     H_    0.276976 0.034395 0.871096 0.270735
H20   H     H_    0.786630 0.411278 0.844750 0.275430
H21   H     H_    0.775722 0.497401 0.876331 0.268939
H22   H     H_    0.181263 0.043200 0.526169 0.327980
H23   H     H_    0.341025 0.765930 0.788833 0.113894
H24   H     H_    0.681888 0.535856 0.547444 0.321617
H25   H     H_    0.692979 0.035160 0.949767 0.301522
H26   H     H_    0.194368 0.535275 0.943555 0.304209
H27   H     H_    0.460652 0.204102 0.820446 0.241010
H28   H     H_    0.464861 0.290367 0.782511 0.236657
H29   H     H_    0.479969 0.818771 0.867800 0.212468
H30   H     H_    0.476574 0.730080 0.831533 0.255371
H31   H     H_    0.001986 0.641072 0.914298 0.232481
H32   H     H_    0.958230 0.724805 0.858075 0.234119
H33   H     H_    0.951927 0.273840 0.790194 0.234295
H34   H     H_    0.429108 0.374391 0.989981 0.141747
H35   H     H_    0.970385 0.190571 0.757263 0.256073
H36   H     H_    0.607751 0.272968 0.221366 0.313789
H37   H     H_    0.606321 0.809006 0.151924 0.348750
H38   H     H_    0.161522 0.730687 0.296767 0.312315
H39   H     H_    0.056858 0.265962 0.070104 0.355900
H40   H     H_    0.287282 0.940974 0.081329 0.329075
H41   H     H_    0.463739 0.195153 0.290203 0.336292
H42   H     H_    0.963931 0.306656 0.282303 0.336894
H43   H     H_    0.965290 0.687182 0.268315 0.337827
H44   H     H_    0.856840 0.105594 0.742920 0.238199
H45   H     H_    0.926129 0.136790 0.968579 0.167284
H46   H     H_    0.761630 0.153079 0.618268 0.240462
H47   H     H_    0.826813 0.898488 0.707082 0.261329
H48   H     H_    0.792893 0.814806 0.642891 0.227050
H49   H     H_    0.274152 0.694924 0.597684 0.210329
H50   H     H_    0.157416 0.696265 0.494351 0.223153
H51   H     H_    0.330949 0.454918 0.777467 0.241761
H52   H     H_    0.338110 0.377311 0.714640 0.225493
H53   H     H_    0.401506 0.845063 0.995727 0.260507
H54   H     H_    0.440712 0.763109 0.068147 0.261783
H55   H     H_    0.429620 0.386529 0.207107 0.222331
H56   H     H_    0.920865 0.835928 0.931001 0.123240
H57   H     H_    0.487308 0.314887 0.214819 0.250053
H58   H     H_    0.988828 0.191423 0.200251 0.282911
H59   H     H_    0.938332 0.115650 0.195056 0.213199
H60   H     H_    0.958271 0.870565 0.176422 0.217265
H61   H     H_    0.993880 0.789063 0.169946 0.267025
H62   H     H_    0.466245 0.182049 0.627456 0.264950
H63   H     H_    0.529279 0.221773 0.588956 0.224732
H64   H     H_    0.521344 0.783699 0.607557 0.236602
H65   H     H_    0.468873 0.828228 0.660430 0.279164
H66   H     H_    0.953387 0.647927 0.676399 0.276177
H67   H     H_    0.314508 0.761777 0.465915 0.230921
H68   H     H_    0.979580 0.700013 0.593739 0.236087
H69   H     H_    0.037671 0.275453 0.582600 0.219930
H70   H     H_    0.969761 0.313352 0.614483 0.261447
H71   H     H_    0.703217 0.004344 0.551564 0.402099
H72   H     H_    0.283110 0.516093 0.556805 0.299424
H73   H     H_    0.238355 0.831360 0.408966 0.226083
H74   H     H_    0.217089 0.175007 0.379174 0.249077
N1    N     N_R   0.566260 0.000000 0.302220 -0.269709
N2    N     N_3   0.247820 0.449126 0.144246 -0.577577
N3    N     N_3   0.770288 0.925174 0.361060 -0.565530
N4    N     N_3   0.288975 0.498631 0.371228 -0.602951
N5    N     N_3   0.315668 0.988344 0.890929 -0.607233
N6    N     N_3   0.823202 0.458797 0.895459 -0.606430
N7    N     N_3   0.499385 0.251581 0.861308 -0.533298
N8    N     N_3   0.515977 0.770161 0.907403 -0.622938
N9    N     N_3   0.017656 0.695522 0.936667 -0.535736
N10   N     N_3   0.996602 0.229567 0.835139 -0.610320
N11   N     N_3   0.786849 0.114036 0.695029 -0.611369
N12   N     N_R   0.066260 0.500000 0.302220 -0.228631
N13   N     N_3   0.773541 0.860910 0.666449 -0.556654
N14   N     N_3   0.218005 0.674972 0.587299 -0.566475
N15   N     N_3   0.295582 0.407392 0.724460 -0.559710
N16   N     N_3   0.388112 0.800756 0.031217 -0.546682
N17   N     N_3   0.423943 0.331570 0.186239 -0.595500
N18   N     N_3   0.928343 0.170787 0.176502 -0.603302
N19   N     N_3   0.940600 0.816203 0.158698 -0.604190
N20   N     N_3   0.513262 0.222932 0.654886 -0.635027
N21   N     N_3   0.512816 0.785841 0.682191 -0.633210
N22   N     N_3   0.982853 0.696212 0.680186 -0.630577
N23   N     N_R   0.434410 0.000000 0.697680 -0.222580
N24   N     N_3   0.017671 0.272896 0.643398 -0.635160
N25   N     N_R   0.934410 0.500000 0.697680 -0.229252
N26   N     N_3   0.294398 0.812082 0.418176 -0.623008
N27   N     N_3   0.227670 0.135074 0.331734 -0.550468
N28   N     N_3   0.740707 0.356043 0.354511 -0.586768
N29   N     N_3   0.760450 0.662687 0.385121 -0.556874
N30   N     N_3   0.745787 0.946180 0.138903 -0.584829
O1    O     O_R   0.608610 0.924520 0.551740 -0.464096
O2    O     O_R   0.435880 0.924530 0.314850 -0.479794
O3    O     O_R   0.935880 0.575470 0.314850 -0.502042
O4    O     O_R   0.935880 0.424530 0.314850 -0.493881
O5    O     O_R   0.391380 0.075460 0.448260 -0.433120
O6    O     O_R   0.391380 0.924540 0.448260 -0.435779
O7    O     O_R   0.891380 0.575460 0.448260 -0.433683
O8    O     O_R   0.891380 0.424540 0.448260 -0.436570
O9    O     O_3   0.284161 0.999219 0.476258 -0.645356
O10   O     O_3   0.783480 0.506495 0.478530 -0.635384
O11   O     O_3   0.207582 0.015244 0.611823 -0.721849
O12   O     O_R   0.608610 0.075480 0.551740 -0.515196
O13   O     O_3   0.709159 0.497891 0.619423 -0.721005
O14   O     O_3   0.639043 0.003527 0.880971 -0.649151
O15   O     O_3   0.141083 0.502098 0.880043 -0.644861
O16   O     O_3   0.591917 0.267061 0.129522 -0.666620
O17   O     O_3   0.627574 0.760369 0.192586 -0.696859
O18   O     O_3   0.144616 0.716554 0.206615 -0.671690
O19   O     O_3   0.084809 0.218886 0.114808 -0.718112
O20   O     O_3   0.292094 0.894599 0.047289 -0.672930
O21   O     O_3   0.408996 0.193581 0.188246 -0.656572
O22   O     O_3   0.906860 0.308322 0.181758 -0.654047
O23   O     O_R   0.108610 0.424520 0.551740 -0.438510
O24   O     O_3   0.904359 0.684028 0.171352 -0.654812
O25   O     O_3   0.725083 0.979442 0.509093 -0.711761
O26   O     O_3   0.217738 0.510036 0.516450 -0.623944
O27   O     O_R   0.108610 0.575480 0.551740 -0.417932
O28   O     O_R   0.564110 0.924510 0.685150 -0.455692
O29   O     O_R   0.564110 0.075490 0.685150 -0.453597
O30   O     O_R   0.064110 0.424510 0.685150 -0.454250
O31   O     O_R   0.064110 0.575490 0.685150 -0.471271
O32   O     O_R   0.435880 0.075470 0.314850 -0.505847

loop_
_geom_bond_atom_site_label_1
_geom_bond_atom_site_label_2
_ccdc_geom_bond_type
C73   C77   A    
C83   C87   A    
Cu2   N12   S    
C10   C85   A    
C8    C13   A    
H49   N14   S    
C41   C43   A    
C1    O1    A    
C45   C82   A    
C51   O14   S    
H74   N27   S    
C55   N1    A    
C4    C8    A    
C33   O32   A    
H48   N13   S    
C61   O19   S    
H46   N11   S    
C82   C86   A    
H59   N18   S    
C39   C41   A    
H32   N9    S    
C28   C57   A    
C7    C11   A    
Cu1   O2    S    
Cu3   N23   S    
C18   N26   S    
C67   C88   A    
H24   O13   S    
H61   N19   S    
C1    O28   A    
H51   N15   S    
C54   H12   S    
H25   O14   S    
C21   C59   A    
C3    C7    A    
C69   N14   S    
C57   N12   A    
C27   C55   A    
C43   C52   A    
C37   O4    A    
Cu1   O12   S    
Cu2   O4    S    
H33   N10   S    
C11   C86   A    
H55   N17   S    
H2    N27   S    
C12   C22   S    
C4    C56   A    
C77   N18   S    
C29   O9    S    
H22   O11   S    
C23   C26   S    
C69   C71   A    
C60   O18   S    
C22   C66   A    
C5    C88   A    
C44   C53   A    
C53   N1    A    
H50   N14   S    
C8    N10   S    
Cu4   O31   S    
C19   C63   A    
C26   C87   A    
C49   C51   A    
C7    N9    S    
H27   N7    S    
C52   O15   S    
C50   C52   A    
C41   C46   A    
C36   O3    A    
C16   O22   S    
H40   O20   S    
C36   O7    A    
C15   O21   S    
C76   N17   S    
C24   C85   A    
C27   N3    S    
Cu4   O8    S    
C44   C47   A    
C80   C84   A    
C42   C51   A    
C55   O25   S    
C77   C80   A    
H18   N5    S    
C40   C42   A    
C43   N25   A    
Cu3   O29   S    
H14   N4    S    
C13   C87   A    
C2    C6    A    
C76   C83   A    
C20   N28   S    
C14   C45   A    
C23   O23   A    
C57   O26   S    
H8    N30   S    
C66   N11   S    
C46   C48   A    
C71   C75   A    
H54   N16   S    
H39   O19   S    
C11   N22   S    
C30   C32   A    
C38   N5    S    
C47   C49   A    
C9    N20   S    
H73   N26   S    
C79   C81   A    
C2    C59   A    
H60   N19   S    
H58   N18   S    
Cu2   O3    S    
C6    N8    S    
H30   N8    S    
C66   C73   A    
C53   H1    S    
H44   N11   S    
C3    C45   A    
H41   O21   S    
C13   N24   S    
C54   N12   A    
C58   C88   A    
H26   O15   S    
C22   C84   A    
C20   C64   A    
H9    N2    S    
C31   O11   S    
C39   N6    S    
C2    C78   A    
H72   O26   S    
H62   N20   S    
C70   N15   S    
Cu2   Cu4   S    
H29   N8    S    
H53   N16   S    
C33   C63   S    
H11   N3    S    
C46   C54   A    
C59   O17   S    
C10   N21   S    
C14   O20   S    
C72   C76   A    
C35   O6    A    
C16   C67   A    
C30   N25   A    
C21   N29   S    
C48   C50   A    
C17   O24   S    
Cu2   O23   S    
Cu3   O5    S    
Cu4   O7    S    
H13   N3    S    
H21   N6    S    
C28   N4    S    
C23   O30   A    
C19   N27   S    
H3    N28   S    
C74   C79   A    
C50   N2    S    
C26   C70   A    
C29   N23   A    
H4    N28   S    
C25   C69   A    
H68   N22   S    
Cu1   O32   S    
C20   C58   A    
C12   O12   A    
H70   N24   S    
C37   C64   S    
C34   O27   A    
C56   C83   A    
H57   N17   S    
H64   N21   S    
C27   C47   A    
H35   N10   S    
H52   N15   S    
C28   C48   A    
H10   N2    S    
C79   N19   S    
C21   C65   A    
C36   C65   S    
C5    N7    S    
H67   N26   S    
C18   C62   A    
C67   C80   A    
H65   N21   S    
C5    C9    A    
H69   N24   S    
H63   N20   S    
H66   N22   S    
C6    C10   A    
H31   N9    S    
Cu4   N25   S    
C75   C82   A    
C25   C86   A    
C4    C61   A    
C49   N30   S    
C58   O16   S    
C74   H56   S    
Cu1   O1    S    
C25   C34   S    
C68   N13   S    
C17   C65   A    
C31   C38   A    
C15   C56   A    
H5    N29   S    
C34   O31   A    
C42   N23   A    
Cu2   O27   S    
C29   C31   A    
H42   O22   S    
H36   O16   S    
C38   C40   A    
C32   O13   S    
C75   N16   S    
C78   C81   A    
C12   O29   A    
H20   N6    S    
C30   O10   S    
C73   H45   S    
C19   C61   A    
H43   O24   S    
H7    N30   S    
C33   O5    A    
C17   C78   A    
C37   O8    A    
H6    N29   S    
H38   O18   S    
C35   C62   S    
H19   N5    S    
H37   O17   S    
H17   O10   S    
C18   C60   A    
Cu3   O6    S    
H47   N13   S    
C24   C68   A    
C9    C84   A    
Cu4   O30   S    
C71   H23   S    
Cu1   N1    S    
H28   N7    S    
C40   C44   A    
C1    C24   S    
Cu1   Cu3   S    
H71   O25   S    
C72   H34   S    
C32   C39   A    
C15   C63   A    
C70   C72   A    
C16   C64   A    
Cu3   O28   S    
C3    C60   A    
C68   C74   A    
C81   C85   A    
H16   O9    S    
C35   O2    A    
H15   N4    S    
C14   C62   A    
