data_mof_unit_15847.cif
_audit_creation_date              2012-12-11T15:50:41-0500
_audit_creation_method            fapswitch 2.2
_symmetry_space_group_name_H-M    P1
_symmetry_Int_Tables_number       1
_space_group_crystal_system       triclinic
_cell_length_a                    7.054347
_cell_length_b                    14.743267
_cell_length_c                    15.986133
_cell_angle_alpha                 90.086944
_cell_angle_beta                  89.968869
_cell_angle_gamma                 89.923712
_cell_volume                      1662.62008089

loop_
_atom_site_label
_atom_site_type_symbol
_atom_type_description
_atom_site_fract_x
_atom_site_fract_y
_atom_site_fract_z
_atom_type_partial_charge
O1    O     O_R   0.638140 0.833910 0.163320 -0.538523
O2    O     O_R   0.361860 0.166090 0.836680 -0.543176
O3    O     O_R   0.361860 0.166090 0.663320 -0.543766
O4    O     O_R   0.638140 0.833910 0.336680 -0.540709
O5    O     O_R   0.138140 0.666090 0.336680 -0.537162
O6    O     O_R   0.861860 0.333910 0.663320 -0.541004
O7    O     O_R   0.861860 0.333910 0.836680 -0.537193
O8    O     O_R   0.138140 0.666090 0.163320 -0.539525
O9    O     O_R   0.308390 0.844930 0.336080 -0.541112
O10   O     O_R   0.691610 0.155070 0.663920 -0.540491
O11   O     O_R   0.691610 0.155070 0.836080 -0.540636
O12   O     O_R   0.308390 0.844930 0.163920 -0.545754
O13   O     O_R   0.808390 0.655070 0.163920 -0.545128
O14   O     O_R   0.191610 0.344930 0.836080 -0.545410
O15   O     O_R   0.191610 0.344930 0.663920 -0.540931
O16   O     O_R   0.808390 0.655070 0.336080 -0.544551
C1    C     C_R   0.478155 0.869733 0.361907 0.699126
C2    C     C_R   0.521631 0.135616 0.632949 0.680511
C3    C     C_R   0.520636 0.129983 0.862001 0.708228
C4    C     C_R   0.477881 0.864039 0.133088 0.687438
C5    C     C_R   0.978348 0.630050 0.138254 0.696332
C6    C     C_R   0.021471 0.363945 0.867341 0.669611
C7    C     C_R   0.021614 0.369879 0.638252 0.699845
C8    C     C_R   0.978532 0.635392 0.366862 0.673254
O17   O     O_3   0.471620 0.691320 0.250000 -0.379989
O18   O     O_3   0.528380 0.308680 0.750000 -0.378308
O19   O     O_3   0.971620 0.808680 0.250000 -0.379097
O20   O     O_3   0.028380 0.191320 0.750000 -0.383927
V1    V     V_3+5 0.196770 0.760880 0.250000 1.353546
V2    V     V_3+5 0.803230 0.239120 0.750000 1.352134
V3    V     V_3+5 0.696770 0.739120 0.250000 1.347777
V4    V     V_3+5 0.303230 0.260880 0.750000 1.337833
C9    C     C_R   0.839764 0.556353 0.491798 -0.239305
C10   C     C_R   0.169299 0.461832 0.524963 -0.228874
C11   C     C_R   0.159728 0.441547 0.993358 -0.235608
C12   C     C_R   0.828529 0.534167 0.028172 -0.215996
C13   C     C_R   0.329352 0.977199 0.036985 -0.237835
C14   C     C_R   0.658719 0.003635 0.946672 -0.238762
C15   C     C_R   0.659335 0.058057 0.506497 -0.236667
C16   C     C_R   0.330930 0.961491 0.475764 -0.223863
H1    H     H_    0.722769 0.599830 0.481601 0.146418
H2    H     H_    0.301638 0.427913 0.539379 0.124425
H3    H     H_    0.275550 0.396984 0.983849 0.143611
H4    H     H_    0.695232 0.566566 0.043822 0.122612
H5    H     H_    0.196611 0.964183 0.068882 0.128412
H6    H     H_    0.774887 0.008531 0.904629 0.128578
H7    H     H_    0.775256 0.102681 0.515422 0.143234
H8    H     H_    0.198931 0.927001 0.462057 0.124610
C17   C     C_R   0.846149 0.497982 0.561989 0.094534
C18   C     C_R   0.169125 0.533574 0.466798 0.095184
C19   C     C_R   0.152812 0.500160 0.063558 0.091273
C20   C     C_R   0.829789 0.462828 0.969494 0.087190
C21   C     C_R   0.329013 0.032581 0.965055 0.134469
C22   C     C_R   0.654214 0.935746 0.008846 0.104782
C23   C     C_R   0.651355 0.999629 0.436220 0.094215
C24   C     C_R   0.330727 0.034318 0.532849 0.090305
C25   C     C_R   0.008866 0.442416 0.573263 -0.075866
C26   C     C_R   0.994861 0.570531 0.439496 -0.084620
C27   C     C_R   0.990410 0.555977 0.074496 -0.074570
C28   C     C_R   0.004755 0.427640 0.940908 -0.082752
C29   C     C_R   0.502913 0.057368 0.927614 -0.079173
C30   C     C_R   0.490925 0.928275 0.060746 -0.083587
C31   C     C_R   0.490569 0.942542 0.426723 -0.077750
C32   C     C_R   0.505346 0.071185 0.559926 -0.083949
C33   C     C_3   0.685882 0.502190 0.625817 -0.371453
C34   C     C_3   0.751642 0.538031 0.711319 -0.288775
C35   C     C_3   0.582806 0.551874 0.769979 -0.760714
H9    H     H_    0.500628 0.488132 0.776363 0.243722
H10   H     H_    0.633247 0.572421 0.832838 0.208559
H11   H     H_    0.488051 0.605878 0.745451 0.219265
H12   H     H_    0.852388 0.490285 0.741050 0.191872
H13   H     H_    0.825169 0.604081 0.703005 0.184036
H14   H     H_    0.574376 0.549192 0.605323 0.179630
H15   H     H_    0.614396 0.435648 0.631455 0.201674
C36   C     C_3   0.348426 0.588317 0.462586 -0.338332
C37   C     C_3   0.324478 0.673512 0.518907 -0.283229
C38   C     C_3   0.503530 0.730034 0.530570 -0.802627
H16   H     H_    0.599337 0.698985 0.577349 0.222001
H17   H     H_    0.579396 0.738349 0.470528 0.237618
H18   H     H_    0.464479 0.798054 0.554934 0.221003
H19   H     H_    0.214574 0.718484 0.491393 0.192142
H20   H     H_    0.273260 0.652875 0.581909 0.189697
H21   H     H_    0.460650 0.543553 0.484585 0.140666
H22   H     H_    0.394839 0.605294 0.398602 0.205843
C39   C     C_3   0.307334 0.493271 0.129705 -0.374308
C40   C     C_3   0.230344 0.455997 0.212783 -0.285511
C41   C     C_3   0.390827 0.436706 0.274354 -0.767114
H23   H     H_    0.486160 0.383200 0.249139 0.220499
H24   H     H_    0.474653 0.499131 0.285986 0.237132
H25   H     H_    0.330835 0.412643 0.334579 0.213931
H26   H     H_    0.130796 0.504914 0.241952 0.188316
H27   H     H_    0.152122 0.391795 0.200978 0.185231
H28   H     H_    0.419295 0.445940 0.109939 0.177776
H29   H     H_    0.380200 0.559043 0.138511 0.201577
C42   C     C_3   0.651614 0.407228 0.964969 -0.339364
C43   C     C_3   0.678348 0.320356 0.018385 -0.280572
C44   C     C_3   0.498140 0.265199 0.031907 -0.805461
H30   H     H_    0.406747 0.296625 0.080287 0.222768
H31   H     H_    0.417532 0.258383 0.972930 0.234306
H32   H     H_    0.536562 0.196481 0.054677 0.218521
H33   H     H_    0.784094 0.275417 0.987687 0.192901
H34   H     H_    0.735775 0.338818 0.080951 0.190205
H35   H     H_    0.539565 0.450246 0.989875 0.142463
H36   H     H_    0.603254 0.392459 0.900708 0.206467
C45   C     C_3   0.145571 0.035740 0.917076 -0.317834
C46   C     C_3   0.137635 0.957061 0.852018 -0.325317
C47   C     C_3   0.249299 0.973602 0.771765 -0.689876
H37   H     H_    0.202148 0.037313 0.742013 0.250636
H38   H     H_    0.403852 0.975144 0.783745 0.204982
H39   H     H_    0.222056 0.917324 0.727110 0.188663
H40   H     H_    0.191025 0.893364 0.880829 0.193214
H41   H     H_    0.989683 0.944330 0.832431 0.173561
H42   H     H_    0.033570 0.028330 0.964402 0.109278
H43   H     H_    0.105920 0.101564 0.889864 0.203446
C48   C     C_3   0.812034 0.865585 0.007762 -0.359865
C49   C     C_3   0.745703 0.776188 0.967895 -0.301333
C50   C     C_3   0.910920 0.725896 0.926629 -0.783665
H44   H     H_    0.965282 0.765284 0.872601 0.219058
H45   H     H_    0.027819 0.715319 0.972053 0.227343
H46   H     H_    0.862714 0.659314 0.902761 0.226542
H47   H     H_    0.679863 0.732626 0.016387 0.191139
H48   H     H_    0.637339 0.789579 0.918872 0.196515
H49   H     H_    0.930417 0.890711 0.970354 0.169829
H50   H     H_    0.878340 0.854877 0.069620 0.191349
C51   C     C_3   0.803658 0.007009 0.368956 -0.371336
C52   C     C_3   0.722788 0.044210 0.286459 -0.283664
C53   C     C_3   0.876459 0.052823 0.219614 -0.757349
H51   H     H_    0.989610 0.099816 0.240917 0.218066
H52   H     H_    0.939748 0.985492 0.205725 0.242386
H53   H     H_    0.813372 0.080039 0.161138 0.210025
H54   H     H_    0.609503 0.999515 0.261874 0.183875
H55   H     H_    0.659739 0.112288 0.297884 0.183050
H56   H     H_    0.916377 0.054226 0.387985 0.172298
H57   H     H_    0.877036 0.941366 0.359698 0.205748
C54   C     C_3   0.151932 0.090154 0.535393 -0.340305
C55   C     C_3   0.180447 0.176587 0.481507 -0.280970
C56   C     C_3   0.001312 0.232721 0.467805 -0.801636
H58   H     H_    0.921714 0.240964 0.526956 0.236208
H59   H     H_    0.040850 0.300723 0.443889 0.221457
H60   H     H_    0.908542 0.201437 0.420034 0.220312
H61   H     H_    0.286877 0.221260 0.511823 0.192457
H62   H     H_    0.237565 0.157314 0.419052 0.190121
H63   H     H_    0.040375 0.047495 0.509233 0.145946
H64   H     H_    0.101976 0.105582 0.599395 0.199366

loop_
_geom_bond_atom_site_label_1
_geom_bond_atom_site_label_2
_ccdc_geom_bond_type
C51   H57   S    
O17   V3    S    
C41   H23   S    
O18   V4    S    
C52   C53   S    
C43   H34   S    
O12   V1    S    
O19   V1    S    
C42   C43   S    
C10   H2    S    
C12   C27   A    
C2    C32   S    
C19   C39   S    
C44   H30   S    
C33   H14   S    
C54   C55   S    
C46   H41   S    
C38   H16   S    
O16   V3    S    
C15   C32   A    
C56   H59   S    
O11   C3    A    
C9    C26   A    
C16   C31   A    
C17   C33   S    
O3    C2    A    
O8    V1    S    
C45   H42   S    
C3    C29   S    
C5    C27   S    
C40   H26   S    
C50   H45   S    
C6    C28   S    
C36   H22   S    
C46   C47   S    
C9    C17   A    
C48   C49   S    
O1    V3    S    
C17   C25   A    
C49   C50   S    
C20   C42   S    
O2    V4    S    
C16   H8    S    
C55   H62   S    
C20   C28   A    
C39   H28   S    
C15   C23   A    
C23   C51   S    
O11   V2    S    
C16   C24   A    
C23   C31   A    
C10   C25   A    
C47   H37   S    
C24   C32   A    
C11   H3    S    
C12   C20   A    
O9    V1    S    
C14   C29   A    
C13   C21   A    
C54   H63   S    
C34   C35   S    
O16   C8    A    
O7    V2    S    
C43   H33   S    
C22   C48   S    
C47   H38   S    
C21   C29   A    
C44   H31   S    
C42   H35   S    
C13   C30   A    
O5    V1    S    
C46   H40   S    
C38   H17   S    
O17   V1    S    
C56   H60   S    
C34   H13   S    
C10   C18   A    
C48   H49   S    
C49   H47   S    
O19   V3    S    
C35   H9    S    
C18   C26   A    
C45   H43   S    
O20   V4    S    
C37   C38   S    
C50   H46   S    
C37   H20   S    
C40   C41   S    
C22   C30   A    
C39   C40   S    
C33   H15   S    
C11   C28   A    
C35   H10   S    
C36   C37   S    
C53   H52   S    
C55   H61   S    
C39   H29   S    
O10   V2    S    
C34   H12   S    
C14   C22   A    
C52   H55   S    
C43   C44   S    
O12   C4    A    
O8    C5    A    
O13   C5    A    
C49   H48   S    
O4    C1    A    
O9    C1    A    
C54   H64   S    
O6    V2    S    
O18   V2    S    
C41   H24   S    
C11   C19   A    
C51   C52   S    
C47   H39   S    
C12   H4    S    
C19   C27   A    
C13   H5    S    
C53   H51   S    
C44   H32   S    
C42   H36   S    
C15   H7    S    
C56   H58   S    
C38   H18   S    
C51   H56   S    
C7    C25   S    
O1    C4    A    
C48   H50   S    
O2    C3    A    
O13   V3    S    
O14   V4    S    
C55   C56   S    
O15   V4    S    
C37   H19   S    
O7    C6    A    
C45   C46   S    
C35   H11   S    
C9    H1    S    
O14   C6    A    
O20   V2    S    
C53   H53   S    
C40   H27   S    
C18   C36   S    
C1    C31   S    
C36   H21   S    
O5    C8    A    
C52   H54   S    
O10   C2    A    
O6    C7    A    
O15   C7    A    
C4    C30   S    
O3    V4    S    
C24   C54   S    
C14   H6    S    
O4    V3    S    
C21   C45   S    
C8    C26   S    
C33   C34   S    
C41   H25   S    
C50   H44   S    
