data_mof_unit_20968.cif
_audit_creation_date              2013-03-05T16:34:42-0500
_audit_creation_method            fapswitch 2.2
_symmetry_space_group_name_H-M    P1
_symmetry_Int_Tables_number       1
_space_group_crystal_system       triclinic
_cell_length_a                    15.044138
_cell_length_b                    14.286759
_cell_length_c                    8.922346
_cell_angle_alpha                 89.691905
_cell_angle_beta                  92.831622
_cell_angle_gamma                 89.75165
_cell_volume                      1915.30796986

loop_
_atom_site_label
_atom_site_type_symbol
_atom_site_description
_atom_site_fract_x
_atom_site_fract_y
_atom_site_fract_z
_atom_type_partial_charge
O1    O     O_R   0.369060 0.579480 0.500010 -0.564837
O2    O     O_R   0.630940 0.420520 0.499990 -0.580443
O3    O     O_R   0.630940 0.579480 0.499990 -0.561211
O4    O     O_R   0.369060 0.420520 0.500010 -0.541439
C1    C     C_R   0.327415 0.500003 0.502795 0.926611
C2    C     C_R   0.671877 0.500282 0.500359 0.938647
O5    O     O_R   0.500000 0.579460 0.285340 -0.578915
O6    O     O_R   0.500000 0.420540 0.714660 -0.580826
O7    O     O_R   0.500000 0.579460 0.714660 -0.599752
O8    O     O_R   0.500000 0.420540 0.285340 -0.586542
C3    C     C_R   0.467027 0.104400 0.375642 -0.304122
C4    C     C_R   0.570721 0.894587 0.569341 -0.295530
C5    C     C_R   0.532936 0.103102 0.624028 -0.287537
C6    C     C_R   0.430704 0.896412 0.430564 -0.303829
C7    C     C_R   0.499951 0.500153 0.218767 0.931432
C8    C     C_R   0.500514 0.499836 0.781264 0.908154
Zn1   Zn    Zn3+2 0.500000 0.606140 0.500000 1.079808
Zn2   Zn    Zn3+2 0.500000 0.393860 0.500000 1.086302
N1    N     N_R   0.500000 0.252470 0.500000 -0.195105
N2    N     N_R   0.500000 0.747530 0.500000 -0.202046
C9    C     C_R   0.500623 0.052532 0.499552 0.066225
C10   C     C_R   0.500837 0.946713 0.499833 0.067762
C11   C     C_1   0.500335 0.500200 0.065402 -0.117837
C12   C     C_1   0.500548 0.499749 0.934652 -0.121271
C13   C     C_R   0.094117 0.588853 0.530402 -0.230979
C14   C     C_R   0.911083 0.452707 0.597871 -0.267203
C15   C     C_R   0.899908 0.567969 0.396599 -0.238853
C16   C     C_R   0.087969 0.424677 0.464592 -0.314773
H1    H     H_    0.060210 0.653281 0.557307 0.187496
H2    H     H_    0.951432 0.410273 0.676316 0.177376
H3    H     H_    0.931690 0.614272 0.319123 0.179252
H4    H     H_    0.046533 0.364189 0.442069 0.159369
C17   C     C_R   0.186020 0.584069 0.544772 0.485600
C18   C     C_R   0.819487 0.450476 0.602827 0.471760
C19   C     C_R   0.807598 0.563202 0.395482 0.495563
C20   C     C_R   0.181001 0.418035 0.471443 0.494829
C21   C     C_R   0.230301 0.500318 0.506886 -0.275835
C22   C     C_R   0.767475 0.502899 0.497668 -0.259512
C23   C     C_R   0.046001 0.509473 0.490835 0.019067
C24   C     C_R   0.950724 0.510913 0.495096 0.005573
C25   C     C_R   0.465662 0.203425 0.377283 0.387525
C26   C     C_R   0.569269 0.795690 0.569918 0.409017
C27   C     C_R   0.532910 0.201974 0.623092 0.388297
C28   C     C_R   0.431174 0.797609 0.429447 0.397632
H5    H     H_    0.441044 0.068140 0.276749 0.195026
H6    H     H_    0.626906 0.930256 0.623385 0.190433
H7    H     H_    0.558832 0.065957 0.723031 0.195279
H8    H     H_    0.375067 0.933691 0.376232 0.189234
N3    N     N_R   0.426670 0.250671 0.248064 0.217813
O9    O     O_R   0.361979 0.309726 0.262809 -0.351304
O10   O     O_R   0.439676 0.218236 0.115049 -0.345245
N4    N     N_R   0.641942 0.746808 0.644304 0.228888
O11   O     O_R   0.629759 0.702887 0.769489 -0.405848
O12   O     O_R   0.722819 0.764792 0.607935 -0.367067
N5    N     N_R   0.570223 0.247915 0.752656 0.221043
O13   O     O_R   0.638111 0.301972 0.738621 -0.322596
O14   O     O_R   0.554030 0.216466 0.885479 -0.343084
N6    N     N_R   0.358500 0.751476 0.351446 0.240350
O15   O     O_R   0.373773 0.699552 0.236469 -0.380746
O16   O     O_R   0.277994 0.782821 0.365239 -0.354905
O17   O     O_3   0.231882 0.662288 0.595319 -0.544868
C29   C     C_3   0.244139 0.655983 0.752783 -0.201344
H9    H     H_    0.283692 0.592780 0.787623 0.131811
H10   H     H_    0.179205 0.656209 0.807460 0.154000
H11   H     H_    0.281982 0.718130 0.793290 0.210666
O18   O     O_3   0.781370 0.396975 0.710999 -0.538608
C30   C     C_3   0.780142 0.449731 0.844053 -0.226928
H12   H     H_    0.740291 0.515181 0.826806 0.158234
H13   H     H_    0.848794 0.466232 0.888182 0.135228
H14   H     H_    0.748087 0.407458 0.930761 0.210816
O19   O     O_3   0.756670 0.621471 0.301105 -0.550828
C31   C     C_3   0.746510 0.578713 0.159515 -0.287976
H15   H     H_    0.714655 0.508741 0.167418 0.119126
H16   H     H_    0.811559 0.572889 0.106143 0.152986
H17   H     H_    0.702176 0.623178 0.085694 0.233039
O20   O     O_3   0.226312 0.333059 0.457353 -0.555865
C32   C     C_3   0.177354 0.263797 0.377220 -0.165095
H18   H     H_    0.146493 0.291761 0.270091 0.153922
H19   H     H_    0.127115 0.231779 0.448655 0.142537
H20   H     H_    0.223656 0.206838 0.348064 0.206980

loop_
_geom_bond_atom_site_label_1
_geom_bond_atom_site_label_2
_geom_bond_distance
_ccdc_geom_bond_type
N5    O13   1.293693 A    
C1    C21   1.463250 S    
O2    Zn2   2.007989 S    
O3    C2    1.285787 A    
C18   O18   1.376633 S    
C32   H18   1.113213 S    
O1    C1    1.299933 A    
C20   C21   1.421415 A    
O7    C8    1.280412 A    
O8    C7    1.280325 A    
N6    O16   1.301223 A    
C4    C10   1.402989 A    
Zn1   N2    2.020005 S    
Zn2   N1    2.020005 S    
C4    C26   1.413163 A    
C20   O20   1.399027 S    
C14   C18   1.381372 A    
C28   N6    1.431828 S    
N3    O10   1.299850 A    
C29   H10   1.113267 S    
C11   C12   1.166814 T    
C2    C22   1.440230 S    
O3    Zn1   2.004747 S    
O4    Zn2   2.004749 S    
N4    O12   1.300982 A    
C7    C11   1.368663 S    
O18   C30   1.410473 S    
C19   O19   1.382853 S    
O6    C8    1.281993 A    
C9    C10   1.511786 S    
O2    C2    1.297606 A    
C31   H17   1.109354 S    
C25   N3    1.431912 S    
N2    C28   1.380074 A    
N1    C27   1.380738 A    
C32   H19   1.110935 S    
C13   H1    1.084201 S    
C15   H3    1.083774 S    
C30   H12   1.114432 S    
C16   H4    1.081629 S    
C19   C22   1.410067 A    
O20   C32   1.412352 S    
C31   H16   1.112265 S    
C23   C24   1.435807 S    
C5    H7    1.082982 S    
O4    C1    1.295488 A    
C6    H8    1.082820 S    
C16   C23   1.390008 A    
C15   C19   1.390225 A    
N6    O15   1.298260 A    
C3    C9    1.399854 A    
O6    Zn2   1.954841 S    
C30   H13   1.113647 S    
C4    H6    1.082938 S    
C29   H9    1.113593 S    
C15   C24   1.393458 A    
C5    C9    1.396457 A    
C27   N5    1.424612 S    
C14   H2    1.084505 S    
N5    O14   1.299774 A    
C3    H5    1.082731 S    
C5    C27   1.412543 A    
N4    O11   1.299462 A    
C6    C28   1.411644 A    
C32   H20   1.109209 S    
O7    Zn1   1.950821 S    
C29   H11   1.109314 S    
C18   C22   1.402984 A    
C31   H15   1.113879 S    
O5    Zn1   1.954841 S    
N2    C26   1.376641 A    
O1    Zn1   2.007990 S    
C30   H14   1.109136 S    
C6    C10   1.399486 A    
O19   C31   1.408016 S    
C13   C23   1.385981 A    
C14   C24   1.392183 A    
O8    Zn2   1.950821 S    
C17   O17   1.381888 S    
O5    C7    1.282105 A    
C3    C25   1.414966 A    
O17   C29   1.410275 S    
C17   C21   1.417536 A    
C16   C20   1.400673 A    
C8    C12   1.368554 S    
N3    O9    1.297310 A    
C13   C17   1.383570 A    
N1    C25   1.382822 A    
C26   N4    1.428371 S    
