data_mof_unit_6532.cif
_audit_creation_date              2012-12-10T18:04:51-0500
_audit_creation_method            fapswitch 2.2
_symmetry_space_group_name_H-M    P1
_symmetry_Int_Tables_number       1
_space_group_crystal_system       triclinic
_cell_length_a                    10.912077
_cell_length_b                    9.611378
_cell_length_c                    17.681701
_cell_angle_alpha                 89.289549
_cell_angle_beta                  92.521401
_cell_angle_gamma                 88.761794
_cell_volume                      1852.06507225

loop_
_atom_site_label
_atom_site_type_symbol
_atom_type_description
_atom_site_fract_x
_atom_site_fract_y
_atom_site_fract_z
_atom_type_partial_charge
C1    C     C_R   0.262147 0.501520 0.501928 0.780831
C2    C     C_R   0.736541 0.498686 0.493448 0.751074
C3    C     C_1   0.505078 0.500508 0.966430 0.109011
C4    C     C_1   0.506191 0.499580 0.034218 0.115413
C5    C     C_R   0.064636 0.380153 0.516436 -0.077489
C6    C     C_R   0.930509 0.620393 0.467687 -0.081330
C7    C     C_R   0.939518 0.372854 0.498700 -0.076229
C8    C     C_R   0.058180 0.625398 0.477388 -0.086232
C9    C     C_R   0.500994 0.500432 0.355854 0.843347
C10   C     C_R   0.500115 0.499432 0.644234 0.822404
C11   C     C_R   0.870011 0.496373 0.484669 -0.136551
C12   C     C_R   0.126879 0.504211 0.501079 -0.146206
C13   C     C_R   0.443701 0.609378 0.843907 0.458117
C14   C     C_R   0.440032 0.396884 0.152756 0.467774
C15   C     C_R   0.574069 0.597415 0.155919 0.471198
C16   C     C_R   0.561731 0.390929 0.848350 0.461481
C17   C     C_R   0.441686 0.607628 0.764722 -0.240512
C18   C     C_R   0.436570 0.401152 0.232114 -0.275323
C19   C     C_R   0.575060 0.595006 0.235063 -0.305273
C20   C     C_R   0.560458 0.391559 0.769177 -0.271194
C21   C     C_R   0.500186 0.498980 0.727121 -0.166049
C22   C     C_R   0.503613 0.499911 0.273161 -0.157891
C23   C     C_R   0.442756 0.078131 0.441983 0.410882
C24   C     C_R   0.553554 0.923335 0.559409 0.410214
C25   C     C_R   0.553428 0.071616 0.559415 0.439286
C26   C     C_R   0.447657 0.928637 0.440083 0.428221
C27   C     C_R   0.503633 0.500507 0.885477 -0.091609
C28   C     C_R   0.506699 0.498026 0.115176 -0.085980
Cu1   Cu    Cu3+1 0.500000 0.640660 0.500000 1.021930
Cu2   Cu    Cu3+1 0.500000 0.359340 0.500000 1.027396
H1    H     H_    0.393346 0.690388 0.732787 0.190960
H2    H     H_    0.379991 0.329519 0.261822 0.193547
H3    H     H_    0.631822 0.667061 0.266585 0.173260
H4    H     H_    0.608970 0.309820 0.740956 0.199777
N1    N     N_R   0.500000 0.852070 0.500000 -0.276470
N2    N     N_R   0.500000 0.147930 0.500000 -0.271344
O1    O     O_R   0.319640 0.618740 0.499990 -0.552352
O2    O     O_R   0.680360 0.381260 0.500010 -0.579671
O3    O     O_R   0.680360 0.618740 0.500010 -0.587858
O4    O     O_R   0.319640 0.381260 0.499990 -0.558882
O5    O     O_R   0.500000 0.618830 0.391250 -0.538377
O6    O     O_R   0.500000 0.381170 0.608750 -0.524313
O7    O     O_R   0.500000 0.618830 0.608750 -0.534037
O8    O     O_R   0.500000 0.381170 0.391250 -0.524947
O9    O     O_3   0.380074 0.712449 0.880579 -0.558975
C29   C     C_3   0.453758 0.830800 0.885486 -0.330248
H5    H     H_    0.470418 0.874418 0.828342 0.179407
H6    H     H_    0.542429 0.807221 0.917156 0.163385
H7    H     H_    0.404495 0.911876 0.917211 0.187370
O10   O     O_3   0.371989 0.302944 0.110016 -0.561493
C30   C     C_3   0.391527 0.165628 0.138025 -0.316681
H8    H     H_    0.366396 0.092414 0.092169 0.186742
H9    H     H_    0.330878 0.144782 0.185490 0.171209
H10   H     H_    0.489401 0.142952 0.155512 0.149150
O11   O     O_3   0.645718 0.690410 0.118331 -0.553485
C31   C     C_3   0.584255 0.821027 0.114459 -0.335865
H11   H     H_    0.581348 0.868446 0.171366 0.151010
H12   H     H_    0.489874 0.813649 0.088284 0.155069
H13   H     H_    0.635866 0.891827 0.078122 0.198341
O12   O     O_3   0.627840 0.289535 0.889854 -0.560425
C32   C     C_3   0.563329 0.164227 0.886134 -0.313956
H14   H     H_    0.561048 0.121642 0.827898 0.176191
H15   H     H_    0.468499 0.177921 0.906177 0.167175
H16   H     H_    0.611873 0.086355 0.924099 0.185583
O13   O     O_3   0.385342 0.155126 0.383540 -0.572324
C33   C     C_3   0.257086 0.140062 0.383306 -0.233529
H17   H     H_    0.212683 0.235640 0.357983 0.162112
H18   H     H_    0.222019 0.127434 0.440848 0.182268
H19   H     H_    0.228798 0.051621 0.347325 0.196156
O14   O     O_3   0.592622 0.853172 0.625120 -0.536444
C34   C     C_3   0.718644 0.816284 0.623714 -0.200057
H20   H     H_    0.730384 0.702970 0.635125 0.176868
H21   H     H_    0.768916 0.868892 0.670687 0.145898
H22   H     H_    0.762984 0.841469 0.569755 0.136810
O15   O     O_3   0.587109 0.137276 0.625940 -0.539635
C35   C     C_3   0.715600 0.151043 0.633498 -0.252537
H23   H     H_    0.739424 0.261118 0.623958 0.178365
H24   H     H_    0.769024 0.084036 0.595851 0.140508
H25   H     H_    0.745922 0.123476 0.692592 0.163257
O16   O     O_3   0.390663 0.859651 0.380566 -0.527947
C36   C     C_3   0.452270 0.885200 0.313296 -0.281238
H26   H     H_    0.420575 0.809079 0.270599 0.180326
H27   H     H_    0.553675 0.872920 0.321880 0.160340
H28   H     H_    0.428640 0.989105 0.288520 0.172404
C37   C     C_1   0.124867 0.262409 0.556106 0.251546
N3    N     N_1   0.172332 0.168804 0.588170 -0.272516
C38   C     C_1   0.863516 0.739404 0.433329 0.263757
N4    N     N_1   0.810196 0.833597 0.405599 -0.285457
C39   C     C_1   0.889026 0.237504 0.482780 0.260567
N5    N     N_1   0.850097 0.129651 0.468100 -0.293639
C40   C     C_1   0.114841 0.758541 0.466318 0.331033
N6    N     N_1   0.158385 0.865873 0.458190 -0.276397

loop_
_geom_bond_atom_site_label_1
_geom_bond_atom_site_label_2
_ccdc_geom_bond_type
C33   H18   S    
O11   C31   S    
C10   O6    A    
C14   C18   A    
C35   H25   S    
C38   N4    T    
C36   H26   S    
C24   O14   S    
C37   N3    T    
C7    C11   A    
C29   H7    S    
C16   C20   A    
C35   H24   S    
C9    C22   S    
C33   H19   S    
C7    C39   S    
C31   H11   S    
Cu2   O2    S    
C16   O12   S    
C23   C26   A    
C32   H15   S    
C1    O4    A    
C36   H27   S    
C2    O3    A    
O14   C34   S    
C1    O1    A    
C5    C37   S    
C16   C27   A    
C33   H17   S    
Cu1   O7    S    
Cu2   O8    S    
C1    C12   S    
C2    C11   S    
C4    C28   S    
C10   C21   S    
C29   H6    S    
C24   N1    A    
C30   H8    S    
C19   C22   A    
C24   C25   A    
C5    C12   A    
C19   H3    S    
C40   N6    T    
C5    C7    A    
C6    C8    A    
O9    C29   S    
C17   C21   A    
C6    C38   S    
O12   C32   S    
C25   O15   S    
C15   O11   S    
C32   H16   S    
C15   C19   A    
O15   C35   S    
Cu1   Cu2   S    
C2    O2    A    
C8    C12   A    
Cu1   O3    S    
O10   C30   S    
Cu2   O4    S    
C8    C40   S    
C35   H23   S    
O13   C33   S    
C17   H1    S    
C18   H2    S    
C3    C4    T    
C6    C11   A    
C36   H28   S    
C34   H21   S    
C29   H5    S    
C9    O8    A    
Cu1   O5    S    
C10   O7    A    
C18   C22   A    
C13   C27   A    
O16   C36   S    
C34   H22   S    
Cu2   N2    S    
Cu1   N1    S    
C9    O5    A    
C31   H13   S    
C13   C17   A    
C30   H10   S    
C14   C28   A    
C23   O13   S    
C3    C27   S    
C20   H4    S    
C34   H20   S    
C13   O9    S    
C15   C28   A    
C14   O10   S    
C31   H12   S    
C32   H14   S    
C26   O16   S    
C25   N2    A    
C26   N1    A    
C20   C21   A    
C23   N2    A    
Cu1   O1    S    
Cu2   O6    S    
C30   H9    S    
C39   N5    T    
