data_mof_unit_48065.cif
_audit_creation_date              2012-12-10T18:57:43-0500
_audit_creation_method            fapswitch 2.2
_symmetry_space_group_name_H-M    P1
_symmetry_Int_Tables_number       1
_space_group_crystal_system       triclinic
_cell_length_a                    10.968455
_cell_length_b                    10.912977
_cell_length_c                    9.564841
_cell_angle_alpha                 90.286655
_cell_angle_beta                  89.608389
_cell_angle_gamma                 90.786661
_cell_volume                      1144.74864586

loop_
_atom_site_label
_atom_site_type_symbol
_atom_type_description
_atom_site_fract_x
_atom_site_fract_y
_atom_site_fract_z
_atom_type_partial_charge
C1    C     C_R   0.503253 0.262978 0.499148 0.844246
C2    C     C_R   0.420125 0.427665 0.073983 0.336975
C3    C     C_R   0.419589 0.429863 0.924751 -0.140044
C4    C     C_R   0.265397 0.497474 0.500554 0.788070
C5    C     C_R   0.574505 0.578619 0.926058 0.204298
C6    C     C_3   0.710229 0.582368 0.918597 -0.524297
C7    C     C_3   0.709930 0.582577 0.076866 0.163356
C8    C     C_R   0.502491 0.737419 0.499371 0.835407
C9    C     C_R   0.734166 0.499094 0.499576 0.855968
C10   C     C_2   0.934575 0.460493 0.395573 0.321557
C11   C     C_2   0.865406 0.507089 0.498893 -0.348050
C12   C     C_R   0.508757 0.130605 0.494707 -0.170380
C13   C     C_2   0.063298 0.496190 0.391827 0.283625
C14   C     C_2   0.134518 0.473506 0.503870 -0.027435
C15   C     C_R   0.494574 0.062672 0.615414 -0.009770
C16   C     C_3   0.849278 0.263717 0.324614 -0.653240
C17   C     C_3   0.319758 0.226863 0.094970 -0.699225
C18   C     C_3   0.109532 0.283470 0.630464 -0.694318
C19   C     C_3   0.419479 0.868239 0.156129 -0.672204
C20   C     C_3   0.721238 0.914515 0.770177 -0.650536
C21   C     C_R   0.529933 0.066187 0.367528 0.331493
C22   C     C_R   0.522891 0.935602 0.366244 0.136902
C23   C     C_R   0.507694 0.870522 0.494517 -0.212638
C24   C     C_R   0.498609 0.939426 0.615762 0.061506
C25   C     C_3   0.492549 0.932989 0.771741 0.106797
C26   C     C_3   0.483931 0.074083 0.770373 -0.491029
C27   C     C_R   0.574105 0.579226 0.073507 0.243065
Cu1   Cu    Cu3+1 0.499990 0.499980 0.640670 0.938310
Cu2   Cu    Cu3+1 0.500010 0.500020 0.359330 1.014290
H1    H     H_    0.562465 0.123934 0.817868 0.210384
H2    H     H_    0.803340 0.218003 0.234996 0.242442
H3    H     H_    0.784575 0.264480 0.414348 0.230373
H4    H     H_    0.930731 0.209943 0.352350 0.202529
H5    H     H_    0.253695 0.392626 0.165447 0.282063
H6    H     H_    0.252573 0.224686 0.008535 0.185613
H7    H     H_    0.284790 0.167638 0.180744 0.241691
H8    H     H_    0.407509 0.189545 0.056565 0.252487
H9    H     H_    0.844086 0.685724 0.134901 0.339151
H10   H     H_    0.159556 0.624761 0.303771 0.319414
H11   H     H_    0.105456 0.457484 0.716708 0.263923
H12   H     H_    0.355813 0.373004 0.867020 0.159951
H13   H     H_    0.059147 0.242388 0.720131 0.222080
H14   H     H_    0.208658 0.268256 0.644946 0.222191
H15   H     H_    0.079083 0.236832 0.533177 0.231077
H16   H     H_    0.585296 0.078465 0.171711 0.311244
H17   H     H_    0.609524 0.883685 0.181184 0.267333
H18   H     H_    0.401615 0.960360 0.112884 0.210106
H19   H     H_    0.340734 0.838146 0.221811 0.231568
H20   H     H_    0.428823 0.802280 0.068223 0.218262
H21   H     H_    0.605189 0.904253 0.942573 0.257436
H22   H     H_    0.795561 0.881427 0.837924 0.210185
H23   H     H_    0.749243 0.497104 0.873984 0.185885
H24   H     H_    0.735460 0.014338 0.754196 0.218142
H25   H     H_    0.727729 0.865508 0.668489 0.229845
H26   H     H_    0.745895 0.668262 0.871216 0.228746
H27   H     H_    0.749433 0.499375 0.123046 0.160766
H28   H     H_    0.906727 0.560509 0.582824 0.116661
H29   H     H_    0.409058 0.885479 0.811450 0.115175
H30   H     H_    0.392918 0.108045 0.802827 0.165325
H31   H     H_    0.937886 0.387658 0.195391 0.261146
N1    N     N_R   0.500780 0.500930 0.147930 -0.238400
N2    N     N_R   0.500780 0.500890 0.852020 -0.205743
N3    N     N_2   0.885307 0.386953 0.285247 -0.428289
N4    N     N_2   0.335879 0.350789 0.147120 -0.353190
N5    N     N_2   0.084747 0.413193 0.624177 -0.447343
N6    N     N_2   0.530247 0.870175 0.237491 -0.375841
N7    N     N_2   0.603994 0.889274 0.836387 -0.395783
O1    O     O_R   0.500000 0.319640 0.618810 -0.600017
O2    O     O_3   0.103904 0.557441 0.273817 -0.772104
O3    O     O_3   0.558327 0.132558 0.248436 -0.726782
O4    O     O_R   0.500010 0.319680 0.381230 -0.491088
O5    O     O_R   0.321940 0.499980 0.618760 -0.589647
O6    O     O_R   0.321950 0.500020 0.381180 -0.577568
O7    O     O_R   0.499990 0.680320 0.618770 -0.574999
O8    O     O_R   0.500000 0.680360 0.381190 -0.533498
O9    O     O_R   0.678050 0.499980 0.618820 -0.593456
O10   O     O_R   0.678060 0.500020 0.381240 -0.543910
O11   O     O_3   0.754040 0.692953 0.133527 -0.718236

loop_
_geom_bond_atom_site_label_1
_geom_bond_atom_site_label_2
_ccdc_geom_bond_type
C20   N7    S    
C10   N3    S    
C25   N7    S    
C6    H26   S    
Cu1   O7    S    
C1    O1    A    
C16   H2    S    
C1    O4    A    
H31   N3    S    
Cu1   Cu2   S    
Cu1   O1    S    
H17   N6    S    
C20   H22   S    
C18   H13   S    
C17   N4    S    
C5    C6    S    
C19   H18   S    
Cu2   O6    S    
C8    C23   S    
C7    C27   S    
C19   N6    S    
C22   N6    S    
C27   N1    A    
C5    C27   A    
C23   C24   A    
C9    O9    A    
C26   H30   S    
C2    N1    A    
C21   C22   A    
Cu1   O5    S    
C1    C12   S    
C7    H27   S    
C8    O7    A    
C2    N4    S    
C17   H7    S    
Cu2   N1    S    
C24   C25   S    
C20   H25   S    
C19   H19   S    
C15   C26   S    
C9    O10   A    
H9    O11   S    
C25   C26   S    
C12   C21   A    
C8    O8    A    
C18   N5    S    
C18   H15   S    
C16   H4    S    
C19   H20   S    
C12   C15   A    
H5    N4    S    
H10   O2    S    
C17   H8    S    
C9    C11   S    
C4    O6    A    
C7    O11   S    
C15   C24   A    
C16   N3    S    
C26   H1    S    
H11   N5    S    
C25   H29   S    
Cu1   O9    S    
C4    O5    A    
H21   N7    S    
C3    N2    A    
C3    H12   S    
H16   O3    S    
C20   H24   S    
C10   C13   S    
C6    C7    S    
Cu2   O8    S    
C16   H3    S    
C21   O3    S    
C2    C3    A    
C11   H28   S    
C18   H14   S    
C13   O2    S    
C14   N5    S    
C5    N2    A    
C4    C14   S    
C10   C11   D    
Cu2   O10   S    
C22   C23   A    
C17   H6    S    
C6    H23   S    
C13   C14   D    
Cu2   O4    S    
Cu1   N2    S    
