data_mof_unit_48702.cif
_audit_creation_date              2012-12-10T16:50:03-0500
_audit_creation_method            fapswitch 2.2
_symmetry_space_group_name_H-M    P1
_symmetry_Int_Tables_number       1
_space_group_crystal_system       triclinic
_cell_length_a                    7.759968
_cell_length_b                    8.611248
_cell_length_c                    10.601569
_cell_angle_alpha                 90.20088
_cell_angle_beta                  86.035887
_cell_angle_gamma                 93.798406
_cell_volume                      705.180972654

loop_
_atom_site_label
_atom_site_type_symbol
_atom_type_description
_atom_site_fract_x
_atom_site_fract_y
_atom_site_fract_z
_atom_type_partial_charge
C1    C     C_R   0.546699 0.794086 0.502221 0.808707
C2    C     C_R   0.455201 0.205237 0.506848 0.977101
C3    C     C_R   0.498507 0.504542 0.260730 0.868976
C4    C     C_R   0.431860 0.791470 0.872546 -0.190802
C5    C     C_R   0.391007 0.924607 0.940614 -0.139668
C6    C     C_R   0.384750 0.923144 0.072187 -0.120412
C7    C     C_R   0.418880 0.788403 0.136182 -0.171873
C8    C     C_R   0.458821 0.652048 0.068507 0.090766
C9    C     C_3   0.832221 0.984723 0.616479 0.109216
C10   C     C_3   0.795504 0.101507 0.721956 -0.361673
C11   C     C_3   0.892052 0.067653 0.838446 -0.940675
C12   C     C_R   0.465707 0.653717 0.936037 0.097440
C13   C     C_R   0.509211 0.516914 0.871273 -0.079204
C14   C     C_R   0.548569 0.383659 0.933374 -0.220283
C15   C     C_R   0.542870 0.381975 0.062172 -0.209539
C16   C     C_R   0.496235 0.513677 0.128665 -0.087192
C17   C     C_2   0.576027 0.956540 0.515031 0.313632
C18   C     C_2   0.435651 0.041570 0.515521 -0.535177
C19   C     C_R   0.503212 0.505448 0.739257 0.842208
H1    H     H_    0.578731 0.279533 0.882218 0.144278
H2    H     H_    0.973534 0.992347 0.589951 0.160685
H3    H     H_    0.798940 0.864773 0.653082 0.120767
H4    H     H_    0.835163 0.221271 0.687798 0.259339
H5    H     H_    0.654390 0.093156 0.748057 0.196171
H6    H     H_    0.849982 0.950036 0.876344 0.272562
H7    H     H_    0.863648 0.154968 0.913005 0.272800
H8    H     H_    0.033946 0.074150 0.814182 0.262710
H9    H     H_    0.986203 0.617080 0.593655 0.183393
H10   H     H_    0.438264 0.797871 0.770527 0.124642
H11   H     H_    0.364960 0.029348 0.891125 0.127588
H12   H     H_    0.353948 0.026811 0.124832 0.136298
H13   H     H_    0.414677 0.792446 0.238292 0.145452
H14   H     H_    0.572977 0.277237 0.110419 0.149797
H15   H     H_    0.303662 0.990033 0.519170 0.154141
H16   H     H_    0.013765 0.382692 0.406538 0.208253
N1    N     N_2   0.950330 0.457950 0.466250 -0.167423
N2    N     N_2   0.049670 0.542050 0.533750 -0.173680
O1    O     O_R   0.389250 0.738570 0.508280 -0.650601
O2    O     O_R   0.678390 0.711630 0.486650 -0.611714
O3    O     O_R   0.355400 0.513470 0.694050 -0.610813
O4    O     O_R   0.644540 0.486530 0.672420 -0.644771
O5    O     O_R   0.321610 0.288370 0.513350 -0.631660
O6    O     O_R   0.610750 0.261430 0.491720 -0.547415
O7    O     O_R   0.355460 0.513470 0.327580 -0.623707
O8    O     O_R   0.644600 0.486530 0.305950 -0.603421
O9    O     O_3   0.746426 0.020891 0.507402 -0.602070
Zn1   Zn    Zn3+2 0.306930 0.517990 0.514440 0.934990
Zn2   Zn    Zn3+2 0.693070 0.482010 0.485560 0.961858

loop_
_geom_bond_atom_site_label_1
_geom_bond_atom_site_label_2
_ccdc_geom_bond_type
O3    Zn1   S    
C6    C7    A    
C10   H4    S    
N2    Zn1   S    
O6    Zn2   S    
C1    C17   S    
H16   N1    S    
O7    Zn1   S    
C11   H8    S    
C2    O6    A    
C8    C12   A    
C17   C18   D    
C9    O9    S    
C8    C16   A    
C13   C14   A    
C12   C13   A    
C18   H15   S    
C9    H2    S    
O1    Zn1   S    
C1    O1    A    
C2    O5    A    
H9    N2    S    
C9    C10   S    
N1    N2    D    
O4    Zn2   S    
C3    O8    A    
N1    Zn2   S    
O5    Zn1   S    
C4    H10   S    
C5    C6    A    
C3    O7    A    
C9    H3    S    
C4    C12   A    
C19   O3    A    
C1    O2    A    
C15   C16   A    
C14   H1    S    
C7    C8    A    
C17   O9    S    
C5    H11   S    
C10   C11   S    
O8    Zn2   S    
C11   H6    S    
C14   C15   A    
C4    C5    A    
C13   C19   S    
C6    H12   S    
C7    H13   S    
C11   H7    S    
C10   H5    S    
C15   H14   S    
C3    C16   S    
C19   O4    A    
C2    C18   S    
O2    Zn2   S    
