data_mof_unit_6465.cif
_audit_creation_date              2012-12-10T18:57:08-0500
_audit_creation_method            fapswitch 2.2
_symmetry_space_group_name_H-M    P1
_symmetry_Int_Tables_number       1
_space_group_crystal_system       triclinic
_cell_length_a                    10.76434
_cell_length_b                    9.849645
_cell_length_c                    10.67647
_cell_angle_alpha                 89.381035
_cell_angle_beta                  91.223209
_cell_angle_gamma                 90.534598
_cell_volume                      1131.60108522

loop_
_atom_site_label
_atom_site_type_symbol
_atom_type_description
_atom_site_fract_x
_atom_site_fract_y
_atom_site_fract_z
_atom_type_partial_charge
C1    C     C_R   0.260422 0.499735 0.507699 0.924071
C2    C     C_R   0.740302 0.501346 0.496110 0.950619
C3    C     C_R   0.579166 0.072266 0.577133 -0.042327
C4    C     C_R   0.418994 0.072760 0.424789 -0.051960
C5    C     C_R   0.577730 0.928564 0.579232 0.033124
C6    C     C_R   0.418018 0.929086 0.425253 0.051380
C7    C     C_R   0.506198 0.500753 0.260152 0.942639
C8    C     C_R   0.507510 0.499582 0.739844 0.948724
C9    C     C_R   0.486951 0.617036 0.061052 0.100546
C10   C     C_R   0.486406 0.615161 0.934014 0.077963
C11   C     C_R   0.527935 0.504559 0.129161 -0.268597
C12   C     C_R   0.527948 0.502204 0.871667 -0.263466
C13   C     C_R   0.596496 0.403227 0.069085 0.329159
C14   C     C_R   0.596712 0.402348 0.937859 0.328029
C15   C     C_3   0.366156 0.688566 0.921225 -0.385371
C16   C     C_3   0.366664 0.691525 0.063024 -0.432218
C17   C     C_R   0.062823 0.380131 0.493098 -0.209358
C18   C     C_R   0.935608 0.381601 0.487269 -0.157609
C19   C     C_R   0.873455 0.505068 0.495370 -0.194482
C20   C     C_R   0.128214 0.500607 0.516417 -0.198605
C21   C     C_R   0.940067 0.628354 0.510990 0.353950
C22   C     C_R   0.065777 0.623035 0.537157 0.355434
H1    H     H_    0.377651 0.790668 0.877314 0.230714
H2    H     H_    0.290321 0.630391 0.104774 0.210517
H3    H     H_    0.290238 0.624706 0.880052 0.216012
H4    H     H_    0.379364 0.795944 0.099621 0.221769
H5    H     H_    0.109611 0.284698 0.479139 0.203567
H6    H     H_    0.886372 0.286337 0.473110 0.218186
H7    H     H_    0.642311 0.127549 0.638313 0.190340
H8    H     H_    0.353514 0.128552 0.366039 0.137904
N1    N     N_R   0.500000 0.857200 0.500000 -0.121409
N2    N     N_R   0.500000 0.142810 0.500000 -0.094768
O1    O     O_R   0.316770 0.614620 0.499990 -0.581656
O2    O     O_R   0.683230 0.614620 0.500010 -0.586342
O3    O     O_R   0.316800 0.385290 0.500000 -0.639280
O4    O     O_R   0.683200 0.385290 0.500000 -0.607058
O5    O     O_R   0.500000 0.614690 0.316780 -0.622115
O6    O     O_R   0.500000 0.614690 0.683220 -0.632104
O7    O     O_R   0.500020 0.385360 0.316780 -0.582056
O8    O     O_R   0.499980 0.385360 0.683220 -0.585794
Zn1   Zn    Zn3+2 0.500000 0.653120 0.500000 1.019952
Zn2   Zn    Zn3+2 0.500000 0.346880 0.500000 1.019046
Cl1   Cl    Cl    0.680640 0.278246 0.154833 -0.502163
Cl2   Cl    Cl    0.682384 0.278055 0.859783 -0.549283
Cl3   Cl    Cl    0.875473 0.791754 0.486385 -0.524700
Cl4   Cl    Cl    0.139032 0.768810 0.603634 -0.548406
C23   C     C_1   0.653457 0.858848 0.671455 0.341950
N3    N     N_1   0.714250 0.803530 0.746397 -0.132579
C24   C     C_1   0.321928 0.860574 0.354477 0.283243
N4    N     N_1   0.242377 0.807000 0.299033 -0.175132

loop_
_geom_bond_atom_site_label_1
_geom_bond_atom_site_label_2
_ccdc_geom_bond_type
C5    N1    A    
C6    N1    A    
C5    C23   S    
C9    C10   A    
C14   Cl2   S    
O4    Zn2   S    
C23   N3    T    
C8    C12   S    
O1    Zn1   S    
C2    O2    A    
C15   H1    S    
C17   C18   A    
C7    O5    A    
C1    O1    A    
C16   H2    S    
C21   C22   A    
C7    C11   S    
C11   C13   A    
C9    C11   A    
C4    N2    A    
O2    Zn1   S    
C10   C12   A    
O8    Zn2   S    
C19   C21   A    
C9    C16   S    
C12   C14   A    
C24   N4    T    
O7    Zn2   S    
C21   Cl3   S    
C10   C15   S    
C8    O6    A    
C6    C24   S    
O5    Zn1   S    
C3    N2    A    
C15   H3    S    
C15   C16   S    
C17   H5    S    
C13   Cl1   S    
C17   C20   A    
C18   H6    S    
C1    O3    A    
O6    Zn1   S    
C4    C6    A    
C18   C19   A    
C2    O4    A    
C8    O8    A    
C3    H7    S    
O3    Zn2   S    
C7    O7    A    
C1    C20   S    
N2    Zn2   S    
N1    Zn1   S    
C22   Cl4   S    
C2    C19   S    
C13   C14   A    
C4    H8    S    
C20   C22   A    
C3    C5    A    
C16   H4    S    
