data_mof_unit_67890.cif
_audit_creation_date              2012-12-10T17:16:39-0500
_audit_creation_method            fapswitch 2.2
_symmetry_space_group_name_H-M    P1
_symmetry_Int_Tables_number       1
_space_group_crystal_system       triclinic
_cell_length_a                    10.342013
_cell_length_b                    10.988032
_cell_length_c                    10.916425
_cell_angle_alpha                 92.473607
_cell_angle_beta                  92.512844
_cell_angle_gamma                 80.267464
_cell_volume                      1220.68971737

loop_
_atom_site_label
_atom_site_type_symbol
_atom_type_description
_atom_site_fract_x
_atom_site_fract_y
_atom_site_fract_z
_atom_type_partial_charge
C1    C     C_R   0.448384 0.503226 0.268186 0.895216
C2    C     C_R   0.552341 0.503298 0.730725 0.928026
C3    C     C_2   0.434846 0.479072 0.136434 -0.227449
C4    C     C_2   0.572688 0.557339 0.852003 -0.196273
C5    C     C_2   0.507099 0.541134 0.066401 -0.028431
C6    C     C_2   0.568084 0.488512 0.949633 -0.047221
C7    C     C_2   0.079510 0.479395 0.496772 -0.046939
C8    C     C_2   0.936230 0.474094 0.528107 -0.061604
C9    C     C_R   0.501258 0.260648 0.499033 0.895043
C10   C     C_R   0.498658 0.740892 0.498400 0.888247
C11   C     C_R   0.685971 0.080037 0.351092 -0.217639
C12   C     C_R   0.253897 0.943720 0.528342 -0.212174
C13   C     C_R   0.790363 0.993205 0.307298 0.018231
C14   C     C_R   0.158508 0.031678 0.587052 -0.019790
C15   C     C_R   0.826037 0.882621 0.368706 -0.025372
C16   C     C_R   0.198831 0.125533 0.661772 -0.044427
C17   C     C_R   0.739466 0.852080 0.454236 -0.019617
C18   C     C_R   0.325501 0.150578 0.650954 -0.023409
C19   C     C_R   0.611956 0.921240 0.460923 0.022402
C20   C     C_R   0.408276 0.081973 0.563658 0.016023
C21   C     C_R   0.599729 0.045801 0.435774 0.067779
C22   C     C_R   0.385854 0.963413 0.528941 0.058169
C23   C     C_R   0.497757 0.875361 0.495711 -0.180311
C24   C     C_R   0.505012 0.128592 0.501010 -0.165112
H1    H     H_    0.672726 0.171478 0.317080 0.159338
H2    H     H_    0.223638 0.867175 0.476382 0.187550
N1    N     N_2   0.157300 0.551390 0.551120 -0.164186
N2    N     N_2   0.842700 0.448610 0.448880 -0.170038
O1    O     O_R   0.568940 0.489660 0.307530 -0.625788
O2    O     O_R   0.431060 0.510340 0.692470 -0.622967
O3    O     O_R   0.348880 0.522640 0.340350 -0.601870
O4    O     O_R   0.651120 0.477360 0.659650 -0.601535
O5    O     O_R   0.610030 0.300280 0.483580 -0.621418
O6    O     O_R   0.389970 0.699720 0.516420 -0.628576
O7    O     O_R   0.389970 0.333270 0.516400 -0.618658
O8    O     O_R   0.610030 0.666730 0.483600 -0.629804
Zn1   Zn    Zn3+2 0.646940 0.477980 0.478080 0.966684
Zn2   Zn    Zn3+2 0.353060 0.522020 0.521920 0.965938
C25   C     C_1   0.111289 0.193068 0.750851 0.131752
N3    N     N_1   0.041163 0.245274 0.822429 -0.226992
C26   C     C_1   0.954379 0.808483 0.351862 0.089062
N4    N     N_1   0.056567 0.749302 0.337054 -0.207689
C27   C     C_1   0.865895 0.021687 0.207455 0.125049
N5    N     N_1   0.926847 0.042151 0.126764 -0.244486
C28   C     C_1   0.020161 0.027927 0.576171 0.133559
N6    N     N_1   0.908012 0.030621 0.573084 -0.194264
C29   C     C_1   0.790507 0.788024 0.562608 0.222357
N7    N     N_1   0.825074 0.739035 0.652359 -0.211942
C30   C     C_1   0.375480 0.231235 0.741500 0.159980
N8    N     N_1   0.413124 0.294915 0.816487 -0.210839
C31   C     C_1   0.640224 0.363351 0.940799 0.212126
N9    N     N_1   0.699322 0.264274 0.930727 -0.212490
C32   C     C_1   0.532793 0.661912 0.112612 0.194386
N10   N     N_1   0.552551 0.757401 0.150447 -0.230535
C33   C     C_R   0.564451 0.693047 0.858093 0.094087
C34   C     C_R   0.678680 0.743779 0.884452 -0.097171
C35   C     C_R   0.673984 0.871626 0.886094 -0.120800
C36   C     C_R   0.555197 0.949253 0.861196 -0.113421
C37   C     C_R   0.440796 0.899252 0.836158 -0.157602
C38   C     C_R   0.445627 0.771470 0.832791 -0.138251
H3    H     H_    0.771655 0.684173 0.901066 0.143471
H4    H     H_    0.762539 0.910326 0.905640 0.152315
H5    H     H_    0.551978 0.048069 0.862207 0.163467
H6    H     H_    0.348228 0.959195 0.819538 0.147981
H7    H     H_    0.357427 0.733576 0.810895 0.175519
C39   C     C_R   0.406302 0.352721 0.104931 0.119113
C40   C     C_R   0.504831 0.250086 0.125074 -0.146765
C41   C     C_R   0.478313 0.129790 0.109710 -0.141926
C42   C     C_R   0.351393 0.110318 0.078160 -0.108955
C43   C     C_R   0.251375 0.211135 0.062432 -0.107621
C44   C     C_R   0.277783 0.331904 0.077652 -0.095869
H8    H     H_    0.603056 0.264439 0.151527 0.140850
H9    H     H_    0.555954 0.051617 0.122607 0.161517
H10   H     H_    0.330118 0.017242 0.067563 0.147163
H11   H     H_    0.153008 0.194785 0.041487 0.146021
H12   H     H_    0.197012 0.407515 0.074310 0.125669
C45   C     C_1   0.909671 0.476433 0.655712 0.306497
N11   N     N_1   0.888878 0.479011 0.758947 -0.224272
C46   C     C_1   0.137964 0.387864 0.408276 0.294965
N12   N     N_1   0.184704 0.312934 0.338334 -0.204558
C47   C     C_R   0.863401 0.452557 0.322080 0.235497
C48   C     C_R   0.894295 0.343298 0.251237 -0.186398
C49   C     C_R   0.916877 0.349174 0.126600 -0.132589
C50   C     C_R   0.909296 0.463583 0.073503 -0.148264
C51   C     C_R   0.869073 0.572130 0.142175 -0.168043
C52   C     C_R   0.841082 0.565593 0.265015 -0.088124
H13   H     H_    0.904270 0.254943 0.293646 0.146739
H14   H     H_    0.940697 0.265699 0.070990 0.176920
H15   H     H_    0.933139 0.467901 0.979279 0.173355
H16   H     H_    0.858887 0.661029 0.100823 0.145322
H17   H     H_    0.801526 0.647555 0.316417 0.148393
C53   C     C_R   0.128052 0.614468 0.665656 0.224289
C54   C     C_R   0.156199 0.552735 0.776194 -0.116594
C55   C     C_R   0.140850 0.618683 0.888744 -0.172945
C56   C     C_R   0.100632 0.746263 0.892279 -0.154262
C57   C     C_R   0.079048 0.808738 0.783129 -0.161289
C58   C     C_R   0.095573 0.742935 0.670507 -0.129483
H18   H     H_    0.188216 0.453931 0.774802 0.151977
H19   H     H_    0.161147 0.572363 0.973645 0.143847
H20   H     H_    0.088486 0.796827 0.979483 0.157039
H21   H     H_    0.049621 0.907871 0.786656 0.158451
H22   H     H_    0.077472 0.790234 0.586087 0.137669

loop_
_geom_bond_atom_site_label_1
_geom_bond_atom_site_label_2
_ccdc_geom_bond_type
C33   C34   A    
C54   C55   A    
C26   N4    T    
C19   C23   A    
C56   C57   A    
C47   C48   A    
C35   H4    S    
C45   N11   T    
C37   H6    S    
C49   C50   A    
C55   H19   S    
C5    C32   S    
O8    Zn1   S    
C19   C21   A    
C52   H17   S    
C51   C52   A    
C5    C6    S    
C11   H1    S    
N1    Zn2   S    
C48   H13   S    
C12   C22   A    
C1    O3    A    
C7    N1    D    
C34   C35   A    
O2    Zn2   S    
C2    O4    A    
C40   H8    S    
C29   N7    T    
C41   C42   A    
C43   C44   A    
C6    C31   S    
C58   H22   S    
C49   H14   S    
C37   C38   A    
C33   C38   A    
C9    O5    A    
C55   C56   A    
C53   C58   A    
C14   C28   S    
C22   C23   A    
C31   N9    T    
C20   C24   A    
C42   H10   S    
O7    Zn2   S    
C50   C51   A    
C15   C26   S    
C4    C6    D    
C25   N3    T    
C56   H20   S    
C36   C37   A    
C32   N10   T    
C11   C21   A    
O5    Zn1   S    
C40   C41   A    
C12   H2    S    
C1    C3    S    
C2    C4    S    
C27   N5    T    
C39   C44   A    
C57   C58   A    
C1    O1    A    
C47   C52   A    
N1    C53   S    
C10   O6    A    
O4    Zn1   S    
C20   C22   A    
C38   H7    S    
C30   N8    T    
C13   C15   A    
C4    C33   S    
C8    C45   S    
C8    N2    D    
C14   C16   A    
C3    C39   S    
C50   H15   S    
C13   C27   S    
C7    C46   S    
C36   H5    S    
C15   C17   A    
N2    C47   S    
O6    Zn2   S    
C17   C29   S    
C12   C14   A    
C3    C5    D    
C51   H16   S    
C9    C24   S    
C10   C23   S    
O3    Zn2   S    
C2    O2    A    
C41   H9    S    
C11   C13   A    
C35   C36   A    
C44   H12   S    
N2    Zn1   S    
C53   C54   A    
C17   C19   A    
C39   C40   A    
C18   C20   A    
C42   C43   A    
C7    C8    S    
C16   C25   S    
C46   N12   T    
C28   N6    T    
C16   C18   A    
C48   C49   A    
C21   C24   A    
O1    Zn1   S    
C43   H11   S    
C9    O7    A    
C34   H3    S    
C10   O8    A    
C57   H21   S    
C54   H18   S    
C18   C30   S    
