data_mof_unit_37693.cif
_audit_creation_date              2013-03-05T15:43:50-0500
_audit_creation_method            fapswitch 2.2
_symmetry_space_group_name_H-M    P1
_symmetry_Int_Tables_number       1
_space_group_crystal_system       triclinic
_cell_length_a                    10.020987
_cell_length_b                    10.685584
_cell_length_c                    15.47358
_cell_angle_alpha                 90.189625
_cell_angle_beta                  66.615566
_cell_angle_gamma                 90.622453
_cell_volume                      1520.72714902

loop_
_atom_site_label
_atom_site_type_symbol
_atom_site_description
_atom_site_fract_x
_atom_site_fract_y
_atom_site_fract_z
_atom_type_partial_charge
O1    O     O_R   0.386950 0.680940 0.500010 -0.592662
O2    O     O_R   0.613110 0.680900 0.499990 -0.625076
C1    C     C_R   0.500026 0.737743 0.501546 0.919162
O3    O     O_R   0.322330 0.500030 0.632270 -0.565373
O4    O     O_R   0.548480 0.499990 0.632240 -0.548569
C2    C     C_R   0.407649 0.496348 0.676974 0.932244
Zn1   Zn    Zn3+2 0.349000 0.500030 0.500020 1.054124
Zn2   Zn    Zn3+2 0.651000 0.499970 0.499980 1.039047
O5    O     O_R   0.386890 0.319100 0.500010 -0.564717
O6    O     O_R   0.613050 0.319060 0.499990 -0.606096
O7    O     O_R   0.451520 0.500010 0.367760 -0.619639
O8    O     O_R   0.677670 0.499970 0.367730 -0.584764
C3    C     C_R   0.503743 0.262510 0.492674 0.862655
C4    C     C_R   0.591793 0.497269 0.323639 0.933460
C5    C     C_R   0.344926 0.491675 0.780974 -0.279725
C6    C     C_R   0.649045 0.470349 0.223094 -0.212316
C7    C     C_R   0.177914 0.580452 0.927640 -0.171148
C8    C     C_R   0.210366 0.548418 0.834194 0.278444
C9    C     C_R   0.429745 0.443758 0.827450 0.249274
C10   C     C_R   0.389950 0.468735 0.924616 -0.039761
C11   C     C_R   0.273964 0.552353 0.970291 -0.075447
C12   C     C_R   0.469912 0.421917 0.975275 0.085491
C13   C     C_R   0.463520 0.484662 0.057263 0.060565
C14   C     C_R   0.352929 0.573869 0.098402 -0.270585
C15   C     C_R   0.256549 0.605816 0.057449 0.284366
C16   C     C_R   0.550840 0.310976 0.948926 -0.104765
C17   C     C_R   0.647564 0.277884 0.988413 -0.078714
C18   C     C_R   0.661460 0.350876 0.059547 -0.036318
C19   C     C_R   0.565370 0.452930 0.096627 0.088543
C20   C     C_R   0.760986 0.317484 0.099713 0.213736
C21   C     C_R   0.752537 0.376349 0.183200 0.409903
C22   C     C_R   0.569953 0.516461 0.174523 -0.283437
H1    H     H_    0.503147 0.596324 0.205095 0.184693
H2    H     H_    0.708161 0.192457 0.964386 0.208222
H3    H     H_    0.077338 0.628838 0.966144 0.217748
H4    H     H_    0.336056 0.619835 0.163751 0.191361
H5    H     H_    0.537425 0.246280 0.899179 0.196338
C23   C     C_2   0.626129 0.068028 0.475571 -0.210883
C24   C     C_2   0.520596 0.133415 0.464068 0.142235
H6    H     H_    0.703974 0.111924 0.499276 0.189338
C25   C     C_2   0.627079 0.933230 0.472227 -0.087802
C26   C     C_2   0.500884 0.870474 0.505438 -0.242926
H7    H     H_    0.731153 0.886082 0.447447 0.196187
H8    H     H_    0.396515 0.916960 0.534984 0.184647
C27   C     C_2   0.105256 0.424262 0.448986 -0.072976
N1    N     N_2   0.148330 0.498670 0.499030 -0.170748
H9    H     H_    0.183177 0.359934 0.401372 0.188693
H10   H     H_    0.072909 0.553874 0.548514 0.203435
C28   C     C_2   0.951970 0.418477 0.454304 -0.084905
N2    N     N_2   0.852680 0.498640 0.499000 -0.162958
H11   H     H_    0.924644 0.343464 0.416627 0.174821
H12   H     H_    0.880427 0.574077 0.529840 0.187643
N3    N     N_R   0.151633 0.702202 0.100963 0.200026
O9    O     O_R   0.090266 0.710310 0.192309 -0.398953
O10   O     O_R   0.140631 0.796233 0.051019 -0.311202
N4    N     N_R   0.865896 0.220681 0.058793 0.209621
O11   O     O_R   0.954043 0.227121 0.970480 -0.358810
O12   O     O_R   0.882782 0.132433 0.111216 -0.265539
N5    N     N_R   0.435801 0.082711 0.414990 0.204293
O13   O     O_R   0.299974 0.112602 0.440347 -0.369157
O14   O     O_R   0.497686 0.014504 0.340009 -0.331054
O15   O     O_3   0.833249 0.331815 0.230951 -0.571806
C29   C     C_3   0.966315 0.398310 0.199134 -0.180763
H13   H     H_    0.033497 0.360945 0.235206 0.179875
H14   H     H_    0.948266 0.499195 0.217050 0.189518
H15   H     H_    0.028989 0.386413 0.122033 0.168263
N6    N     N_R   0.109258 0.580902 0.793573 0.218883
O16   O     O_R   0.049804 0.492828 0.762084 -0.311446
O17   O     O_R   0.053380 0.692253 0.806696 -0.344327
N7    N     N_R   0.565250 0.384027 0.772902 0.201054
O18   O     O_R   0.687679 0.436058 0.764917 -0.325376
O19   O     O_R   0.566767 0.283333 0.724917 -0.387165

loop_
_geom_bond_atom_site_label_1
_geom_bond_atom_site_label_2
_geom_bond_distance
_ccdc_geom_bond_type
O4    Zn2   1.890713 S    
N2    H12   1.026027 S    
C13   C14   1.414558 A    
C29   H14   1.110918 S    
C16   H5    1.079417 S    
N7    O18   1.301871 A    
C6    C22   1.385494 A    
C25   C26   1.334532 D    
C5    C8    1.413168 A    
Zn1   O7    1.890711 S    
C9    C10   1.419343 A    
C27   C28   1.505905 S    
Zn2   O8    1.955750 S    
C24   N5    1.446309 S    
C22   H1    1.076373 S    
C18   C20   1.417592 A    
C7    C8    1.392679 A    
C2    C5    1.477892 S    
C29   H15   1.113495 S    
N5    O13   1.301271 A    
C1    C26   1.419461 S    
C14   H4    1.074778 S    
N3    O9    1.301493 A    
N4    O11   1.301344 A    
C6    C21   1.405658 A    
C23   H6    1.086790 S    
C25   H7    1.086852 S    
C21   O15   1.382624 S    
C16   C17   1.384503 A    
O15   C29   1.409235 S    
C26   H8    1.086206 S    
O3    Zn1   1.955753 S    
O1    Zn1   1.966112 S    
O4    C2    1.302254 A    
C13   C19   1.424800 A    
O3    C2    1.296696 A    
C18   C19   1.423275 A    
O8    C4    1.293156 A    
O2    C1    1.283308 A    
C19   C22   1.397732 A    
C4    C6    1.457566 S    
N3    O10   1.301584 A    
C17   H2    1.082048 S    
C20   C21   1.407349 A    
O7    C4    1.296859 A    
N1    H10   1.026058 S    
C14   C15   1.394759 A    
N5    O14   1.301907 A    
C3    C24   1.438410 S    
C10   C12   1.420105 A    
C29   H13   1.108966 S    
C5    C9    1.413824 A    
Zn1   N1    2.016936 S    
Zn2   N2    2.015267 S    
C23   C24   1.343333 D    
C10   C11   1.419537 A    
C23   C25   1.441153 S    
Zn2   O6    1.966112 S    
C28   N2    1.292443 D    
C12   C16   1.408706 A    
C27   H9    1.084744 S    
N6    O17   1.301203 A    
C17   C18   1.397450 A    
Zn1   O5    1.974306 S    
C11   C15   1.409221 A    
C12   C13   1.412057 A    
C9    N7    1.438448 S    
O5    C3    1.288087 A    
C7    H3    1.082000 S    
C28   H11   1.084544 S    
C8    N6    1.434147 S    
C27   N1    1.293023 D    
C20   N4    1.437710 S    
N7    O19   1.302062 A    
O2    Zn2   1.974305 S    
C15   N3    1.441007 S    
N6    O16   1.301277 A    
N4    O12   1.301281 A    
O1    C1    1.288145 A    
O6    C3    1.288943 A    
C7    C11   1.401422 A    
