data_mof_unit_25499.cif
_audit_creation_date              2013-03-05T16:18:54-0500
_audit_creation_method            fapswitch 2.2
_symmetry_space_group_name_H-M    P1
_symmetry_Int_Tables_number       1
_space_group_crystal_system       triclinic
_cell_length_a                    9.692352
_cell_length_b                    10.632063
_cell_length_c                    16.770506
_cell_angle_alpha                 90.029045
_cell_angle_beta                  84.644045
_cell_angle_gamma                 89.976561
_cell_volume                      1720.6498843

loop_
_atom_site_label
_atom_site_type_symbol
_atom_site_description
_atom_site_fract_x
_atom_site_fract_y
_atom_site_fract_z
_atom_type_partial_charge
O1    O     O_R   0.383960 0.685090 0.500020 -0.636152
O2    O     O_R   0.616040 0.685320 0.499960 -0.642020
C1    C     C_R   0.500198 0.742514 0.500266 0.833091
O3    O     O_R   0.370240 0.499890 0.615830 -0.627352
O4    O     O_R   0.602330 0.500120 0.615770 -0.620706
C2    C     C_R   0.480234 0.506435 0.652921 0.864242
Zn1   Zn    Zn3+2 0.345040 0.499850 0.500040 0.926920
Zn2   Zn    Zn3+2 0.654960 0.500150 0.499960 0.906402
O5    O     O_R   0.383960 0.314680 0.500040 -0.620229
O6    O     O_R   0.616040 0.314910 0.499980 -0.633525
O7    O     O_R   0.397670 0.499880 0.384230 -0.593036
O8    O     O_R   0.629760 0.500110 0.384170 -0.629237
C3    C     C_R   0.500320 0.257441 0.500225 0.870217
C4    C     C_R   0.519964 0.498664 0.346683 0.939360
C5    C     C_R   0.466908 0.546285 0.735730 -0.026561
C6    C     C_R   0.565342 0.630059 0.761411 -0.192369
C7    C     C_R   0.554512 0.670688 0.840151 -0.076171
C8    C     C_R   0.447678 0.624317 0.893884 0.209304
C9    C     C_R   0.342466 0.549797 0.866950 -0.111505
C10   C     C_R   0.351669 0.511122 0.787438 -0.203013
C11   C     C_R   0.450140 0.481975 0.130636 -0.232367
C12   C     C_R   0.437253 0.456516 0.212389 0.322416
C13   C     C_R   0.647819 0.578693 0.224625 -0.250297
C14   C     C_R   0.660040 0.602053 0.143056 -0.090139
C15   C     C_R   0.560205 0.555228 0.096362 0.027774
C16   C     C_2   0.460829 0.629474 0.979321 -0.395093
C17   C     C_2   0.571060 0.578293 0.010562 0.307555
C18   C     C_R   0.535837 0.508075 0.259980 -0.169100
H1    H     H_    0.651529 0.662735 0.720893 0.137979
H2    H     H_    0.723713 0.619436 0.260556 0.163157
H3    H     H_    0.259334 0.514215 0.908536 0.156656
H4    H     H_    0.376008 0.442360 0.093049 0.185206
H5    H     H_    0.272683 0.449851 0.767239 0.146368
H6    H     H_    0.370365 0.658032 0.018421 0.162570
H7    H     H_    0.635111 0.729746 0.860736 0.142394
H8    H     H_    0.745158 0.658984 0.116869 0.173507
C19   C     C_3   0.440071 0.927636 0.424248 -0.419708
H9    H     H_    0.331886 0.893424 0.422178 0.177019
H10   H     H_    0.502176 0.891958 0.369688 0.165616
C20   C     C_3   0.440714 0.071929 0.424098 -0.344614
H11   H     H_    0.503976 0.106547 0.369715 0.196171
H12   H     H_    0.332900 0.106839 0.421517 0.202902
H13   H     H_    0.304389 0.893070 0.576940 0.171789
H14   H     H_    0.304076 0.106678 0.576441 0.171274
C21   C     C_3   0.412920 0.927795 0.575895 -0.396348
C22   C     C_3   0.651916 0.928488 0.501431 -0.395634
C23   C     C_3   0.501209 0.878749 0.500487 0.182342
H15   H     H_    0.698646 0.893804 0.555547 0.167843
H16   H     H_    0.717723 0.894376 0.447737 0.171423
C24   C     C_3   0.501382 0.121110 0.500467 0.145972
C25   C     C_3   0.412685 0.072224 0.575761 -0.406142
C26   C     C_3   0.651953 0.071326 0.501708 -0.396290
H17   H     H_    0.718350 0.105833 0.448382 0.177571
H18   H     H_    0.698002 0.105546 0.556164 0.172898
H19   H     H_    0.455888 0.892696 0.631043 0.160330
H20   H     H_    0.455014 0.107711 0.631004 0.164862
C27   C     C_3   0.915138 0.628874 0.515094 -0.233955
H21   H     H_    0.866675 0.666646 0.572963 0.144716
H22   H     H_    0.884381 0.693304 0.467604 0.146023
C28   C     C_3   0.077731 0.630586 0.515049 -0.247280
H23   H     H_    0.122446 0.696238 0.467879 0.146820
H24   H     H_    0.106672 0.668310 0.573104 0.150025
H25   H     H_    0.862417 0.449980 0.625073 0.168316
H26   H     H_    0.100949 0.451530 0.624367 0.157965
C29   C     C_3   0.909555 0.418442 0.565420 -0.230614
C30   C     C_3   0.930928 0.455021 0.424340 -0.229295
N1    N     N_3   0.861190 0.500250 0.501720 -0.042356
H27   H     H_    0.895517 0.357942 0.412148 0.156622
H28   H     H_    0.899786 0.514696 0.374598 0.161462
N2    N     N_3   0.138550 0.503270 0.501080 -0.050028
C31   C     C_3   0.072280 0.419959 0.564874 -0.244064
C32   C     C_3   0.093364 0.457196 0.423869 -0.180938
H29   H     H_    0.137205 0.518397 0.374048 0.177190
H30   H     H_    0.135482 0.361203 0.411116 0.192536
H31   H     H_    0.873301 0.320367 0.557490 0.144201
H32   H     H_    0.113016 0.322580 0.556387 0.145582
N3    N     N_R   0.327508 0.375503 0.245117 0.195970
O9    O     O_R   0.208286 0.376173 0.215274 -0.411256
O10   O     O_R   0.352630 0.287973 0.295963 -0.448858
N4    N     N_R   0.686299 0.524384 0.961642 0.219020
O11   O     O_R   0.812020 0.542298 0.980451 -0.405946
O12   O     O_R   0.664523 0.438117 0.909158 -0.377385

loop_
_geom_bond_atom_site_label_1
_geom_bond_atom_site_label_2
_geom_bond_distance
_ccdc_geom_bond_type
C30   H27   1.112715 S    
H25   C29   1.111847 S    
C9    C10   1.390086 A    
C8    C16   1.451300 S    
C9    H3    1.083676 S    
Zn1   N2    2.000136 S    
N3    O9    1.301456 A    
Zn1   O7    1.961471 S    
C22   H16   1.114216 S    
C16   C17   1.347730 D    
C14   H8    1.083010 S    
C25   H20   1.113426 S    
C19   C20   1.534145 S    
C31   H32   1.112248 S    
O7    C4    1.289301 A    
C27   H22   1.112280 S    
C30   H28   1.112179 S    
C21   C25   1.535579 S    
C5    C6    1.402158 A    
C22   C26   1.518662 S    
C28   H24   1.112718 S    
C8    C9    1.399270 A    
C21   C23   1.549323 S    
O5    C3    1.281562 A    
C2    C5    1.445929 S    
C16   H6    1.087753 S    
C30   C32   1.573845 S    
C6    C7    1.383789 A    
C29   N1    1.487147 S    
C24   C26   1.554173 S    
C13   C14   1.384613 A    
N2    C31   1.488254 S    
C19   C23   1.548522 S    
C20   H12   1.113439 S    
C30   N1    1.485763 S    
H26   C31   1.112125 S    
C12   C18   1.411693 A    
C11   C12   1.391789 A    
C27   N1    1.488640 S    
O3    Zn1   1.979647 S    
C26   H18   1.114226 S    
C24   C25   1.549852 S    
N3    O10   1.300708 A    
C5    C10   1.399688 A    
C11   H4    1.084219 S    
C22   H15   1.114325 S    
C13   H2    1.083778 S    
C14   C15   1.392417 A    
N4    O12   1.301743 A    
C17   N4    1.441214 S    
N4    O11   1.300962 A    
C27   C28   1.575943 S    
C6    H1    1.083864 S    
C29   C31   1.576443 S    
C28   H23   1.112509 S    
O1    C1    1.281977 A    
C19   H9    1.113599 S    
C28   N2    1.485912 S    
Zn2   O8    1.979649 S    
C7    C8    1.397846 A    
C13   C18   1.405090 A    
H13   C21   1.113568 S    
C10   H5    1.083428 S    
H14   C25   1.113502 S    
C32   H30   1.112282 S    
C20   H11   1.113257 S    
O8    C4    1.285630 A    
O3    C2    1.285362 A    
C26   H17   1.114280 S    
Zn1   O5    2.004401 S    
C11   C15   1.400599 A    
C22   C23   1.555161 S    
O1    Zn1   2.005431 S    
O2    Zn2   2.004403 S    
C12   N3    1.437643 S    
C32   H29   1.111997 S    
O6    C3    1.277117 A    
O4    Zn2   1.961471 S    
C15   C17   1.453877 S    
C29   H31   1.112368 S    
O2    C1    1.276245 A    
C19   H10   1.113589 S    
C27   H21   1.112700 S    
O4    C2    1.286612 A    
C20   C24   1.549091 S    
C1    C23   1.448506 S    
C3    C24   1.449529 S    
C21   H19   1.113633 S    
Zn2   N1    2.001824 S    
Zn2   O6    2.005430 S    
N2    C32   1.487902 S    
C7    H7    1.083620 S    
C4    C18   1.451320 S    
