data_mof_unit_17177.cif
_audit_creation_date              2012-12-10T16:56:31-0500
_audit_creation_method            fapswitch 2.2
_symmetry_space_group_name_H-M    P1
_symmetry_Int_Tables_number       1
_space_group_crystal_system       triclinic
_cell_length_a                    10.747159
_cell_length_b                    10.93775
_cell_length_c                    9.723867
_cell_angle_alpha                 89.908798
_cell_angle_beta                  90.471527
_cell_angle_gamma                 90.364075
_cell_volume                      1142.97488397

loop_
_atom_site_label
_atom_site_type_symbol
_atom_type_description
_atom_site_fract_x
_atom_site_fract_y
_atom_site_fract_z
_atom_type_partial_charge
C1    C     C_R   0.508922 0.265161 0.500139 0.874098
C2    C     C_3   0.878173 0.501865 0.500092 -0.028365
C3    C     C_3   0.930733 0.622552 0.434248 -0.163598
C4    C     C_3   0.925616 0.387470 0.422540 -0.375378
C5    C     C_2   0.545841 0.929438 0.396669 -0.123950
C6    C     C_2   0.493202 0.865864 0.498634 -0.313698
C7    C     C_2   0.536395 0.062811 0.389044 0.369373
C8    C     C_2   0.540687 0.134511 0.503587 -0.284970
C9    C     C_2   0.404778 0.471392 0.923695 0.016213
C10   C     C_2   0.415603 0.445714 0.075092 0.506558
C11   C     C_R   0.260045 0.499443 0.499929 0.829690
C12   C     C_R   0.498687 0.734297 0.499768 0.850938
C13   C     C_R   0.740032 0.501361 0.500374 0.748105
C14   C     C_3   0.071921 0.492455 0.650163 -0.359907
C15   C     C_3   0.929360 0.494031 0.649943 -0.344062
C16   C     C_3   0.074963 0.619476 0.434329 -0.497912
C17   C     C_3   0.069182 0.389316 0.415995 0.252257
C18   C     C_3   0.122056 0.499172 0.500456 0.019605
Cu1   Cu    Cu3+1 0.500030 0.500020 0.638630 1.075972
Cu2   Cu    Cu3+1 0.499970 0.499980 0.361370 1.069567
H1    H     H_    0.107340 0.571619 0.711176 0.180945
H2    H     H_    0.886208 0.382716 0.316721 0.220945
H3    H     H_    0.112335 0.628344 0.328245 0.205361
H4    H     H_    0.588855 0.882304 0.311118 0.219723
H5    H     H_    0.444737 0.910272 0.582139 0.163834
H6    H     H_    0.313541 0.462295 0.876346 0.124497
H7    H     H_    0.105040 0.407931 0.702324 0.229667
H8    H     H_    0.546443 0.570797 0.110068 0.217092
H9    H     H_    0.894196 0.409735 0.701417 0.229705
H10   H     H_    0.897069 0.573544 0.711184 0.206401
H11   H     H_    0.111945 0.699232 0.493232 0.182865
H12   H     H_    0.902222 0.699682 0.501697 0.152469
H13   H     H_    0.096205 0.400505 0.306627 0.195699
H14   H     H_    0.892087 0.303667 0.476180 0.207566
N1    N     N_2   0.498630 0.498660 0.846910 -0.029088
N2    N     N_2   0.498590 0.498630 0.153040 -0.278874
O1    O     O_R   0.500020 0.321960 0.617040 -0.520806
O2    O     O_R   0.499980 0.321920 0.382900 -0.483495
O3    O     O_R   0.317710 0.500000 0.617070 -0.609155
O4    O     O_R   0.317670 0.499960 0.382930 -0.558215
O5    O     O_R   0.500020 0.678080 0.617100 -0.566728
O6    O     O_R   0.499980 0.678040 0.382960 -0.584700
O7    O     O_R   0.682330 0.500040 0.617070 -0.533811
O8    O     O_R   0.682290 0.500000 0.382930 -0.569307
C19   C     C_2   0.880820 0.649864 0.291127 0.899764
O9    O     O_2   0.814134 0.738682 0.272718 -0.583137
O10   O     O_R   0.911872 0.575162 0.180158 -0.752489
H15   H     H_    0.872474 0.603257 0.090548 0.360330
Cl1   Cl    Cl    0.513952 0.117978 0.219911 -0.468535
C20   C     C_2   0.592869 0.087642 0.636579 0.817667
O11   O     O_2   0.686600 0.024703 0.636935 -0.556699
O12   O     O_R   0.535606 0.116797 0.760867 -0.675987
H16   H     H_    0.580031 0.080232 0.843432 0.374078
Cl2   Cl    Cl    0.646390 0.459722 0.906916 -0.497890
Cl3   Cl    Cl    0.307158 0.342412 0.143811 -0.489045
Cl4   Cl    Cl    0.131403 0.245538 0.472676 -0.551186

loop_
_geom_bond_atom_site_label_1
_geom_bond_atom_site_label_2
_ccdc_geom_bond_type
C2    C4    S    
N1    Cl2   S    
C5    C7    S    
C11   C18   S    
C12   O5    A    
C10   Cl3   S    
C14   H7    S    
C1    C8    S    
C4    H2    S    
C9    C10   S    
C14   C18   S    
Cu2   O6    S    
Cu1   Cu2   S    
C1    O1    A    
C17   C18   S    
Cu1   O5    S    
C7    C8    D    
Cu1   N1    S    
C19   O9    D    
C16   H11   S    
C11   O3    A    
C2    C15   S    
C17   Cl4   S    
H8    N2    S    
C3    H12   S    
C5    H4    S    
C17   H13   S    
C1    O2    A    
C4    C17   S    
Cu1   O3    S    
C14   H1    S    
Cu2   O8    S    
Cu1   O7    S    
C9    H6    S    
C15   H9    S    
C16   H3    S    
C2    C3    S    
C19   O10   S    
C6    C12   S    
C5    C6    D    
Cu2   O4    S    
C4    H14   S    
C6    H5    S    
C11   O4    A    
Cu2   N2    S    
C8    C20   S    
C13   O7    A    
Cu2   O2    S    
O12   H16   S    
C7    Cl1   S    
C15   H10   S    
C16   C18   S    
C20   O12   S    
C9    N1    D    
C2    C13   S    
C14   C15   S    
C12   O6    A    
Cu1   O1    S    
C20   O11   D    
C3    C19   S    
C13   O8    A    
C3    C16   S    
O10   H15   S    
C10   N2    D    
