data_mof_unit_31481.cif
_audit_creation_date              2012-12-11T14:28:21-0500
_audit_creation_method            fapswitch 2.2
_symmetry_space_group_name_H-M    P1
_symmetry_Int_Tables_number       1
_space_group_crystal_system       triclinic
_cell_length_a                    11.007144
_cell_length_b                    18.883499
_cell_length_c                    18.654128
_cell_angle_alpha                 90.000102
_cell_angle_beta                  90.000215
_cell_angle_gamma                 89.999982
_cell_volume                      3877.32379294

loop_
_atom_site_label
_atom_site_type_symbol
_atom_type_description
_atom_site_fract_x
_atom_site_fract_y
_atom_site_fract_z
_atom_type_partial_charge
C1    C     C_R   0.317644 0.964709 0.644846 0.553347
C2    C     C_3   0.227379 0.758958 0.055795 0.056409
C3    C     C_3   0.075961 0.178348 0.964950 -0.145831
C4    C     C_3   0.564918 0.319138 0.468375 -0.144451
C5    C     C_3   0.575965 0.321654 0.035051 -0.145829
C6    C     C_3   0.576023 0.678332 0.535069 -0.145838
C7    C     C_3   0.564794 0.680898 0.968413 -0.144417
C8    C     C_3   0.208909 0.818945 0.491742 -0.134235
C9    C     C_3   0.198401 0.822398 0.006219 -0.131053
C10   C     C_3   0.198520 0.177633 0.506241 -0.131090
C11   C     C_3   0.208855 0.181041 0.991753 -0.134220
C12   C     C_3   0.698518 0.322370 0.493759 -0.131087
C13   C     C_3   0.227405 0.241109 0.555790 0.056428
C14   C     C_3   0.708859 0.318957 0.008249 -0.134220
C15   C     C_3   0.708912 0.681058 0.508259 -0.134236
C16   C     C_3   0.698398 0.677600 0.993782 -0.131052
C17   C     C_3   0.168759 0.771734 0.555525 0.005799
C18   C     C_3   0.168078 0.771565 0.943830 0.006689
C19   C     C_3   0.168084 0.228430 0.443837 0.006680
C20   C     C_3   0.168753 0.228270 0.055529 0.005806
C21   C     C_3   0.668088 0.271571 0.556163 0.006678
C22   C     C_3   0.668754 0.271730 0.944472 0.005804
C23   C     C_3   0.668757 0.728266 0.444475 0.005799
C24   C     C_3   0.229231 0.247391 0.944561 0.057540
C25   C     C_3   0.668080 0.728435 0.056170 0.006689
C26   C     C_3   0.037013 0.776455 0.529223 -0.107368
C27   C     C_3   0.035406 0.770093 0.968417 -0.109742
C28   C     C_3   0.035416 0.229830 0.468442 -0.109712
C29   C     C_3   0.037000 0.223580 0.029235 -0.107378
C30   C     C_3   0.535421 0.270166 0.531557 -0.109714
C31   C     C_3   0.537001 0.276424 0.970765 -0.107377
C32   C     C_3   0.537012 0.723541 0.470777 -0.107367
C33   C     C_3   0.535408 0.729910 0.031582 -0.109744
C34   C     C_3   0.057695 0.708154 0.486166 -0.103085
C35   C     C_3   0.727410 0.258896 0.444209 0.056431
C36   C     C_3   0.064934 0.704413 0.013845 -0.105137
C37   C     C_3   0.064846 0.295543 0.513843 -0.105107
C38   C     C_3   0.057727 0.291869 0.986167 -0.103092
C39   C     C_3   0.564858 0.204456 0.486155 -0.105110
C40   C     C_3   0.557723 0.208133 0.013831 -0.103090
C41   C     C_3   0.557688 0.791844 0.513833 -0.103082
C42   C     C_3   0.564941 0.795588 0.986154 -0.105140
C43   C     C_3   0.191952 0.704744 0.509488 -0.098814
C44   C     C_3   0.200073 0.707478 0.991905 -0.102252
C45   C     C_3   0.199981 0.292553 0.491889 -0.102214
C46   C     C_3   0.729230 0.252606 0.055440 0.057538
C47   C     C_3   0.191991 0.295248 0.009482 -0.098825
C48   C     C_3   0.699993 0.207450 0.508109 -0.102218
C49   C     C_3   0.691987 0.204751 0.990518 -0.098824
C50   C     C_3   0.691945 0.795258 0.490511 -0.098812
C51   C     C_3   0.700080 0.792520 0.008094 -0.102254
C52   C     C_3   0.729238 0.747423 0.555438 0.057548
C53   C     C_3   0.727382 0.741038 0.944205 0.056411
C54   C     C_3   0.095535 0.754028 0.422851 0.064836
C55   C     C_3   0.093452 0.753966 0.076235 0.065632
C56   C     C_3   0.093475 0.246030 0.576245 0.065622
C57   C     C_R   0.317605 0.965613 0.854597 0.550831
C58   C     C_3   0.095523 0.245975 0.922857 0.064839
C59   C     C_3   0.593481 0.253971 0.423754 0.065623
C60   C     C_3   0.595522 0.254025 0.077143 0.064837
C61   C     C_3   0.595533 0.745972 0.577148 0.064836
C62   C     C_3   0.593455 0.746034 0.923764 0.065634
C63   C     C_R   0.314118 0.009567 0.426733 -0.018483
C64   C     C_R   0.314474 0.013115 0.071818 -0.016770
C65   C     C_R   0.314484 0.986888 0.571820 -0.016798
C66   C     C_R   0.314106 0.990451 0.926727 -0.018462
C67   C     C_R   0.814484 0.513115 0.428181 -0.016798
C68   C     C_R   0.317607 0.034392 0.354600 0.550828
C69   C     C_R   0.814106 0.509548 0.073274 -0.018463
C70   C     C_R   0.814117 0.490436 0.573268 -0.018483
C71   C     C_R   0.814474 0.486883 0.928183 -0.016769
C72   C     C_R   0.535200 0.981255 0.426551 -0.067363
C73   C     C_R   0.535615 0.984087 0.071127 -0.066513
C74   C     C_R   0.535627 0.015913 0.571135 -0.066503
C75   C     C_R   0.535187 0.018759 0.926547 -0.067373
C76   C     C_R   0.035626 0.484089 0.428868 -0.066505
C77   C     C_R   0.035186 0.481239 0.073455 -0.067371
C78   C     C_R   0.035199 0.518748 0.573451 -0.067361
C79   C     C_R   0.317642 0.035291 0.144846 0.553382
C80   C     C_R   0.035615 0.515911 0.928875 -0.066514
C81   C     C_R   0.644882 0.988258 0.462911 -0.129849
C82   C     C_R   0.644993 0.989515 0.034111 -0.129391
C83   C     C_R   0.645005 0.010483 0.534120 -0.129382
C84   C     C_R   0.644869 0.011749 0.962904 -0.129853
C85   C     C_R   0.145005 0.489517 0.465884 -0.129385
C86   C     C_R   0.144869 0.488251 0.037099 -0.129851
C87   C     C_R   0.144881 0.511743 0.537093 -0.129845
C88   C     C_R   0.144993 0.510485 0.965892 -0.129394
C89   C     C_R   0.424630 0.000772 0.536139 -0.021534
C90   C     C_R   0.817606 0.465609 0.645401 0.550827
C91   C     C_R   0.424332 0.004686 0.962059 -0.022961
C92   C     C_R   0.424345 0.995328 0.462063 -0.022955
C93   C     C_R   0.424618 0.999234 0.036134 -0.021532
C94   C     C_R   0.924344 0.504675 0.537938 -0.022954
C95   C     C_R   0.924618 0.500764 0.963867 -0.021533
C96   C     C_R   0.924630 0.499231 0.463863 -0.021535
C97   C     C_R   0.924331 0.495312 0.037942 -0.022961
C98   C     C_R   0.200655 0.983926 0.533237 0.003930
C99   C     C_R   0.200195 0.988672 0.965364 0.002061
C100  C     C_R   0.200212 0.011351 0.465373 0.002064
C101  C     C_R   0.817643 0.464709 0.855155 0.553384
C102  C     C_R   0.200641 0.016080 0.033236 0.003935
C103  C     C_R   0.700211 0.488652 0.534628 0.002064
C104  C     C_R   0.700641 0.483917 0.966764 0.003937
C105  C     C_R   0.700655 0.516077 0.466764 0.003931
C106  C     C_R   0.700195 0.511326 0.034636 0.002059
C107  C     C_R   0.086501 0.955615 0.557998 -0.071508
C108  C     C_R   0.085948 0.959261 0.941731 -0.073137
C109  C     C_R   0.085967 0.040762 0.441741 -0.073156
C110  C     C_R   0.086486 0.044384 0.058005 -0.071472
C111  C     C_R   0.585966 0.459241 0.558259 -0.073158
C112  C     C_R   0.817644 0.535291 0.355154 0.553348
C113  C     C_R   0.586485 0.455615 0.941994 -0.071472
C114  C     C_R   0.586501 0.544387 0.442001 -0.071507
C115  C     C_R   0.585947 0.540737 0.058269 -0.073138
C116  C     C_R   0.976526 0.974905 0.528146 -0.160679
C117  C     C_R   0.976366 0.977778 0.972574 -0.161659
C118  C     C_R   0.976382 0.022235 0.472576 -0.161673
C119  C     C_R   0.976510 0.025097 0.028154 -0.160658
C120  C     C_R   0.476382 0.477766 0.527422 -0.161675
C121  C     C_R   0.476510 0.474902 0.971845 -0.160658
C122  C     C_R   0.476526 0.525096 0.471851 -0.160678
C123  C     C_R   0.817605 0.534386 0.145403 0.550829
C124  C     C_R   0.476365 0.522220 0.027425 -0.161659
C125  C     C_R   0.189265 0.773340 0.635844 0.568453
C126  C     C_R   0.189409 0.773367 0.863965 0.568222
C127  C     C_R   0.189406 0.226633 0.363967 0.568239
C128  C     C_R   0.189264 0.226661 0.135844 0.568447
C129  C     C_R   0.689407 0.273367 0.636033 0.568240
C130  C     C_R   0.689264 0.273339 0.864156 0.568447
C131  C     C_R   0.689264 0.726660 0.364157 0.568452
C132  C     C_R   0.689409 0.726633 0.136035 0.568222
C133  C     C_R   0.544918 0.768151 0.645950 0.579839
C134  C     C_3   0.229241 0.752581 0.444562 0.057550
C135  C     C_R   0.544222 0.768327 0.854512 0.579906
C136  C     C_R   0.544231 0.231676 0.354507 0.579904
C137  C     C_R   0.544914 0.231848 0.145948 0.579835
C138  C     C_R   0.044229 0.268325 0.645492 0.579904
C139  C     C_R   0.044915 0.268152 0.854052 0.579837
C140  C     C_R   0.044919 0.731850 0.354049 0.579839
C141  C     C_R   0.044220 0.731672 0.145487 0.579906
C142  C     C_3   0.076019 0.821667 0.464932 -0.145839
C143  C     C_3   0.064796 0.819103 0.031587 -0.144418
C144  C     C_3   0.064919 0.180860 0.531626 -0.144453
Cr1   Cr    Cr6+3 0.488160 0.884660 0.750000 1.022131
Cr2   Cr    Cr6+3 0.333410 0.272740 0.250000 1.028170
Cr3   Cr    Cr6+3 0.833410 0.227260 0.750000 1.028170
Cr4   Cr    Cr6+3 0.833410 0.772740 0.250000 1.028188
Cr5   Cr    Cr6+3 0.488160 0.115340 0.250000 1.022142
Cr6   Cr    Cr6+3 0.988160 0.384660 0.750000 1.022142
Cr7   Cr    Cr6+3 0.988160 0.615340 0.250000 1.022131
Cr8   Cr    Cr6+3 0.173480 0.883120 0.750000 1.020723
Cr9   Cr    Cr6+3 0.173480 0.116880 0.250000 1.020742
Cr10  Cr    Cr6+3 0.673480 0.383120 0.750000 1.020741
Cr11  Cr    Cr6+3 0.673480 0.616880 0.250000 1.020723
Cr12  Cr    Cr6+3 0.333410 0.727260 0.750000 1.028187
H1    H     H_    0.277639 0.861425 0.493779 0.122731
H2    H     H_    0.892791 0.954958 0.952968 0.110012
H3    H     H_    0.892807 0.045055 0.452971 0.110034
H4    H     H_    0.892865 0.046858 0.048898 0.112325
H5    H     H_    0.392806 0.454946 0.547025 0.110033
H6    H     H_    0.392865 0.453141 0.951100 0.112325
H7    H     H_    0.392881 0.546863 0.451111 0.112336
H8    H     H_    0.392791 0.545041 0.047029 0.110012
H9    H     H_    0.027448 0.867455 0.441366 0.148162
H10   H     H_    0.007839 0.862916 0.052283 0.142839
H11   H     H_    0.008057 0.137023 0.552356 0.142905
H12   H     H_    0.263436 0.866629 0.003468 0.127437
H13   H     H_    0.027347 0.132569 0.941395 0.148144
H14   H     H_    0.508050 0.362975 0.447646 0.142902
H15   H     H_    0.527355 0.367433 0.058606 0.148145
H16   H     H_    0.527457 0.632543 0.558636 0.148164
H17   H     H_    0.507833 0.637086 0.947719 0.142837
H18   H     H_    0.994557 0.662377 0.483725 0.126540
H19   H     H_    0.008061 0.655917 0.016917 0.133969
H20   H     H_    0.007899 0.344010 0.516907 0.133889
H21   H     H_    0.994621 0.337661 0.983721 0.126579
H22   H     H_    0.507916 0.155986 0.483090 0.133892
H23   H     H_    0.263587 0.133415 0.503494 0.127390
H24   H     H_    0.494614 0.162343 0.016276 0.126579
H25   H     H_    0.494546 0.837619 0.516274 0.126539
H26   H     H_    0.508073 0.844086 0.983081 0.133970
H27   H     H_    0.537992 0.965158 0.370930 0.155912
H28   H     H_    0.538860 0.967569 0.126595 0.157832
H29   H     H_    0.538872 0.032426 0.626605 0.157803
H30   H     H_    0.537977 0.034858 0.870926 0.155921
H31   H     H_    0.038872 0.467575 0.373398 0.157805
H32   H     H_    0.037976 0.465140 0.129076 0.155920
H33   H     H_    0.037991 0.534844 0.629073 0.155910
H34   H     H_    0.277578 0.138558 0.993793 0.122751
H35   H     H_    0.038860 0.532430 0.873407 0.157834
H36   H     H_    0.960585 0.801285 0.556975 0.154563
H37   H     H_    0.958923 0.789801 0.936895 0.161554
H38   H     H_    0.958932 0.210059 0.436960 0.161476
H39   H     H_    0.960573 0.198774 0.057007 0.154601
H40   H     H_    0.458936 0.289935 0.563038 0.161479
H41   H     H_    0.460576 0.301230 0.942990 0.154600
H42   H     H_    0.460585 0.698711 0.443024 0.154561
H43   H     H_    0.458923 0.710204 0.063103 0.161555
H44   H     H_    0.241479 0.656801 0.527612 0.122103
H45   H     H_    0.763582 0.366590 0.496507 0.127391
H46   H     H_    0.256839 0.661595 0.975719 0.116637
H47   H     H_    0.256664 0.338462 0.475679 0.116695
H48   H     H_    0.241556 0.343181 0.027597 0.122080
H49   H     H_    0.756680 0.161542 0.524319 0.116693
H50   H     H_    0.741547 0.156817 0.972402 0.122081
H51   H     H_    0.741467 0.843202 0.472387 0.122104
H52   H     H_    0.756850 0.838402 0.024280 0.116636
H53   H     H_    0.728835 0.978201 0.434861 0.109090
H54   H     H_    0.728996 0.978017 0.061542 0.109720
H55   H     H_    0.729009 0.021973 0.561554 0.109702
H56   H     H_    0.777584 0.361439 0.006210 0.122749
H57   H     H_    0.728821 0.021804 0.934854 0.109097
H58   H     H_    0.229008 0.478026 0.438450 0.109700
H59   H     H_    0.228821 0.478196 0.065150 0.109098
H60   H     H_    0.228834 0.521799 0.565143 0.109091
H61   H     H_    0.228995 0.521984 0.938462 0.109718
H62   H     H_    0.075869 0.082609 0.403518 0.180733
H63   H     H_    0.076705 0.085332 0.097025 0.181580
H64   H     H_    0.076726 0.914661 0.597011 0.181582
H65   H     H_    0.075844 0.917415 0.903507 0.180731
H66   H     H_    0.576726 0.585341 0.402988 0.181583
H67   H     H_    0.777645 0.638579 0.506222 0.122730
H68   H     H_    0.575844 0.582583 0.096492 0.180732
H69   H     H_    0.575867 0.417394 0.596481 0.180733
H70   H     H_    0.576704 0.414667 0.902974 0.181579
H71   H     H_    0.763432 0.633368 0.996534 0.127438
H72   H     H_    0.892881 0.953137 0.548884 0.112336
I1    I     I_    0.335013 0.771672 0.348717 -0.319354
I2    I     I_    0.330247 0.791764 0.148791 -0.332933
I3    I     I_    0.330314 0.208444 0.648816 -0.332775
I4    I     I_    0.334991 0.228212 0.848733 -0.319441
I5    I     I_    0.830321 0.291567 0.351187 -0.332785
I6    I     I_    0.834986 0.271777 0.151271 -0.319430
I7    I     I_    0.835008 0.728337 0.651287 -0.319346
I8    I     I_    0.830253 0.708226 0.851213 -0.332944
O1    O     O_R   0.575450 0.828820 0.667950 -0.494445
O2    O     O_R   0.416860 0.942890 0.825320 -0.511386
O3    O     O_R   0.416860 0.057110 0.325320 -0.511385
O4    O     O_R   0.416860 0.057110 0.174680 -0.511997
O5    O     O_R   0.916860 0.442890 0.674680 -0.511384
O6    O     O_R   0.916860 0.442890 0.825320 -0.511997
O7    O     O_R   0.916860 0.557110 0.325320 -0.511998
O8    O     O_R   0.916860 0.557110 0.174680 -0.511385
O9    O     O_R   0.213790 0.953680 0.668330 -0.538648
O10   O     O_R   0.213790 0.953680 0.831670 -0.540637
O11   O     O_R   0.213790 0.046320 0.331670 -0.540622
O12   O     O_R   0.575450 0.828820 0.832050 -0.496306
O13   O     O_R   0.213790 0.046320 0.168330 -0.538640
O14   O     O_R   0.713790 0.453680 0.668330 -0.540624
O15   O     O_R   0.713790 0.453680 0.831670 -0.538640
O16   O     O_R   0.713790 0.546320 0.331670 -0.538647
O17   O     O_R   0.713790 0.546320 0.168330 -0.540638
O18   O     O_R   0.121360 0.817890 0.672660 -0.490423
O19   O     O_R   0.121360 0.817890 0.827340 -0.492041
O20   O     O_R   0.121360 0.182110 0.327340 -0.492007
O21   O     O_R   0.121360 0.182110 0.172660 -0.490440
O22   O     O_R   0.621360 0.317890 0.672660 -0.492005
O23   O     O_R   0.575450 0.171180 0.332050 -0.496279
O24   O     O_R   0.621360 0.317890 0.827340 -0.490441
O25   O     O_R   0.621360 0.682110 0.327340 -0.490424
O26   O     O_R   0.621360 0.682110 0.172660 -0.492039
O27   O     O_R   0.206850 0.711370 0.665820 -0.492909
O28   O     O_R   0.206850 0.711370 0.834180 -0.491658
O29   O     O_R   0.206850 0.288630 0.334180 -0.491668
O30   O     O_R   0.206850 0.288630 0.165820 -0.492902
O31   O     O_R   0.706850 0.211370 0.665820 -0.491669
O32   O     O_R   0.706850 0.211370 0.834180 -0.492901
O33   O     O_R   0.706850 0.788630 0.334180 -0.492908
O34   O     O_R   0.575450 0.171180 0.167950 -0.494455
O35   O     O_R   0.706850 0.788630 0.165820 -0.491659
O36   O     O_R   0.457710 0.733190 0.672630 -0.528915
O37   O     O_R   0.457710 0.733190 0.827370 -0.527581
O38   O     O_R   0.457710 0.266810 0.327370 -0.527602
O39   O     O_R   0.457710 0.266810 0.172630 -0.528915
O40   O     O_R   0.957710 0.233190 0.672630 -0.527603
O41   O     O_R   0.957710 0.233190 0.827370 -0.528915
O42   O     O_R   0.957710 0.766810 0.327370 -0.528914
O43   O     O_R   0.957710 0.766810 0.172630 -0.527582
O44   O     O_3   0.331690 0.831680 0.750000 -0.317354
O45   O     O_R   0.075450 0.328820 0.667950 -0.496276
O46   O     O_3   0.331690 0.168320 0.250000 -0.317358
O47   O     O_3   0.831690 0.331680 0.750000 -0.317359
O48   O     O_3   0.831690 0.668320 0.250000 -0.317354
O49   O     O_R   0.075450 0.328820 0.832050 -0.494457
O50   O     O_R   0.075450 0.671180 0.332050 -0.494447
O51   O     O_R   0.075450 0.671180 0.167950 -0.496303
O52   O     O_R   0.416860 0.942890 0.674680 -0.511998

loop_
_geom_bond_atom_site_label_1
_geom_bond_atom_site_label_2
_ccdc_geom_bond_type
C81   H53   S    
C71   C104  A    
C73   C82   A    
C6    C32   S    
C73   C93   A    
C74   C83   A    
Cr9   O21   S    
C9    C143  S    
C61   C133  S    
C65   C89   A    
C90   O14   A    
C116  H72   S    
C52   C61   S    
C117  C119  A    
C86   C88   A    
C71   C95   A    
C69   C123  S    
C54   C134  S    
C88   H61   S    
C134  I1    S    
C109  H62   S    
C40   H24   S    
C37   C56   S    
C50   C52   S    
C28   C144  S    
Cr6   O49   S    
C41   C61   S    
C4    C12   S    
C21   C48   S    
C100  C109  A    
C22   C130  S    
C7    C33   S    
C8    H1    S    
Cr3   O41   S    
C109  C118  A    
C11   C20   S    
Cr12  O37   S    
C111  H69   S    
C140  O42   A    
C115  H68   S    
C141  O43   A    
C70   C103  A    
C3    H13   S    
C24   I4    S    
C137  O39   A    
C17   C43   S    
C7    C62   S    
C34   H18   S    
C18   C44   S    
C137  O34   A    
C94   C96   A    
Cr8   O9    S    
C22   C49   S    
C34   C54   S    
C82   C84   A    
C64   C79   S    
C36   C44   S    
C37   C45   S    
C39   H22   S    
Cr10  O24   S    
C16   C25   S    
C69   C106  A    
C127  O29   A    
C46   C60   S    
C139  O41   A    
Cr2   O38   S    
Cr7   O51   S    
C130  O24   A    
C95   C97   A    
C8    C17   S    
Cr4   O43   S    
C106  C115  A    
C2    C55   S    
C11   H34   S    
C80   C88   A    
C36   C55   S    
C1    O9    A    
C76   C96   A    
C13   C45   S    
C78   C94   A    
C138  O45   A    
Cr5   O3    S    
C116  C118  A    
C47   H48   S    
Cr6   O47   S    
C101  O6    A    
C20   C47   S    
C3    C11   S    
Cr7   O7    S    
Cr11  O25   S    
C67   C112  S    
C49   H50   S    
C36   H19   S    
C33   H43   S    
C51   C53   S    
C76   C85   A    
C1    O52   A    
C78   C87   A    
C40   C60   S    
C57   C66   S    
C6    H16   S    
C64   C102  A    
C99   C108  A    
C4    H14   S    
C10   H23   S    
C46   I6    S    
C6    C61   S    
C103  C111  A    
Cr5   O34   S    
C75   C84   A    
C40   C49   S    
C59   C136  S    
C3    C29   S    
Cr1   O52   S    
Cr12  O28   S    
Cr6   O5    S    
C2    C44   S    
C29   C38   S    
C1    C65   S    
C87   H60   S    
C77   C97   A    
C42   C62   S    
Cr10  O22   S    
C75   C91   A    
C13   C56   S    
C38   H21   S    
C44   H46   S    
C78   H33   S    
C133  O1    A    
C79   O4    A    
C81   C83   A    
C55   C143  S    
C144  H11   S    
C8    C134  S    
Cr10  O14   S    
C29   H39   S    
C135  O37   A    
Cr6   O45   S    
C62   C135  S    
Cr2   O29   S    
C19   C28   S    
C27   C143  S    
Cr1   O2    S    
C23   C131  S    
C103  C105  A    
C10   C144  S    
C12   C35   S    
C110  H63   S    
C53   I8    S    
C21   C129  S    
C75   H30   S    
C84   H57   S    
C132  O26   A    
C63   C68   S    
C5    C60   S    
C117  H2    S    
Cr4   O33   S    
C9    H12   S    
C34   C43   S    
C57   O10   A    
C110  C119  A    
C19   C45   S    
C80   C95   A    
C128  O21   A    
C14   C22   S    
Cr7   O48   S    
C18   C126  S    
C108  H65   S    
C28   C37   S    
Cr4   O42   S    
C30   C39   S    
C125  O18   A    
C107  C116  A    
C2    I2    S    
C104  C113  A    
C9    C18   S    
C113  C121  A    
C77   H32   S    
C128  O30   A    
C140  O50   A    
C25   C132  S    
C141  O51   A    
C25   C33   S    
C82   H54   S    
C69   C97   A    
C55   C141  S    
C104  C106  A    
C118  H3    S    
C14   C46   S    
C42   H26   S    
C46   C49   S    
C70   C94   A    
C65   C98   A    
Cr12  O44   S    
C72   C92   A    
C31   C40   S    
C35   C59   S    
Cr5   O23   S    
C32   H42   S    
C38   C58   S    
C30   H40   S    
C48   H49   S    
C43   H44   S    
C35   I5    S    
Cr8   O10   S    
C72   C81   A    
Cr2   O46   S    
C130  O32   A    
C71   C101  S    
Cr4   O35   S    
C41   H25   S    
Cr10  O47   S    
C101  O15   A    
C35   C48   S    
C108  C117  A    
Cr2   O39   S    
C26   H36   S    
Cr3   O32   S    
C23   C50   S    
C98   C107  A    
C43   C134  S    
C91   C93   A    
Cr3   O47   S    
C10   C19   S    
C39   C59   S    
C125  O27   A    
C136  O23   A    
C126  O28   A    
C15   C52   S    
C114  H66   S    
C5    C14   S    
C76   H31   S    
C7    C16   S    
C54   C142  S    
C98   C100  A    
C80   H35   S    
C102  C110  A    
C33   C42   S    
C41   C50   S    
C31   H41   S    
C115  C124  A    
C136  O38   A    
C72   H27   S    
C133  O36   A    
C68   O3    A    
Cr8   O19   S    
Cr11  O16   S    
Cr12  O36   S    
C27   C36   S    
C21   C30   S    
C14   H56   S    
C23   C32   S    
C37   H20   S    
C113  H70   S    
C121  H6    S    
Cr9   O11   S    
C15   H67   S    
C123  O17   A    
C107  H64   S    
C56   C144  S    
C3    C58   S    
Cr6   O6    S    
C99   C102  A    
C67   C105  A    
C24   C58   S    
C8    C142  S    
C85   H58   S    
C52   I7    S    
C39   C48   S    
C124  H8    S    
C58   C139  S    
C16   H71   S    
Cr11  O17   S    
C132  O35   A    
C143  H10   S    
C17   C26   S    
C74   C89   A    
C64   C93   A    
C20   C128  S    
Cr10  O15   S    
C11   C24   S    
Cr5   O4    S    
C139  O49   A    
Cr11  O48   S    
Cr2   O30   S    
C16   C53   S    
C121  C124  A    
Cr8   O44   S    
C6    C15   S    
C86   H59   S    
Cr11  O26   S    
C26   C34   S    
C112  O7    A    
C54   C140  S    
C119  H4    S    
Cr1   O1    S    
C63   C92   A    
Cr5   O46   S    
C126  O19   A    
C27   H37   S    
Cr3   O40   S    
C129  O31   A    
C45   H47   S    
C60   C137  S    
C50   H51   S    
C15   C23   S    
Cr7   O8    S    
C79   O13   A    
C70   C90   S    
C123  O8    A    
C120  C122  A    
C112  O16   A    
C20   C29   S    
C85   C87   A    
C68   O11   A    
C22   C31   S    
C127  O20   A    
C105  C114  A    
Cr3   O31   S    
C129  O22   A    
C73   H28   S    
C51   H52   S    
Cr9   O13   S    
C12   C21   S    
C122  H7    S    
C138  O40   A    
C111  C120  A    
C66   C99   A    
Cr9   O46   S    
C25   C51   S    
C63   C100  A    
C13   I3    S    
Cr12  O27   S    
C56   C138  S    
C53   C62   S    
C28   H38   S    
C131  O33   A    
C32   C41   S    
C5    H15   S    
C12   H45   S    
C89   C92   A    
C38   C47   S    
C120  H5    S    
Cr9   O20   S    
C77   C86   A    
C67   C96   A    
Cr1   O44   S    
Cr7   O50   S    
Cr4   O48   S    
Cr1   O12   S    
C24   C47   S    
C135  O12   A    
C18   C27   S    
C57   O2    A    
C10   C13   S    
C66   C91   A    
C42   C51   S    
C74   H29   S    
C142  H9    S    
Cr8   O18   S    
C2    C9    S    
C17   C125  S    
C7    H17   S    
C4    C59   S    
C19   C127  S    
C4    C30   S    
C114  C122  A    
C90   O5    A    
C131  O25   A    
C26   C142  S    
C83   H55   S    
C5    C31   S    
