data_mof_unit_27204.cif
_audit_creation_date              2012-12-11T16:44:12-0500
_audit_creation_method            fapswitch 2.2
_symmetry_space_group_name_H-M    P1
_symmetry_Int_Tables_number       1
_space_group_crystal_system       triclinic
_cell_length_a                    27.278722
_cell_length_b                    7.195595
_cell_length_c                    22.749567
_cell_angle_alpha                 90.634874
_cell_angle_beta                  101.560136
_cell_angle_gamma                 90.089928
_cell_volume                      4374.55290786

loop_
_atom_site_label
_atom_site_type_symbol
_atom_type_description
_atom_site_fract_x
_atom_site_fract_y
_atom_site_fract_z
_atom_type_partial_charge
O1    O     O_R   0.707300 0.594030 0.176840 -0.537107
O2    O     O_R   0.292700 0.405970 0.823160 -0.537108
O3    O     O_R   0.792700 0.094030 0.323160 -0.529703
O4    O     O_R   0.207300 0.905970 0.676840 -0.529703
O5    O     O_R   0.697330 0.262360 0.295660 -0.543689
O6    O     O_R   0.302670 0.737640 0.704340 -0.543689
O7    O     O_R   0.802670 0.762360 0.204340 -0.552977
O8    O     O_R   0.197330 0.237640 0.795660 -0.552977
C1    C     C_R   0.685129 0.433715 0.312379 0.700348
C2    C     C_R   0.314871 0.566285 0.687620 0.700348
C3    C     C_R   0.815700 0.932315 0.189056 0.703255
C4    C     C_R   0.184300 0.067684 0.810944 0.703255
O9    O     O_R   0.701410 0.264250 0.175600 -0.537636
O10   O     O_R   0.298590 0.735750 0.824400 -0.537636
O11   O     O_R   0.798590 0.764250 0.324400 -0.530528
O12   O     O_R   0.201410 0.235750 0.675600 -0.530529
O13   O     O_R   0.796800 0.094950 0.202240 -0.516603
O14   O     O_R   0.203200 0.905050 0.797760 -0.516603
O15   O     O_R   0.703200 0.594950 0.297760 -0.518369
O16   O     O_R   0.296800 0.405050 0.702240 -0.518369
C5    C     C_R   0.689833 0.430832 0.153053 0.674573
C6    C     C_R   0.310167 0.569168 0.846947 0.674573
C7    C     C_R   0.810188 0.933029 0.346691 0.704265
C8    C     C_R   0.189812 0.066971 0.653309 0.704265
O17   O     O_3   0.781290 0.427390 0.258880 -0.369334
O18   O     O_3   0.218710 0.572610 0.741120 -0.369334
O19   O     O_3   0.718710 0.927390 0.241120 -0.375765
O20   O     O_3   0.281290 0.072610 0.758880 -0.375765
V1    V     V_3+5 0.744190 0.152150 0.248350 1.419335
V2    V     V_3+5 0.255810 0.847850 0.751650 1.419335
V3    V     V_3+5 0.755810 0.652150 0.251650 1.408846
V4    V     V_3+5 0.244190 0.347850 0.748350 1.408847
C9    C     C_R   0.154892 0.062933 0.594603 -0.044810
C10   C     C_R   0.845108 0.937067 0.405397 -0.044812
C11   C     C_R   0.345523 0.575579 0.905687 -0.044444
C12   C     C_R   0.654477 0.424421 0.094313 -0.044445
C13   C     C_R   0.137415 0.151821 0.490456 -0.154689
C14   C     C_R   0.862585 0.848176 0.509544 -0.154692
C15   C     C_R   0.370978 0.747915 0.998883 -0.153316
C16   C     C_R   0.629021 0.252082 0.001118 -0.153316
C17   C     C_R   0.170436 0.138257 0.545250 -0.178586
C18   C     C_R   0.829564 0.861740 0.454749 -0.178583
C19   C     C_R   0.334467 0.696754 0.949595 -0.182322
C20   C     C_R   0.665533 0.303243 0.050405 -0.182321
C21   C     C_R   0.104792 0.007416 0.589247 -0.195574
C22   C     C_R   0.895208 0.992587 0.410753 -0.195574
C23   C     C_R   0.393468 0.495610 0.913994 -0.206695
C24   C     C_R   0.606532 0.504390 0.086006 -0.206696
C25   C     C_R   0.069109 0.029867 0.534425 0.063236
C26   C     C_R   0.930890 0.970136 0.465575 0.063238
C27   C     C_R   0.431605 0.543305 0.965007 0.043734
C28   C     C_R   0.568395 0.456695 0.034993 0.043734
C29   C     C_R   0.086890 0.097490 0.483898 0.071049
C30   C     C_R   0.913110 0.902512 0.516103 0.071045
C31   C     C_R   0.420029 0.679263 0.005949 0.097428
C32   C     C_R   0.579971 0.320735 0.994051 0.097429
C33   C     C_R   0.016646 0.989733 0.528365 -0.000395
C34   C     C_R   0.983353 0.010272 0.471635 -0.000394
C35   C     C_R   0.481224 0.467060 0.975346 0.006091
C36   C     C_R   0.518775 0.532940 0.024654 0.006091
C37   C     C_R   0.003568 0.066964 0.422294 -0.209517
C38   C     C_R   0.996431 0.933042 0.577706 -0.209514
C39   C     C_R   0.505962 0.676213 0.061336 -0.258103
C40   C     C_R   0.494038 0.323785 0.938665 -0.258101
C41   C     C_R   0.054182 0.113673 0.427756 0.274523
C42   C     C_R   0.945817 0.886331 0.572244 0.274526
C43   C     C_R   0.457721 0.748902 0.052556 0.259181
C44   C     C_R   0.542278 0.251095 0.947444 0.259181
H1    H     H_    0.904940 0.048190 0.370854 0.099429
H2    H     H_    0.095059 0.951815 0.629147 0.099428
H3    H     H_    0.599188 0.591485 0.122074 0.103387
H4    H     H_    0.400813 0.408518 0.877925 0.103386
H5    H     H_    0.791660 0.811262 0.450736 0.123494
H6    H     H_    0.208341 0.188732 0.549263 0.123494
H7    H     H_    0.702121 0.239391 0.056054 0.114186
H8    H     H_    0.297878 0.760605 0.943946 0.114185
H9    H     H_    0.151721 0.210264 0.453585 0.139138
H10   H     H_    0.848279 0.789731 0.546414 0.139135
H11   H     H_    0.360838 0.847097 0.030510 0.159217
H12   H     H_    0.639162 0.152898 0.969491 0.159217
H13   H     H_    0.980705 0.072109 0.378176 0.132819
H14   H     H_    0.019294 0.927899 0.621825 0.132818
H15   H     H_    0.533283 0.740257 0.096507 0.129834
H16   H     H_    0.466716 0.259740 0.903494 0.129835
C45   C     C_R   0.892400 0.083718 0.162434 0.274133
C46   C     C_R   0.107599 0.916282 0.837565 0.274132
C47   C     C_R   0.639375 0.617739 0.381898 0.290016
C48   C     C_R   0.360625 0.382261 0.618102 0.290017
C49   C     C_R   0.928479 0.091861 0.126038 -0.204457
C50   C     C_R   0.071520 0.908139 0.873961 -0.204457
C51   C     C_R   0.602393 0.625434 0.416927 -0.186028
C52   C     C_R   0.397607 0.374566 0.583073 -0.186028
H17   H     H_    0.956243 0.201833 0.134125 0.114750
H18   H     H_    0.043756 0.798167 0.865874 0.114750
H19   H     H_    0.596337 0.753894 0.439471 0.115946
H20   H     H_    0.403663 0.246106 0.560529 0.115946
C53   C     C_R   0.928021 0.964033 0.078726 0.053756
C54   C     C_R   0.071978 0.035966 0.921273 0.053756
C55   C     C_R   0.573306 0.469779 0.423739 0.048154
C56   C     C_R   0.426694 0.530221 0.576261 0.048154
C57   C     C_R   0.891474 0.822696 0.069758 -0.147543
C58   C     C_R   0.108525 0.177304 0.930242 -0.147543
C59   C     C_R   0.581288 0.303336 0.394352 -0.155236
C60   C     C_R   0.418712 0.696664 0.605648 -0.155235
H21   H     H_    0.890504 0.719631 0.034508 0.118673
H22   H     H_    0.109496 0.280368 0.965492 0.118673
H23   H     H_    0.559003 0.181095 0.398264 0.113146
H24   H     H_    0.440997 0.818905 0.601736 0.113146
C61   C     C_R   0.855895 0.811508 0.106372 -0.241249
C62   C     C_R   0.144105 0.188492 0.893627 -0.241248
C63   C     C_R   0.617263 0.293780 0.358327 -0.223091
C64   C     C_R   0.382737 0.706220 0.641672 -0.223092
H25   H     H_    0.828021 0.701937 0.097769 0.128014
H26   H     H_    0.171979 0.298062 0.902231 0.128014
H27   H     H_    0.621375 0.164414 0.335237 0.140308
H28   H     H_    0.378625 0.835586 0.664763 0.140308
C65   C     C_R   0.855363 0.942418 0.152567 -0.076532
C66   C     C_R   0.144637 0.057582 0.847433 -0.076532
C67   C     C_R   0.646892 0.449165 0.351281 -0.105066
C68   C     C_R   0.353108 0.550835 0.648719 -0.105066
C69   C     C_R   0.950673 0.946468 0.976358 -0.151109
C70   C     C_R   0.049327 0.053532 0.023641 -0.151108
C71   C     C_R   0.528995 0.339306 0.501071 -0.153095
C72   C     C_R   0.471005 0.660694 0.498929 -0.153096
H29   H     H_    0.912451 0.908223 0.956731 0.109291
H30   H     H_    0.087549 0.091776 0.043268 0.109291
H31   H     H_    0.551694 0.215223 0.503447 0.107851
H32   H     H_    0.448306 0.784777 0.496553 0.107851
C73   C     C_R   0.985045 0.965753 0.938457 -0.154703
C74   C     C_R   0.014955 0.034246 0.061543 -0.154703
C75   C     C_R   0.494488 0.355921 0.538746 -0.158381
C76   C     C_R   0.505512 0.644079 0.461254 -0.158381
H33   H     H_    0.972271 0.941123 0.890809 0.107438
H34   H     H_    0.027729 0.058876 0.109190 0.107438
H35   H     H_    0.491317 0.243393 0.568993 0.106154
H36   H     H_    0.508683 0.756607 0.431007 0.106153
C77   C     C_R   0.034920 0.019495 0.961515 0.098150
C78   C     C_R   0.965080 0.980505 0.038485 0.098150
C79   C     C_R   0.464963 0.516639 0.538037 0.101554
C80   C     C_R   0.535037 0.483361 0.461963 0.101554
N1    N     N_2   0.073418 0.170905 0.376591 -0.523482
H37   H     H_    0.100616 0.085445 0.365584 0.251148
C81   C     C_3   0.040488 0.253983 0.325872 -0.559810
H38   H     H_    0.063286 0.325377 0.297568 0.200497
H39   H     H_    0.015867 0.358872 0.341344 0.209700
H40   H     H_    0.017684 0.144865 0.298067 0.179494
N2    N     N_2   0.926581 0.829097 0.623409 -0.523479
H41   H     H_    0.899380 0.914547 0.634413 0.251149
C82   C     C_3   0.959513 0.746039 0.674131 -0.559816
H42   H     H_    0.936715 0.674643 0.702437 0.200497
H43   H     H_    0.982313 0.855169 0.701934 0.179497
H44   H     H_    0.984137 0.641154 0.658663 0.209699
N3    N     N_2   0.448009 0.899789 0.089631 -0.534047
H45   H     H_    0.466977 0.890911 0.133558 0.256792
C83   C     C_3   0.453870 0.080797 0.064682 -0.542849
H46   H     H_    0.443216 0.190555 0.094392 0.201911
H47   H     H_    0.429352 0.093503 0.019599 0.211140
H48   H     H_    0.493468 0.103317 0.060961 0.202111
N4    N     N_2   0.551990 0.100205 0.910371 -0.534049
H49   H     H_    0.533022 0.109080 0.866443 0.256793
C84   C     C_3   0.546128 0.919199 0.935322 -0.542848
H50   H     H_    0.556781 0.809438 0.905613 0.201911
H51   H     H_    0.506530 0.896684 0.939043 0.202111
H52   H     H_    0.570646 0.906496 0.980405 0.211141
N5    N     N_2   0.895065 0.212933 0.210720 -0.534292
H53   H     H_    0.929443 0.212608 0.239561 0.234375
C85   C     C_3   0.879526 0.399190 0.192430 -0.454049
H54   H     H_    0.905773 0.461691 0.166561 0.167557
H55   H     H_    0.879450 0.487084 0.232827 0.196341
H56   H     H_    0.841121 0.397426 0.164492 0.203502
N6    N     N_2   0.104935 0.787068 0.789279 -0.534292
H57   H     H_    0.070556 0.787393 0.760439 0.234376
C86   C     C_3   0.120474 0.600811 0.807569 -0.454049
H58   H     H_    0.094226 0.538309 0.833438 0.167557
H59   H     H_    0.158879 0.602574 0.835508 0.203502
H60   H     H_    0.120550 0.512917 0.767172 0.196341
N7    N     N_2   0.667379 0.781168 0.375318 -0.499677
H61   H     H_    0.652392 0.856319 0.337720 0.255397
C87   C     C_3   0.685666 0.894637 0.428143 -0.567655
H62   H     H_    0.654889 0.977641 0.440412 0.189554
H63   H     H_    0.714293 0.993147 0.418415 0.198681
H64   H     H_    0.703057 0.806233 0.466386 0.199613
N8    N     N_2   0.332621 0.218832 0.624682 -0.499676
H65   H     H_    0.347608 0.143681 0.662281 0.255396
C88   C     C_3   0.314335 0.105362 0.571857 -0.567654
H66   H     H_    0.345112 0.022358 0.559589 0.189554
H67   H     H_    0.296943 0.193765 0.533614 0.199612
H68   H     H_    0.285707 0.006851 0.581586 0.198680

loop_
_geom_bond_atom_site_label_1
_geom_bond_atom_site_label_2
_ccdc_geom_bond_type
O17   V3    S    
C81   H40   S    
C55   C59   A    
N6    H57   S    
O1    C5    A    
N5    H53   S    
C47   C51   A    
C83   H47   S    
C9    C21   A    
C72   C79   A    
O3    C7    A    
N2    H41   S    
C10   C18   A    
C56   C60   A    
O15   V3    S    
C62   C66   A    
C84   H50   S    
C33   C34   A    
C61   C65   A    
C33   C38   A    
C85   H55   S    
C5    C12   S    
C86   H58   S    
O7    C3    A    
C6    C11   S    
N6    C86   S    
C35   C40   A    
C26   C30   A    
C36   C39   A    
C40   C44   A    
O2    V4    S    
O9    V1    S    
N2    C82   S    
C14   C18   A    
C75   H35   S    
C82   H43   S    
O4    C8    A    
C88   H67   S    
O19   V1    S    
C57   C61   A    
C81   H38   S    
C39   H15   S    
C60   H24   S    
O1    V3    S    
O13   V1    S    
C31   C43   A    
C72   C76   A    
C59   C63   A    
O3    V1    S    
C40   H16   S    
C22   H1    S    
C28   C36   A    
C17   H6    S    
C1    O15   A    
C15   C31   A    
C76   C80   A    
C48   C52   A    
C2    O16   A    
C16   C32   A    
O2    C6    A    
N4    C84   S    
C58   H22   S    
C10   C22   A    
C48   C68   A    
C44   N4    S    
C11   C19   A    
C62   H26   S    
C16   C20   A    
C37   H13   S    
C76   H36   S    
C72   H32   S    
C87   H64   S    
C13   C29   A    
C34   C37   A    
O11   C7    A    
C38   H14   S    
C11   C23   A    
C35   C36   A    
O12   C8    A    
C83   H48   S    
C49   H17   S    
C47   C67   A    
C74   H34   S    
O10   V2    S    
C84   H51   S    
C73   C77   A    
C50   H18   S    
C85   H56   S    
O5    V1    S    
C86   H59   S    
C52   H20   S    
C57   H21   S    
C39   C43   A    
O7    V3    S    
C38   C42   A    
C54   C77   S    
C46   N6    S    
O8    V4    S    
C2    C68   S    
C46   C50   A    
C82   H44   S    
C85   H54   S    
C60   C64   A    
C45   C49   A    
O18   V4    S    
C88   H68   S    
C15   C19   A    
C14   H10   S    
N7    C87   S    
C32   C44   A    
C13   H9    S    
C71   C80   A    
C49   C53   A    
C26   C34   A    
C69   C78   A    
C70   H30   S    
C20   H7    S    
N8    H65   S    
O5    C1    A    
C56   C79   S    
C47   N7    S    
N8    C88   S    
C41   N1    S    
C71   H31   S    
N4    H49   S    
C14   C30   A    
C21   C25   A    
O8    C4    A    
C7    C10   S    
C16   H12   S    
O9    C5    A    
C46   C66   A    
C45   C65   A    
C42   N2    S    
C4    C66   S    
C63   C67   A    
O6    V2    S    
C69   H29   S    
O14   V2    S    
C1    C67   S    
C73   H33   S    
C55   C80   S    
C12   C20   A    
N3    C83   S    
C24   H3    S    
C3    C65   S    
C53   C78   S    
C64   H28   S    
C84   H52   S    
C29   C41   A    
C52   C56   A    
C64   C68   A    
O16   V4    S    
C86   H60   S    
C19   H8    S    
C81   H39   S    
C3    O13   A    
C18   H5    S    
C71   C75   A    
C21   H2    S    
C70   C77   A    
C69   C73   A    
C48   N8    S    
O6    C2    A    
C25   C33   A    
C23   C27   A    
O11   V3    S    
C30   C42   A    
C61   H25   S    
O12   V4    S    
C22   C26   A    
C8    C9    S    
C43   N3    S    
C9    C17   A    
O10   C6    A    
N1    C81   S    
C45   N5    S    
C54   C58   A    
N1    H37   S    
C63   H27   S    
C88   H66   S    
C58   C62   A    
C25   C29   A    
O20   V2    S    
C70   C74   A    
C12   C24   A    
C27   C31   A    
C13   C17   A    
O4    V2    S    
C23   H4    S    
C75   C79   A    
C51   H19   S    
C87   H62   S    
C37   C41   A    
C24   C28   A    
C27   C35   A    
N5    C85   S    
N7    H61   S    
C4    O14   A    
C83   H46   S    
C59   H23   S    
C51   C55   A    
N3    H45   S    
C82   H42   S    
C50   C54   A    
C53   C57   A    
C28   C32   A    
C15   H11   S    
C87   H63   S    
C74   C78   A    
