data_mof_unit_6405.cif
_audit_creation_date              2012-12-11T14:42:14-0500
_audit_creation_method            fapswitch 2.2
_symmetry_space_group_name_H-M    P1
_symmetry_Int_Tables_number       1
_space_group_crystal_system       triclinic
_cell_length_a                    19.541852
_cell_length_b                    11.157016
_cell_length_c                    18.708848
_cell_angle_alpha                 90.047819
_cell_angle_beta                  89.473749
_cell_angle_gamma                 90.236101
_cell_volume                      4078.85886404

loop_
_atom_site_label
_atom_site_type_symbol
_atom_type_description
_atom_site_fract_x
_atom_site_fract_y
_atom_site_fract_z
_atom_type_partial_charge
C1    C     C_R   0.723474 0.964115 0.856929 0.592187
C2    C     C_R   0.236296 0.443600 0.933723 -0.066711
C3    C     C_3   0.896645 0.039413 0.404322 -0.062400
C4    C     C_3   0.615037 0.220541 0.063095 -0.129508
C5    C     C_3   0.385800 0.221565 0.936789 -0.131053
C6    C     C_3   0.115037 0.720542 0.063095 -0.129507
C7    C     C_3   0.885800 0.721566 0.936789 -0.131053
C8    C     C_3   0.578011 0.444783 0.942274 -0.023544
C9    C     C_3   0.422264 0.445343 0.057699 -0.025437
C10   C     C_3   0.078010 0.944784 0.942274 -0.023545
C11   C     C_3   0.922264 0.945343 0.057699 -0.025438
C12   C     C_3   0.626018 0.614353 0.087428 -0.017843
C13   C     C_R   0.263876 0.943890 0.066114 -0.066518
C14   C     C_3   0.374337 0.614995 0.912280 -0.020474
C15   C     C_3   0.126018 0.114353 0.087428 -0.017843
C16   C     C_3   0.874337 0.114995 0.912280 -0.020474
C17   C     C_3   0.882779 0.265458 0.070728 -0.032831
C18   C     C_3   0.116270 0.265403 0.928691 -0.033413
C19   C     C_3   0.382778 0.765458 0.070727 -0.032831
C20   C     C_3   0.616270 0.765403 0.928691 -0.033413
C21   C     C_3   0.873872 0.477165 0.840662 -0.078352
C22   C     C_3   0.125691 0.474477 0.158810 -0.078898
C23   C     C_3   0.373872 0.977164 0.840661 -0.078349
C24   C     C_R   0.736296 0.943600 0.933723 -0.066711
C25   C     C_3   0.625691 0.974476 0.158810 -0.078896
C26   C     C_3   0.884635 0.492420 0.643367 -0.128038
C27   C     C_3   0.110510 0.483067 0.351647 -0.111684
C28   C     C_3   0.384635 0.992419 0.643367 -0.128037
C29   C     C_3   0.610510 0.983067 0.351647 -0.111683
C30   C     C_R   0.819446 0.414821 0.020488 0.200411
C31   C     C_R   0.180645 0.414190 0.979238 0.200978
C32   C     C_R   0.319446 0.914821 0.020488 0.200411
C33   C     C_R   0.680645 0.914190 0.979238 0.200978
C34   C     C_R   0.814212 0.424966 0.946800 0.203183
C35   C     C_R   0.185912 0.424019 0.052884 0.202860
C36   C     C_R   0.314212 0.924966 0.946800 0.203183
C37   C     C_R   0.276633 0.964343 0.143011 0.589229
C38   C     C_R   0.685912 0.924019 0.052884 0.202859
C39   C     C_R   0.748905 0.431219 0.918114 -0.050844
C40   C     C_R   0.251255 0.430821 0.081732 -0.052249
C41   C     C_R   0.248905 0.931219 0.918114 -0.050844
C42   C     C_R   0.751255 0.930822 0.081732 -0.052250
C43   C     C_R   0.489355 0.273589 0.537775 0.197665
C44   C     C_R   0.503249 0.276459 0.464736 0.220831
C45   C     C_R   0.989355 0.773589 0.537775 0.197665
C46   C     C_R   0.003249 0.776459 0.464736 0.220832
C47   C     C_R   0.496447 0.169238 0.426700 0.007638
C48   C     C_R   0.223474 0.464115 0.856929 0.592187
C49   C     C_R   0.501448 0.167187 0.574292 0.008933
C50   C     C_R   0.996447 0.669238 0.426700 0.007637
C51   C     C_R   0.001448 0.667187 0.574292 0.008933
C52   C     C_R   0.496205 0.059686 0.463232 -0.127297
C53   C     C_R   0.503563 0.058927 0.536669 -0.122037
C54   C     C_R   0.996205 0.559685 0.463232 -0.127297
C55   C     C_R   0.003563 0.558927 0.536669 -0.122036
C56   C     C_R   0.819256 0.421023 0.551256 0.304260
C57   C     C_R   0.176318 0.424610 0.445535 0.244464
C58   C     C_R   0.319256 0.921023 0.551256 0.304260
C59   C     C_R   0.776633 0.464343 0.143010 0.589229
C60   C     C_R   0.676318 0.924610 0.445534 0.244464
C61   C     C_R   0.822553 0.409407 0.477411 0.229242
C62   C     C_R   0.170980 0.424991 0.519523 0.180340
C63   C     C_R   0.322553 0.909407 0.477411 0.229242
C64   C     C_R   0.670980 0.924991 0.519523 0.180340
C65   C     C_R   0.530064 0.177181 0.850758 0.546304
C66   C     C_R   0.470034 0.177311 0.149301 0.546607
C67   C     C_R   0.030064 0.677181 0.850758 0.546304
C68   C     C_R   0.970034 0.677312 0.149301 0.546607
C69   C     C_R   0.765306 0.441677 0.434320 -0.042792
C70   C     C_R   0.701201 0.479164 0.035733 0.180776
C71   C     C_R   0.221640 0.483700 0.560826 -0.057430
C72   C     C_R   0.265306 0.941677 0.434320 -0.042793
C73   C     C_R   0.721640 0.983700 0.560826 -0.057430
C74   C     C_R   0.705414 0.483843 0.468843 0.211654
C75   C     C_R   0.275965 0.543056 0.523558 0.207708
C76   C     C_R   0.205414 0.983843 0.468843 0.211655
C77   C     C_R   0.775965 0.043056 0.523558 0.207708
C78   C     C_R   0.702095 0.487147 0.544262 0.197854
C79   C     C_R   0.287636 0.516917 0.450243 0.217732
C80   C     C_R   0.202095 0.987147 0.544262 0.197854
C81   C     C_R   0.299099 0.479122 0.964153 0.180414
C82   C     C_R   0.787636 0.016917 0.450243 0.217731
C83   C     C_R   0.755311 0.435851 0.583480 -0.027767
C84   C     C_R   0.241119 0.441165 0.414651 -0.049068
C85   C     C_R   0.255311 0.935851 0.583480 -0.027767
C86   C     C_R   0.741119 0.941165 0.414651 -0.049067
C87   C     C_R   0.737412 0.365255 0.851652 0.547863
C88   C     C_R   0.262638 0.365292 0.148289 0.550216
C89   C     C_R   0.237411 0.865255 0.851652 0.547862
C90   C     C_R   0.762638 0.865292 0.148289 0.550216
C91   C     C_R   0.711028 0.998795 0.639422 0.598423
C92   C     C_R   0.201201 0.979164 0.035733 0.180776
C93   C     C_R   0.275793 0.963255 0.356394 0.588233
C94   C     C_R   0.211028 0.498795 0.639422 0.598423
C95   C     C_R   0.775793 0.463256 0.356394 0.588233
C96   C     C_R   0.530001 0.175956 0.645267 0.548369
C97   C     C_R   0.469689 0.176491 0.354960 0.548492
C98   C     C_R   0.030002 0.675956 0.645267 0.548370
C99   C     C_R   0.969689 0.676491 0.354960 0.548492
C100  C     C_R   0.740046 0.366267 0.648538 0.565218
C101  C     C_R   0.259508 0.367411 0.351293 0.534904
C102  C     C_R   0.240046 0.866267 0.648538 0.565218
C103  C     C_R   0.799099 0.979122 0.964153 0.180414
C104  C     C_R   0.759508 0.867411 0.351293 0.534905
C105  C     C_2   0.495113 0.164495 0.920729 0.273713
C106  C     C_2   0.505203 0.164647 0.079457 0.274614
C107  C     C_2   0.995113 0.664496 0.920729 0.273714
C108  C     C_2   0.005203 0.664647 0.079457 0.274614
C109  C     C_2   0.497285 0.062823 0.040429 0.277886
C110  C     C_2   0.502706 0.062775 0.959681 0.279095
C111  C     C_2   0.997285 0.562823 0.040429 0.277886
C112  C     C_2   0.002706 0.562775 0.959681 0.279096
C113  C     C_R   0.693366 0.470605 0.960621 0.182706
C114  C     C_R   0.763876 0.443890 0.066114 -0.066517
C115  C     C_R   0.306938 0.470420 0.039274 0.182365
C116  C     C_R   0.193366 0.970605 0.960621 0.182707
C117  C     C_R   0.806938 0.970420 0.039274 0.182366
C118  C     C_3   0.633670 0.631252 0.428584 0.011301
C119  C     C_3   0.371087 0.608226 0.583520 -0.019706
C120  C     C_3   0.133670 0.131252 0.428583 0.011302
C121  C     C_3   0.871087 0.108227 0.583520 -0.019706
C122  C     C_3   0.593273 0.513397 0.590100 -0.029056
C123  C     C_3   0.396645 0.539412 0.404322 -0.062400
C124  C     C_3   0.093273 0.013397 0.590099 -0.029056
Cr1   Cr    Cr6+3 0.769270 0.163730 0.750710 1.004842
Cr2   Cr    Cr6+3 0.385840 0.322500 0.252290 1.029975
Cr3   Cr    Cr6+3 0.114160 0.822500 0.747710 1.019032
Cr4   Cr    Cr6+3 0.885840 0.822500 0.252290 1.029975
Cr5   Cr    Cr6+3 0.230730 0.163730 0.249290 1.011700
Cr6   Cr    Cr6+3 0.269270 0.663730 0.750710 1.004842
Cr7   Cr    Cr6+3 0.730730 0.663730 0.249290 1.011700
Cr8   Cr    Cr6+3 0.612620 0.009790 0.748780 1.045777
Cr9   Cr    Cr6+3 0.387380 0.009790 0.251220 1.043297
Cr10  Cr    Cr6+3 0.112620 0.509790 0.748780 1.045777
Cr11  Cr    Cr6+3 0.887380 0.509790 0.251220 1.043297
Cr12  Cr    Cr6+3 0.614160 0.322500 0.747710 1.019032
H1    H     H_    0.491768 0.975584 0.435077 0.231965
H2    H     H_    0.132329 0.297314 0.573365 0.362889
H3    H     H_    0.029259 0.945506 0.464017 0.324642
H4    H     H_    0.845117 0.487414 0.685866 0.101397
H5    H     H_    0.882194 0.583130 0.619033 0.116607
H6    H     H_    0.934381 0.481259 0.670278 0.138589
H7    H     H_    0.151456 0.481363 0.310578 0.112316
H8    H     H_    0.109604 0.574891 0.374588 0.124392
H9    H     H_    0.061613 0.465312 0.324041 0.136412
H10   H     H_    0.345117 0.987413 0.685866 0.101398
H11   H     H_    0.382194 0.083129 0.619034 0.116606
H12   H     H_    0.434381 0.981258 0.670278 0.138589
H13   H     H_    0.371431 0.798621 0.418463 0.379062
H14   H     H_    0.651456 0.981362 0.310577 0.112316
H15   H     H_    0.609604 0.074891 0.374587 0.124392
H16   H     H_    0.561613 0.965312 0.324041 0.136411
H17   H     H_    0.632329 0.797314 0.573365 0.362889
H18   H     H_    0.677743 0.687922 0.445104 0.151219
H19   H     H_    0.589037 0.650762 0.463263 0.145108
H20   H     H_    0.618563 0.656826 0.373738 0.186620
H21   H     H_    0.412547 0.619777 0.543743 0.115142
H22   H     H_    0.370366 0.516865 0.607162 0.132885
H23   H     H_    0.383705 0.669948 0.627846 0.189823
H24   H     H_    0.177743 0.187922 0.445104 0.151219
H25   H     H_    0.508736 0.974613 0.564195 0.236732
H26   H     H_    0.089037 0.150761 0.463263 0.145108
H27   H     H_    0.118563 0.156825 0.373738 0.186619
H28   H     H_    0.912547 0.119777 0.543742 0.115142
H29   H     H_    0.870366 0.016866 0.607163 0.132885
H30   H     H_    0.883705 0.169950 0.627845 0.189824
H31   H     H_    0.581254 0.514323 0.648148 0.177271
H32   H     H_    0.589698 0.419890 0.570273 0.185391
H33   H     H_    0.553592 0.569047 0.564672 0.100554
H34   H     H_    0.411220 0.534127 0.346964 0.177311
H35   H     H_    0.400768 0.448122 0.427617 0.147306
H36   H     H_    0.991768 0.475584 0.435077 0.231965
H37   H     H_    0.434544 0.600071 0.429222 0.113401
H38   H     H_    0.081254 0.014322 0.648148 0.177272
H39   H     H_    0.089698 0.919890 0.570272 0.185391
H40   H     H_    0.053591 0.069047 0.564672 0.100556
H41   H     H_    0.911219 0.034129 0.346964 0.177310
H42   H     H_    0.900768 0.948122 0.427616 0.147306
H43   H     H_    0.934544 0.100072 0.429221 0.113401
H44   H     H_    0.624579 0.129151 0.042611 0.123160
H45   H     H_    0.631210 0.230440 0.119579 0.144034
H46   H     H_    0.648782 0.275150 0.029451 0.136102
H47   H     H_    0.008736 0.474613 0.564195 0.236732
H48   H     H_    0.375360 0.130340 0.957156 0.123408
H49   H     H_    0.370146 0.231875 0.880196 0.143517
H50   H     H_    0.352287 0.276538 0.970191 0.137461
H51   H     H_    0.124579 0.629151 0.042612 0.123160
H52   H     H_    0.131210 0.730442 0.119578 0.144036
H53   H     H_    0.148782 0.775149 0.029451 0.136101
H54   H     H_    0.875360 0.630340 0.957155 0.123408
H55   H     H_    0.870146 0.731878 0.880196 0.143519
H56   H     H_    0.852288 0.776538 0.970191 0.137461
H57   H     H_    0.589278 0.348190 0.937751 0.188199
H58   H     H_    0.513520 0.890576 0.051331 0.365543
H59   H     H_    0.537568 0.468110 0.903589 0.164046
H60   H     H_    0.557089 0.465724 0.995465 0.174069
H61   H     H_    0.410890 0.348673 0.062485 0.187085
H62   H     H_    0.462811 0.469222 0.096300 0.163986
H63   H     H_    0.443084 0.466211 0.004412 0.174066
H64   H     H_    0.089278 0.848191 0.937751 0.188200
H65   H     H_    0.037568 0.968111 0.903589 0.164045
H66   H     H_    0.057089 0.965724 0.995465 0.174069
H67   H     H_    0.910890 0.848674 0.062485 0.187085
H68   H     H_    0.962811 0.969223 0.096299 0.163985
H69   H     H_    0.486069 0.890410 0.948588 0.365017
H70   H     H_    0.943083 0.966210 0.004412 0.174067
H71   H     H_    0.661508 0.678139 0.060222 0.148094
H72   H     H_    0.623644 0.636954 0.145059 0.183624
H73   H     H_    0.573126 0.626776 0.068257 0.085640
H74   H     H_    0.338725 0.678535 0.939143 0.149461
H75   H     H_    0.376895 0.637196 0.854610 0.180157
H76   H     H_    0.427152 0.628263 0.931687 0.085894
H77   H     H_    0.161508 0.178139 0.060222 0.148094
H78   H     H_    0.123644 0.136954 0.145059 0.183624
H79   H     H_    0.073126 0.126776 0.068257 0.085640
H80   H     H_    0.013520 0.390576 0.051331 0.365543
H81   H     H_    0.838725 0.178535 0.939143 0.149461
H82   H     H_    0.876895 0.137196 0.854610 0.180157
H83   H     H_    0.927152 0.128263 0.931687 0.085894
H84   H     H_    0.918719 0.214930 0.036592 0.121542
H85   H     H_    0.831368 0.221705 0.072800 0.130810
H86   H     H_    0.904866 0.261301 0.125060 0.181156
H87   H     H_    0.081051 0.214312 0.963558 0.120620
H88   H     H_    0.167573 0.222248 0.925105 0.133236
H89   H     H_    0.092997 0.261489 0.874886 0.179387
H90   H     H_    0.418719 0.714930 0.036592 0.121542
H91   H     H_    0.986069 0.390410 0.948588 0.365017
H92   H     H_    0.331368 0.721705 0.072800 0.130810
H93   H     H_    0.404865 0.761300 0.125060 0.181156
H94   H     H_    0.581051 0.714312 0.963558 0.120621
H95   H     H_    0.667573 0.722248 0.925105 0.133236
H96   H     H_    0.592997 0.761489 0.874885 0.179387
H97   H     H_    0.920471 0.531728 0.837146 0.147530
H98   H     H_    0.830370 0.539962 0.833834 0.063035
H99   H     H_    0.877625 0.415617 0.794431 0.152596
H100  H     H_    0.079971 0.530735 0.161596 0.147097
H101  H     H_    0.169934 0.535736 0.167186 0.065935
H102  H     H_    0.871431 0.298621 0.418463 0.379062
H103  H     H_    0.119921 0.411806 0.204188 0.153065
H104  H     H_    0.420470 0.031730 0.837147 0.147529
H105  H     H_    0.330369 0.039959 0.833833 0.063036
H106  H     H_    0.377627 0.915616 0.794431 0.152596
H107  H     H_    0.579971 0.030735 0.161595 0.147097
H108  H     H_    0.669935 0.035734 0.167187 0.065936
H109  H     H_    0.619919 0.911805 0.204188 0.153065
H110  H     H_    0.447496 0.428405 0.539280 0.284887
H111  H     H_    0.529260 0.445505 0.464016 0.324643
H112  H     H_    0.947494 0.928403 0.539280 0.284886
O1    O     O_R   0.784320 0.290430 0.830510 -0.537645
O2    O     O_R   0.456080 0.282180 0.333210 -0.464063
O3    O     O_R   0.043920 0.782180 0.666790 -0.481953
O4    O     O_R   0.956080 0.782180 0.333210 -0.464063
O5    O     O_R   0.679040 0.374160 0.674430 -0.511106
O6    O     O_R   0.320960 0.374160 0.325570 -0.503002
O7    O     O_R   0.179040 0.874160 0.674430 -0.511106
O8    O     O_R   0.820960 0.874160 0.325570 -0.503003
O9    O     O_3   0.665350 0.165340 0.749070 -0.304377
O10   O     O_3   0.334650 0.165340 0.250930 -0.293057
O11   O     O_3   0.165350 0.665340 0.749070 -0.304377
O12   O     O_R   0.215680 0.290430 0.169490 -0.535577
O13   O     O_3   0.834650 0.665340 0.250930 -0.293057
O14   O     O_R   0.762640 0.040960 0.825200 -0.485350
O15   O     O_R   0.237360 0.040960 0.174800 -0.483764
O16   O     O_R   0.262640 0.540960 0.825200 -0.485350
O17   O     O_R   0.737360 0.540960 0.174800 -0.483764
O18   O     O_R   0.667400 0.923970 0.829950 -0.479682
O19   O     O_R   0.332600 0.923970 0.170050 -0.481267
O20   O     O_R   0.167400 0.423970 0.829950 -0.479682
O21   O     O_R   0.832600 0.423970 0.170050 -0.481268
O22   O     O_R   0.553960 0.081340 0.821780 -0.464700
O23   O     O_R   0.284320 0.790430 0.830510 -0.537645
O24   O     O_R   0.446040 0.081340 0.178220 -0.465440
O25   O     O_R   0.053960 0.581340 0.821780 -0.464700
O26   O     O_R   0.946040 0.581340 0.178220 -0.465440
O27   O     O_R   0.543180 0.283240 0.826740 -0.524306
O28   O     O_R   0.456820 0.283240 0.173260 -0.523466
O29   O     O_R   0.043180 0.783240 0.826740 -0.524306
O30   O     O_R   0.956820 0.783240 0.173260 -0.523466
O31   O     O_R   0.678360 0.375140 0.822710 -0.471376
O32   O     O_R   0.321640 0.375140 0.177290 -0.470800
O33   O     O_R   0.178360 0.875140 0.822710 -0.471376
O34   O     O_R   0.715680 0.790430 0.169490 -0.535577
O35   O     O_R   0.821640 0.875140 0.177290 -0.470801
O36   O     O_R   0.785050 0.289380 0.670560 -0.479758
O37   O     O_R   0.214950 0.289380 0.329440 -0.523485
O38   O     O_R   0.285050 0.789380 0.670560 -0.479758
O39   O     O_R   0.714950 0.789380 0.329440 -0.523485
O40   O     O_R   0.763320 0.039990 0.676930 -0.494190
O41   O     O_R   0.236680 0.039990 0.323070 -0.470466
O42   O     O_R   0.263320 0.539990 0.676930 -0.494190
O43   O     O_R   0.736680 0.539990 0.323070 -0.470465
O44   O     O_R   0.668130 0.922920 0.670000 -0.491989
O45   O     O_R   0.554640 0.080370 0.673500 -0.533846
O46   O     O_R   0.331870 0.922920 0.330000 -0.502994
O47   O     O_R   0.168130 0.422920 0.670000 -0.491989
O48   O     O_R   0.831870 0.422920 0.330000 -0.502994
O49   O     O_3   0.494246 0.957523 0.079088 -0.654611
O50   O     O_3   0.505660 0.957453 0.920971 -0.653405
O51   O     O_3   0.994246 0.457523 0.079088 -0.654611
O52   O     O_3   0.005660 0.457454 0.920971 -0.653405
O53   O     O_3   0.883080 0.367239 0.449505 -0.662580
O54   O     O_3   0.114832 0.370234 0.549638 -0.680754
O55   O     O_3   0.383080 0.867238 0.449505 -0.662580
O56   O     O_R   0.445360 0.080370 0.326500 -0.528878
O57   O     O_3   0.614832 0.870234 0.549638 -0.680754
O58   O     O_3   0.647977 0.507706 0.428653 -0.551785
O59   O     O_3   0.307772 0.641414 0.554107 -0.517281
O60   O     O_3   0.147977 0.007706 0.428654 -0.551784
O61   O     O_3   0.807772 0.141414 0.554107 -0.517282
O62   O     O_3   0.658109 0.565558 0.579051 -0.603571
O63   O     O_3   0.330722 0.589542 0.410026 -0.566970
O64   O     O_3   0.158109 0.065558 0.579051 -0.603571
O65   O     O_3   0.830722 0.089543 0.410026 -0.566969
O66   O     O_3   0.546350 0.257063 0.055090 -0.605436
O67   O     O_R   0.054640 0.580370 0.673500 -0.533846
O68   O     O_3   0.454711 0.257116 0.945441 -0.608120
O69   O     O_3   0.046350 0.757063 0.055090 -0.605436
O70   O     O_3   0.954711 0.757116 0.945441 -0.608120
O71   O     O_3   0.636052 0.514073 0.926484 -0.613837
O72   O     O_3   0.364360 0.514178 0.073529 -0.613372
O73   O     O_3   0.136052 0.014073 0.926484 -0.613836
O74   O     O_3   0.864360 0.014178 0.073529 -0.613372
O75   O     O_3   0.644528 0.492876 0.080274 -0.563090
O76   O     O_3   0.355778 0.493321 0.919597 -0.566146
O77   O     O_3   0.144527 0.992876 0.080274 -0.563090
O78   O     O_R   0.945360 0.580370 0.326500 -0.528878
O79   O     O_3   0.855778 0.993321 0.919597 -0.566146
O80   O     O_3   0.882004 0.385510 0.047424 -0.514077
O81   O     O_3   0.117847 0.385372 0.952252 -0.513125
O82   O     O_3   0.382004 0.885510 0.047424 -0.514077
O83   O     O_3   0.617846 0.885372 0.952252 -0.513125
O84   O     O_3   0.872924 0.408565 0.904930 -0.548421
O85   O     O_3   0.127020 0.406584 0.094329 -0.549980
O86   O     O_3   0.372924 0.908564 0.904931 -0.548421
O87   O     O_3   0.627020 0.906584 0.094329 -0.549980
O88   O     O_3   0.465944 0.372150 0.574601 -0.745949
O89   O     O_R   0.543920 0.282180 0.666790 -0.481953
O90   O     O_3   0.520702 0.380946 0.429197 -0.677759
O91   O     O_3   0.965944 0.872150 0.574600 -0.745948
O92   O     O_3   0.020702 0.880946 0.429197 -0.677756
O93   O     O_3   0.877656 0.401081 0.591198 -0.523659
O94   O     O_3   0.119575 0.394932 0.405146 -0.554381
O95   O     O_3   0.377656 0.901081 0.591198 -0.523658
O96   O     O_3   0.619575 0.894932 0.405146 -0.554381

loop_
_geom_bond_atom_site_label_1
_geom_bond_atom_site_label_2
_ccdc_geom_bond_type
C105  C110  D    
H3    O92   S    
C90   O34   A    
C107  C112  D    
C94   O42   A    
C39   C87   S    
Cr5   O12   S    
C124  H39   S    
C121  H30   S    
C19   H90   S    
C15   H78   S    
Cr8   O22   S    
C98   O3    A    
C25   H108  S    
C68   O30   A    
C6    H52   S    
C61   O53   S    
C59   O21   A    
C16   H83   S    
C102  O7    A    
Cr4   O30   S    
C120  H27   S    
C66   O28   A    
C19   O82   S    
Cr1   O14   S    
C30   O80   S    
C11   H70   S    
C23   O86   S    
C103  O79   S    
C103  C117  A    
C5    H50   S    
C115  O72   S    
Cr2   O10   S    
Cr12  O31   S    
C15   H79   S    
C60   C86   A    
C94   O47   A    
H110  O88   S    
C43   C44   A    
C8    H60   S    
C21   H98   S    
Cr1   O36   S    
C27   H9    S    
C58   O95   S    
C100  O36   A    
C52   H1    S    
C101  O37   A    
C69   C74   A    
C112  O52   S    
Cr4   O13   S    
C18   H87   S    
C92   C116  A    
Cr8   O9    S    
Cr9   O10   S    
C83   C100  S    
Cr9   O56   S    
C7    H56   S    
C38   O87   S    
Cr12  O89   S    
C56   C83   A    
C22   H103  S    
H102  O53   S    
Cr2   O28   S    
C28   H11   S    
C122  H31   S    
H69   O50   S    
C69   C95   S    
C42   C117  A    
C47   C52   A    
Cr7   O17   S    
C14   H76   S    
C33   C38   A    
C108  C111  D    
Cr7   O43   S    
C60   C64   A    
C95   O48   A    
C40   C88   S    
Cr1   O1    S    
C35   C40   A    
C23   H104  S    
C77   C82   A    
C49   C53   A    
C110  O50   S    
Cr5   O37   S    
C51   C55   A    
C11   H68   S    
C17   H85   S    
C119  H23   S    
C120  H24   S    
C73   C77   A    
C2    C81   A    
H91   O52   S    
C75   C79   A    
C70   O75   S    
C76   O60   S    
C41   C89   S    
C13   C32   A    
C111  C112  S    
C15   H77   S    
C86   C104  S    
C45   O91   S    
C119  O59   S    
C14   H75   S    
Cr3   O7    S    
C32   C36   A    
C79   O63   S    
C12   H73   S    
C80   O64   S    
C79   C84   A    
C124  H38   S    
Cr11  O21   S    
C8    H59   S    
C10   O73   S    
C96   O45   A    
C25   O87   S    
C22   O85   S    
C39   C113  A    
C64   C73   A    
C7    H54   S    
C118  H20   S    
C95   O43   A    
C4    H45   S    
C23   H105  S    
C5    H48   S    
C5    O68   S    
C120  H26   S    
C22   H101  S    
H80   O51   S    
C36   O86   S    
C81   C115  A    
C56   O93   S    
C116  O73   S    
C105  O68   S    
C65   C105  S    
C9    H61   S    
Cr9   O19   S    
C70   C113  A    
C108  O69   S    
C30   C34   A    
C8    O71   S    
C34   C39   A    
C12   H71   S    
C54   H36   S    
Cr12  O5    S    
C118  H19   S    
C17   O80   S    
C14   O76   S    
C117  O74   S    
C42   C90   S    
C18   H89   S    
C29   H15   S    
C9    O72   S    
H58   O49   S    
C27   H7    S    
C119  H21   S    
Cr2   O6    S    
Cr9   O46   S    
C65   O22   A    
Cr3   O11   S    
C31   O81   S    
Cr12  O27   S    
C52   C53   A    
C6    O69   S    
C87   O1    A    
C54   C55   A    
C90   O35   A    
C76   C80   A    
C124  H40   S    
C121  H29   S    
C28   H10   S    
C47   C97   S    
C24   C103  A    
C102  O38   A    
H112  O91   S    
C19   H93   S    
Cr6   O23   S    
C16   O79   S    
C51   C98   S    
C6    H53   S    
Cr4   O8    S    
C62   C71   A    
C118  H18   S    
C15   O77   S    
C12   O75   S    
C123  H34   S    
C1    O14   A    
C1    C24   S    
C121  O61   S    
Cr12  O9    S    
Cr10  O25   S    
C123  O63   S    
Cr10  O67   S    
Cr6   O16   S    
C85   C102  S    
C9    H63   S    
Cr7   O13   S    
C106  C109  D    
C27   O94   S    
C65   O27   A    
C77   O61   S    
C5    H49   S    
C36   C41   A    
C45   C46   A    
C57   O94   S    
C50   C54   A    
C45   C51   A    
C3    O65   S    
C3    H42   S    
C26   H4    S    
C40   C115  A    
C82   O65   S    
Cr8   O45   S    
C78   C83   A    
C21   H97   S    
C1    O18   A    
Cr10  O11   S    
C78   O62   S    
C98   O67   A    
C67   O29   A    
C26   H5    S    
C18   H88   S    
C74   O58   S    
Cr6   O38   S    
Cr11  O78   S    
C7    H55   S    
C91   O40   A    
C4    H44   S    
C123  H37   S    
C25   H107  S    
Cr10  O20   S    
C91   O44   A    
C28   H12   S    
C122  H32   S    
C62   O54   S    
C20   H94   S    
Cr9   O24   S    
C2    C48   S    
C82   C86   A    
C6    H51   S    
Cr11  O48   S    
H2    O54   S    
C80   C85   A    
C75   O59   S    
C122  H33   S    
C27   H8    S    
C60   O96   S    
C57   C84   A    
C97   O56   A    
C87   O31   A    
Cr3   O29   S    
C64   O57   S    
C88   O32   A    
C21   O84   S    
C17   H84   S    
C72   C93   S    
C107  O70   S    
C111  O51   S    
C13   C92   A    
C113  O71   S    
C31   C35   A    
C100  O5    A    
C30   C114  A    
C29   O96   S    
C33   O83   S    
C99   O4    A    
C10   H64   S    
C97   O2    A    
C89   O33   A    
C24   C33   A    
C93   O41   A    
Cr2   O2    S    
C101  O6    A    
C109  C110  S    
C21   H99   S    
C59   C114  S    
C124  O64   S    
C10   H65   S    
C88   O12   A    
Cr8   O18   S    
C68   O26   A    
C63   C72   A    
C74   C78   A    
C55   H47   S    
C56   C61   A    
C96   O89   A    
C4    H46   S    
C43   O88   S    
Cr5   O15   S    
C123  H35   S    
C25   H109  S    
Cr7   O39   S    
C7    O70   S    
C63   O55   S    
C20   H96   S    
C72   C76   A    
C53   H25   S    
C28   O95   S    
Cr6   O11   S    
C57   C62   A    
C71   C94   S    
C70   C114  A    
C81   O76   S    
C50   C99   S    
Cr4   O4    S    
C46   O92   S    
C12   H72   S    
C38   C42   A    
C18   O81   S    
H17   O57   S    
C48   O20   A    
Cr1   O9    S    
C122  O62   S    
C37   O19   A    
C3    H43   S    
Cr10  O47   S    
H111  O90   S    
C17   H86   S    
C29   H14   S    
Cr8   O44   S    
C13   C37   S    
C44   C47   A    
Cr1   O40   S    
Cr5   O41   S    
C84   C101  S    
C66   C106  S    
C26   O93   S    
C14   H74   S    
C8    H57   S    
C73   C91   S    
Cr5   O10   S    
C4    O66   S    
C43   C49   A    
C11   H67   S    
H13   O55   S    
C121  H28   S    
Cr2   O32   S    
C48   O16   A    
C92   O77   S    
C34   O84   S    
C2    C31   A    
C67   O25   A    
C19   H92   S    
C37   O15   A    
C10   H66   S    
Cr6   O42   S    
C120  O60   S    
C16   H81   S    
C23   H106  S    
C16   H82   S    
C22   H100  S    
C99   O78   A    
C109  O49   S    
Cr11  O13   S    
C44   O90   S    
C32   O82   S    
C41   C116  A    
C58   C85   A    
C9    H62   S    
C106  O66   S    
C61   C69   A    
C58   C63   A    
C89   O23   A    
C46   C50   A    
C104  O8    A    
C11   O74   S    
Cr11  O26   S    
Cr3   O33   S    
C3    H41   S    
C29   H16   S    
C71   C75   A    
C67   C107  S    
C119  H22   S    
C118  O58   S    
C59   O17   A    
C93   O46   A    
Cr3   O3    S    
C49   C96   S    
C66   O24   A    
C104  O39   A    
C20   H95   S    
C68   C108  S    
Cr4   O35   S    
C26   H6    S    
C35   O85   S    
Cr7   O34   S    
C20   O83   S    
