data_mof_unit_23549.cif
_audit_creation_date              2012-12-10T20:48:20-0500
_audit_creation_method            fapswitch 2.2
_symmetry_space_group_name_H-M    P1
_symmetry_Int_Tables_number       1
_space_group_crystal_system       triclinic
_cell_length_a                    10.771922
_cell_length_b                    8.885944
_cell_length_c                    8.309292
_cell_angle_alpha                 89.927601
_cell_angle_beta                  88.938788
_cell_angle_gamma                 89.983435
_cell_volume                      795.217509391

loop_
_atom_site_label
_atom_site_type_symbol
_atom_type_description
_atom_site_fract_x
_atom_site_fract_y
_atom_site_fract_z
_atom_type_partial_charge
Br1   Br    Br    0.100534 0.557901 0.837745 -0.159332
Br2   Br    Br    0.159018 0.384407 0.149027 -0.221701
Br3   Br    Br    0.840921 0.382585 0.850649 -0.213951
Br4   Br    Br    0.898456 0.556205 0.161230 -0.146497
Br5   Br    Br    0.161995 0.235799 0.749792 -0.234318
Br6   Br    Br    0.117582 0.162394 0.379182 -0.294891
Br7   Br    Br    0.884301 0.161288 0.621768 -0.312220
Br8   Br    Br    0.839053 0.234096 0.251177 -0.260835
C1    C     C_R   0.499999 0.218907 0.500064 0.933526
C2    C     C_1   0.500169 0.934504 0.499903 -0.096654
C3    C     C_3   0.070774 0.648426 0.479064 0.674222
C4    C     C_3   0.926989 0.646651 0.520047 0.722753
C5    C     C_3   0.122065 0.479487 0.499722 -0.510962
C6    C     C_3   0.877698 0.477896 0.500062 -0.488728
C7    C     C_R   0.258587 0.486623 0.500448 0.927316
C8    C     C_R   0.741240 0.485639 0.499527 1.003865
C9    C     C_R   0.500220 0.781052 0.499929 0.896729
C10   C     C_1   0.500086 0.065477 0.500090 -0.059765
C11   C     C_3   0.070030 0.410680 0.665397 0.399209
C12   C     C_3   0.072908 0.375940 0.354856 0.359700
C13   C     C_3   0.927460 0.375137 0.645214 0.339317
C14   C     C_3   0.930059 0.409785 0.334553 0.378714
H1    H     H_    0.215359 0.768963 0.547937 0.322851
H2    H     H_    0.180541 0.714912 0.299129 0.361059
H3    H     H_    0.816311 0.726846 0.690866 0.374665
H4    H     H_    0.897508 0.850793 0.440503 0.417214
N1    N     N_1   0.500000 0.500030 0.073640 0.032531
N2    N     N_1   0.500000 0.500030 0.926360 0.032624
O1    O     O_R   0.500000 0.285340 0.636850 -0.599339
O2    O     O_3   0.090577 0.699226 0.319513 -0.661956
O3    O     O_3   0.904465 0.695400 0.679610 -0.648766
O4    O     O_3   0.864552 0.748596 0.418675 -0.696662
O5    O     O_R   0.500000 0.285340 0.363150 -0.599458
O6    O     O_R   0.314790 0.499970 0.636880 -0.571414
O7    O     O_R   0.314790 0.499970 0.363120 -0.607463
O8    O     O_R   0.685210 0.499970 0.636880 -0.604121
O9    O     O_R   0.685210 0.499970 0.363120 -0.555039
O10   O     O_R   0.500000 0.714650 0.636900 -0.613706
O11   O     O_R   0.500000 0.714650 0.363100 -0.605299
O12   O     O_3   0.127379 0.754482 0.581547 -0.632789
Zn1   Zn    Zn3+2 0.500000 0.499990 0.682780 1.107203
Zn2   Zn    Zn3+2 0.500000 0.499990 0.317220 1.112366

loop_
_geom_bond_atom_site_label_1
_geom_bond_atom_site_label_2
_ccdc_geom_bond_type
H3    O3    S    
Br8   C14   S    
C3    C4    S    
H4    O4    S    
Br5   C11   S    
Br6   C12   S    
C1    C10   S    
C7    O6    A    
C1    O1    A    
C8    O9    A    
C6    C14   S    
C4    O4    S    
C1    O5    A    
C3    C5    S    
N1    Zn2   S    
O8    Zn1   S    
O6    Zn1   S    
C2    C10   T    
O5    Zn2   S    
C6    C13   S    
C7    O7    A    
C11   C13   S    
C12   C14   S    
O11   Zn2   S    
C6    C8    S    
C9    O10   A    
C5    C7    S    
C4    O3    S    
C3    O12   S    
H2    O2    S    
Br1   C11   S    
Br3   C13   S    
C5    C11   S    
C2    C9    S    
Br2   C12   S    
H1    O12   S    
N2    Zn1   S    
N1    N2    T    
Br4   C14   S    
O10   Zn1   S    
C9    O11   A    
O9    Zn2   S    
O7    Zn2   S    
C5    C12   S    
O1    Zn1   S    
Br7   C13   S    
C8    O8    A    
C3    O2    S    
C4    C6    S    
