data_mof_unit_33301.cif
_audit_creation_date              2012-12-11T16:51:34-0500
_audit_creation_method            fapswitch 2.2
_symmetry_space_group_name_H-M    P1
_symmetry_Int_Tables_number       1
_space_group_crystal_system       triclinic
_cell_length_a                    24.358759
_cell_length_b                    17.208294
_cell_length_c                    15.544637
_cell_angle_alpha                 90.064179
_cell_angle_beta                  128.964551
_cell_angle_gamma                 90.017083
_cell_volume                      5066.32413873

loop_
_atom_site_label
_atom_site_type_symbol
_atom_type_description
_atom_site_fract_x
_atom_site_fract_y
_atom_site_fract_z
_atom_type_partial_charge
C1    C     C_R   0.836036 0.879842 0.210621 -0.126643
C2    C     C_R   0.185957 0.110133 0.497949 0.031723
C3    C     C_3   0.204959 0.410729 0.950592 -1.020917
C4    C     C_3   0.911560 0.072280 0.707243 -1.121329
C5    C     C_3   0.088433 0.071524 0.292876 -1.121560
C6    C     C_3   0.410266 0.639611 0.692459 -1.077279
C7    C     C_3   0.577960 0.647259 0.299698 -1.087116
C8    C     C_R   0.356802 0.685750 0.496574 0.030421
C9    C     C_R   0.643956 0.685518 0.503964 0.026396
C10   C     C_R   0.884819 0.184876 0.216630 0.151354
C11   C     C_R   0.110228 0.188035 0.772234 0.145580
C12   C     C_R   0.348840 0.621170 0.132367 0.135119
C13   C     C_R   0.640172 0.651541 0.842415 0.154604
C14   C     C_R   0.783831 0.832118 0.611948 0.142741
C15   C     C_R   0.218619 0.834323 0.389139 0.135453
C16   C     C_R   0.350689 0.213035 0.604281 0.105130
C17   C     C_R   0.152211 0.860779 0.762152 -0.126836
C18   C     C_R   0.649624 0.213179 0.395940 0.104582
C19   C     C_R   0.764564 0.858743 0.511471 0.041973
C20   C     C_R   0.235916 0.858204 0.489536 0.041128
C21   C     C_R   0.333411 0.238929 0.504724 0.066400
C22   C     C_R   0.666883 0.239140 0.495543 0.066351
C23   C     C_R   0.693033 0.855201 0.417757 -0.219531
C24   C     C_R   0.307009 0.853311 0.584951 -0.217686
C25   C     C_R   0.280405 0.200705 0.406450 -0.207188
C26   C     C_R   0.719760 0.200985 0.593702 -0.207196
C27   C     C_R   0.237611 0.146844 0.405354 -0.184783
C28   C     C_R   0.333926 0.389762 0.200003 -0.138722
C29   C     C_R   0.762382 0.146996 0.594634 -0.184771
C30   C     C_R   0.647632 0.806979 0.419825 -0.187976
C31   C     C_R   0.352952 0.805603 0.583566 -0.178168
C32   C     C_R   0.246363 0.131250 0.502313 0.044654
C33   C     C_R   0.753674 0.131334 0.497671 0.044551
C34   C     C_R   0.675268 0.761043 0.514004 0.022727
C35   C     C_R   0.326347 0.761521 0.488241 0.021878
C36   C     C_R   0.307517 0.158756 0.603371 0.069027
C37   C     C_R   0.692670 0.158872 0.396697 0.068819
C38   C     C_R   0.739197 0.785447 0.615023 0.130018
C39   C     C_R   0.668139 0.397451 0.804488 -0.138252
C40   C     C_R   0.264011 0.788040 0.387383 0.132662
C41   C     C_3   0.801317 0.741956 0.713912 -0.179942
C42   C     C_3   0.203193 0.746845 0.284504 -0.177801
C43   C     C_3   0.370897 0.110213 0.688676 -0.140930
C44   C     C_3   0.629166 0.110411 0.310974 -0.141237
C45   C     C_R   0.111862 0.894038 0.405926 -0.132321
C46   C     C_R   0.887569 0.895605 0.593607 -0.137633
C47   C     C_R   0.588603 0.356868 0.406842 -0.128001
C48   C     C_R   0.412093 0.356685 0.593497 -0.127658
C49   C     C_3   0.848941 0.791271 0.705582 -0.560325
C50   C     C_R   0.883890 0.095264 0.593189 0.342015
C51   C     C_3   0.154090 0.795863 0.290085 -0.549377
C52   C     C_3   0.416818 0.170230 0.690989 -0.517013
C53   C     C_3   0.583376 0.170474 0.308862 -0.517703
C54   C     C_2   0.148199 0.750144 0.864366 -0.264035
C55   C     C_2   0.808890 0.815328 0.043874 -0.259754
C56   C     C_2   0.693263 0.363119 0.985815 -0.254857
C57   C     C_2   0.313884 0.334089 0.031691 -0.264636
C58   C     C_2   0.185690 0.695785 0.858576 0.291900
C59   C     C_2   0.741108 0.839085 0.967582 0.295672
C60   C     C_2   0.762735 0.352547 0.042883 0.314072
C61   C     C_R   0.116075 0.095168 0.406769 0.344113
C62   C     C_2   0.243418 0.336460 0.967035 0.310544
C63   C     C_2   0.860543 0.260561 0.162917 -0.239749
C64   C     C_2   0.137092 0.260668 0.831803 -0.241523
C65   C     C_2   0.300112 0.648143 0.016955 -0.228240
C66   C     C_2   0.676583 0.716457 0.919728 -0.280688
C67   C     C_2   0.790888 0.273858 0.087787 0.032997
C68   C     C_2   0.205195 0.262535 0.921325 0.037451
C69   C     C_2   0.229048 0.643099 0.953063 0.041097
C70   C     C_2   0.687455 0.782555 0.885537 0.048557
C71   C     C_R   0.187656 0.894908 0.589647 -0.131463
C72   C     C_R   0.404303 0.639841 0.590352 0.338403
C73   C     C_R   0.812144 0.895072 0.409989 -0.126181
C74   C     C_R   0.662883 0.356430 0.591720 -0.127827
C75   C     C_R   0.336896 0.356438 0.408600 -0.125903
C76   C     C_R   0.060068 0.860591 0.762792 -0.154794
C77   C     C_R   0.926030 0.881222 0.205326 -0.147260
C78   C     C_R   0.577035 0.399207 0.805061 -0.166213
C79   C     C_R   0.425645 0.391130 0.200119 -0.160534
C80   C     C_R   0.857163 0.854178 0.151523 0.151983
C81   C     C_R   0.119841 0.819647 0.795873 0.165967
C82   C     C_R   0.356098 0.370413 0.139677 0.160112
C83   C     C_R   0.594023 0.641169 0.409534 0.345808
C84   C     C_R   0.648301 0.385046 0.869454 0.151016
C85   C     C_R   0.180415 0.877475 0.495859 0.075305
C86   C     C_R   0.819227 0.878685 0.503784 0.073157
C87   C     C_R   0.639345 0.313246 0.498458 0.055157
C88   C     C_R   0.360944 0.313106 0.501902 0.054274
C89   C     C_R   0.810464 0.099341 0.410124 -0.231958
C90   C     C_R   0.189575 0.099322 0.589863 -0.230991
C91   C     C_R   0.338357 0.643322 0.406885 -0.223621
C92   C     C_R   0.663445 0.642149 0.593152 -0.220635
C93   C     C_R   0.943474 0.143385 0.247486 -0.166245
C94   C     C_R   0.814060 0.110201 0.502036 0.032996
C95   C     C_R   0.053989 0.145001 0.746860 -0.150946
C96   C     C_R   0.419756 0.602527 0.193296 -0.140309
C97   C     C_R   0.573354 0.621391 0.791797 -0.131423
C98   C     C_R   0.145097 0.144641 0.745547 -0.105908
C99   C     C_R   0.852236 0.142456 0.248475 -0.099771
C100  C     C_R   0.663878 0.618451 0.791525 -0.121297
C101  C     C_R   0.331850 0.605146 0.199249 -0.126961
C102  C     C_3   0.187843 0.688276 0.763884 -0.982597
C103  C     C_3   0.717472 0.921491 0.962066 -0.994964
C104  C     C_3   0.808725 0.415568 0.049837 -1.020621
H1    H     H_    0.783795 0.875767 0.186914 0.111377
H2    H     H_    0.199029 0.683481 0.293813 0.143542
H3    H     H_    0.371949 0.052370 0.657480 0.152027
H4    H     H_    0.627871 0.052558 0.341760 0.151498
H5    H     H_    0.884792 0.830124 0.777975 0.193638
H6    H     H_    0.120864 0.836639 0.219423 0.195704
H7    H     H_    0.450906 0.203960 0.769398 0.185866
H8    H     H_    0.549467 0.204258 0.230649 0.185322
H9    H     H_    0.874880 0.757354 0.679045 0.190571
H10   H     H_    0.125109 0.761168 0.310489 0.188133
H11   H     H_    0.444650 0.147687 0.660534 0.188049
H12   H     H_    0.201575 0.848055 0.779050 0.113452
H13   H     H_    0.555392 0.147959 0.339051 0.187968
H14   H     H_    0.899510 0.305584 0.189748 0.141451
H15   H     H_    0.105153 0.312516 0.793293 0.140978
H16   H     H_    0.323409 0.682326 0.988448 0.131240
H17   H     H_    0.703279 0.706403 0.006855 0.133655
H18   H     H_    0.144505 0.748412 0.930418 0.105905
H19   H     H_    0.824959 0.758745 0.035624 0.111677
H20   H     H_    0.665529 0.329789 0.007168 0.101159
H21   H     H_    0.340469 0.287733 0.023407 0.102485
H22   H     H_    0.090443 0.899589 0.320870 0.109383
H23   H     H_    0.280606 0.388389 0.171998 0.111523
H24   H     H_    0.908421 0.902702 0.678188 0.110344
H25   H     H_    0.560165 0.341317 0.321211 0.100296
H26   H     H_    0.441721 0.341064 0.679435 0.102119
H27   H     H_    0.236441 0.899396 0.673437 0.084429
H28   H     H_    0.763451 0.898781 0.325987 0.084843
H29   H     H_    0.702998 0.340823 0.677339 0.093158
H30   H     H_    0.295983 0.340902 0.323248 0.091047
H31   H     H_    0.024131 0.845481 0.778725 0.101428
H32   H     H_    0.955380 0.878298 0.174649 0.100614
H33   H     H_    0.547102 0.404309 0.834575 0.095978
H34   H     H_    0.721112 0.399311 0.831298 0.113146
H35   H     H_    0.455667 0.392910 0.170566 0.094892
H36   H     H_    0.762825 0.095976 0.325397 0.112268
H37   H     H_    0.237230 0.096028 0.674570 0.112121
H38   H     H_    0.303145 0.660000 0.322190 0.118757
H39   H     H_    0.701362 0.657355 0.677531 0.122523
H40   H     H_    0.981704 0.162081 0.238183 0.130418
H41   H     H_    0.016074 0.163283 0.757004 0.130061
H42   H     H_    0.445412 0.594832 0.157317 0.114933
H43   H     H_    0.545268 0.626544 0.823659 0.119481
H44   H     H_    0.191263 0.161261 0.754561 0.100213
H45   H     H_    0.195247 0.123772 0.325963 0.153256
H46   H     H_    0.807158 0.159073 0.242364 0.102955
H47   H     H_    0.717648 0.619531 0.821587 0.081762
H48   H     H_    0.280102 0.603032 0.176561 0.100569
H49   H     H_    0.674098 0.881543 0.340305 0.125527
H50   H     H_    0.325165 0.878189 0.662828 0.124667
H51   H     H_    0.268240 0.216245 0.328706 0.124179
H52   H     H_    0.731937 0.216635 0.671471 0.125324
H53   H     H_    0.862513 0.739606 0.882352 0.121428
H54   H     H_    0.776852 0.729037 0.818269 0.090173
H55   H     H_    0.156662 0.733261 0.121073 0.106911
H56   H     H_    0.804574 0.123862 0.673934 0.153492
H57   H     H_    0.243389 0.752911 0.200665 0.104516
H58   H     H_    0.354886 0.059053 0.790086 0.091041
H59   H     H_    0.366663 0.156155 0.808010 0.116332
H60   H     H_    0.645090 0.059204 0.209370 0.091662
H61   H     H_    0.633841 0.156349 0.192193 0.115624
H62   H     H_    0.709869 0.212073 0.062229 0.079468
H63   H     H_    0.712175 0.209921 0.954985 0.111610
H64   H     H_    0.279087 0.178994 0.967684 0.084284
H65   H     H_    0.265249 0.196103 0.060608 0.106409
H66   H     H_    0.170186 0.627943 0.003068 0.074570
H67   H     H_    0.594407 0.798870 0.344251 0.148373
H68   H     H_    0.154380 0.563841 0.908484 0.123391
H69   H     H_    0.614349 0.846231 0.750093 0.115946
H70   H     H_    0.681204 0.813957 0.753971 0.109160
H71   H     H_    0.187406 0.625799 0.745505 0.248225
H72   H     H_    0.141051 0.715267 0.686980 0.256927
H73   H     H_    0.236864 0.715046 0.786614 0.235803
H74   H     H_    0.690260 0.945315 0.877872 0.239847
H75   H     H_    0.680275 0.921925 0.980592 0.240007
H76   H     H_    0.762196 0.961226 0.020204 0.259725
H77   H     H_    0.851113 0.431204 0.137788 0.246831
H78   H     H_    0.405715 0.796812 0.659691 0.141910
H79   H     H_    0.833135 0.394733 0.013178 0.239593
H80   H     H_    0.778234 0.469420 0.006718 0.255607
H81   H     H_    0.168962 0.426450 0.861617 0.243263
H82   H     H_    0.173950 0.403548 0.980113 0.240852
H83   H     H_    0.242656 0.459521 0.995519 0.271315
H84   H     H_    0.963292 0.042651 0.751927 0.261494
H85   H     H_    0.919262 0.124508 0.755699 0.251180
H86   H     H_    0.875366 0.029974 0.702554 0.254364
H87   H     H_    0.036799 0.041585 0.248459 0.261074
H88   H     H_    0.080549 0.123467 0.244014 0.250921
H89   H     H_    0.804062 0.678882 0.701073 0.144684
H90   H     H_    0.124728 0.029229 0.297867 0.254303
H91   H     H_    0.430269 0.582538 0.734780 0.250736
H92   H     H_    0.445601 0.686449 0.750293 0.241436
H93   H     H_    0.357264 0.648392 0.669173 0.266035
H94   H     H_    0.563984 0.589174 0.259904 0.251276
H95   H     H_    0.534248 0.688835 0.245605 0.247002
H96   H     H_    0.625486 0.667127 0.310970 0.264202
N1    N     N_R   0.888400 0.921830 0.294620 -0.045417
N2    N     N_R   0.874350 0.922400 0.443380 -0.037574
N3    N     N_R   0.625650 0.422400 0.556620 -0.040662
N4    N     N_R   0.374350 0.422400 0.443380 -0.040260
N5    N     N_R   0.054230 0.922730 0.705400 -0.042144
N6    N     N_R   0.945770 0.922730 0.294600 -0.042521
N7    N     N_R   0.554230 0.422730 0.705400 -0.038604
N8    N     N_R   0.445770 0.422730 0.294600 -0.038599
N9    N     N_R   0.873790 0.077030 0.443380 -0.051699
N10   N     N_R   0.126210 0.077030 0.556620 -0.051506
N11   N     N_R   0.373790 0.577030 0.443380 -0.052079
N12   N     N_R   0.111600 0.921830 0.705380 -0.046924
N13   N     N_R   0.626210 0.577030 0.556620 -0.053195
N14   N     N_R   0.945200 0.076700 0.294600 -0.042926
N15   N     N_R   0.054800 0.076700 0.705400 -0.044813
N16   N     N_R   0.445200 0.576700 0.294600 -0.039117
N17   N     N_R   0.554800 0.576700 0.705400 -0.043700
N18   N     N_R   0.111030 0.077600 0.705380 -0.046414
N19   N     N_R   0.888970 0.077600 0.294620 -0.047362
N20   N     N_R   0.611030 0.577600 0.705380 -0.040850
N21   N     N_R   0.388970 0.577600 0.294620 -0.043249
N22   N     N_R   0.919490 0.077280 0.556590 -0.054110
N23   N     N_R   0.388400 0.421830 0.294620 -0.042329
N24   N     N_R   0.080510 0.077280 0.443410 -0.053565
N25   N     N_R   0.419490 0.577280 0.556590 -0.057115
N26   N     N_R   0.580510 0.577280 0.443410 -0.057872
N27   N     N_3   0.812523 0.760201 0.815994 -0.195765
N28   N     N_3   0.196922 0.767333 0.187233 -0.195726
N29   N     N_3   0.384125 0.105571 0.794412 -0.199884
N30   N     N_3   0.616065 0.105826 0.205315 -0.199891
N31   N     N_3   0.742908 0.208491 0.041129 -0.209754
N32   N     N_3   0.240750 0.190511 0.976490 -0.204683
N33   N     N_3   0.194589 0.593568 0.980401 -0.220017
N34   N     N_R   0.611600 0.421830 0.705380 -0.043539
N35   N     N_3   0.646641 0.798382 0.769344 -0.198484
N36   N     N_R   0.079940 0.922160 0.443410 -0.036101
N37   N     N_R   0.920060 0.922160 0.556590 -0.035557
N38   N     N_R   0.579940 0.422160 0.443410 -0.041896
N39   N     N_R   0.420060 0.422160 0.556590 -0.041569
N40   N     N_R   0.125650 0.922400 0.556620 -0.038036
Ni1   Ni    Ni4+2 0.882160 0.999430 0.370180 0.201507
Ni2   Ni    Ni4+2 0.117840 0.999430 0.629820 0.201597
Ni3   Ni    Ni4+2 0.382160 0.499430 0.370180 0.205559
Ni4   Ni    Ni4+2 0.617840 0.499430 0.629820 0.203914
Ni5   Ni    Ni4+2 0.012460 0.999430 0.370180 0.207103
Ni6   Ni    Ni4+2 0.987540 0.999430 0.629820 0.207714
Ni7   Ni    Ni4+2 0.512460 0.499430 0.370180 0.209611
Ni8   Ni    Ni4+2 0.487540 0.499430 0.629820 0.209502

loop_
_geom_bond_atom_site_label_1
_geom_bond_atom_site_label_2
_ccdc_geom_bond_type
C49   H9    S    
C41   N27   S    
H62   N31   S    
C55   C59   D    
C25   H51   S    
C95   N15   A    
C26   H52   S    
C10   C63   S    
C95   H41   S    
N17   Ni8   S    
C17   N12   A    
C1    N1    A    
N7    Ni8   S    
N4    Ni3   S    
N2    N37   A    
C6    H92   S    
C75   H30   S    
N26   Ni7   S    
C66   C70   D    
H68   N33   S    
N17   N20   A    
C6    C72   S    
N20   Ni4   S    
C16   C21   A    
C64   H15   S    
C47   H25   S    
C11   C98   A    
C56   H20   S    
C46   H24   S    
C18   C37   A    
C39   C84   A    
N8    Ni7   S    
N14   N19   A    
N21   Ni3   S    
C53   H13   S    
C43   C52   S    
C3    C62   S    
C14   C49   S    
C14   C38   A    
C74   N3    A    
N7    N34   A    
C11   C95   A    
C79   N8    A    
N36   Ni5   S    
C74   H29   S    
C29   C33   A    
C7    H96   S    
N1    Ni1   S    
C43   N29   S    
C79   C82   A    
C2    C32   S    
C103  H76   S    
C46   N37   A    
C89   C94   A    
C2    C90   A    
C92   H39   S    
C69   N33   S    
C78   N7    A    
N3    N38   A    
C41   H89   S    
N13   N26   A    
C18   C53   S    
C71   C85   A    
C44   C53   S    
C20   C24   A    
C60   C67   S    
N23   Ni3   S    
C73   C86   A    
N38   Ni7   S    
N12   Ni2   S    
N1    N6    A    
C48   C88   A    
C26   C29   A    
C58   C102  S    
C77   H32   S    
C15   C51   S    
C74   C87   A    
C103  H75   S    
C28   H23   S    
C42   C51   S    
C91   H38   S    
C19   C86   S    
N25   Ni8   S    
C40   C42   S    
C104  H77   S    
C52   H7    S    
C21   C88   S    
C67   N31   S    
C27   H45   S    
C34   C38   A    
H70   N35   S    
C7    H95   S    
N9    N22   A    
C97   H43   S    
C48   H26   S    
N4    N39   A    
C3    H81   S    
C9    C92   A    
C41   C49   S    
C6    H91   S    
C99   H46   S    
C76   H31   S    
C24   H50   S    
C56   C84   S    
C29   H56   S    
C63   C67   D    
C13   C66   S    
C44   H4    S    
C100  H47   S    
C15   C20   A    
C15   C40   A    
H66   N33   S    
C55   H19   S    
C8    C72   A    
C51   H10   S    
N10   N24   A    
C30   C34   A    
C28   C82   A    
C90   H37   S    
C23   C30   A    
N11   Ni3   S    
C57   C62   D    
N6    Ni5   S    
C61   N24   A    
N10   Ni2   S    
C38   C41   S    
C91   N11   A    
C11   C64   S    
N15   N18   A    
N9    Ni1   S    
C90   N10   A    
C63   H14   S    
C14   C19   A    
C45   N36   A    
C89   N9    A    
N3    Ni4   S    
C10   C93   A    
C102  H71   S    
C22   C87   S    
N2    Ni1   S    
C33   C37   A    
N36   N40   A    
C4    C50   S    
N39   Ni8   S    
N16   Ni7   S    
C8    C35   S    
C47   C87   A    
C19   C23   A    
C79   H35   S    
C4    H86   S    
H64   N32   S    
C47   N38   A    
N24   Ni5   S    
C68   N32   S    
C45   H22   S    
C89   H36   S    
C20   C85   S    
N40   Ni2   S    
C66   H17   S    
C5    C61   S    
C92   N13   A    
C8    C91   A    
C43   H3    S    
H55   N28   S    
C32   C36   A    
C42   H2    S    
C5    H87   S    
C93   H40   S    
C9    C83   A    
C39   H34   S    
C53   H8    S    
C104  H80   S    
C99   N19   A    
N5    Ni6   S    
C51   H6    S    
C72   N25   A    
C23   H49   S    
C31   H78   S    
C22   C26   A    
C9    C34   S    
C97   N17   A    
C93   N14   A    
C44   N30   S    
C78   H33   S    
C64   C68   D    
C48   N39   A    
C76   N5    A    
C49   H5    S    
C54   C58   D    
C52   H11   S    
C101  N21   A    
C1    C80   A    
C21   C25   A    
C50   N22   A    
H60   N30   S    
C27   C32   A    
C18   C22   A    
N8    N23   A    
C4    H85   S    
N13   Ni4   S    
C50   C94   A    
C16   C52   S    
C5    H88   S    
H59   N29   S    
C73   N2    A    
C3    H83   S    
C76   C81   A    
C6    H93   S    
C75   N4    A    
C2    C61   A    
C58   C69   S    
H63   N31   S    
C96   N16   A    
C42   N28   S    
C25   C27   A    
C96   H42   S    
C12   C65   S    
C101  H48   S    
C3    H82   S    
N5    N12   A    
H65   N32   S    
C62   C68   S    
C45   C85   A    
C103  H74   S    
C59   C103  S    
C71   N40   A    
H57   N28   S    
C33   C94   S    
C98   N18   A    
C35   C40   A    
C24   C31   A    
C12   C101  A    
C77   N6    A    
C16   C36   A    
C57   H21   S    
C55   C80   S    
C77   C80   A    
C39   N34   A    
C4    H84   S    
C7    C83   S    
H61   N30   S    
C98   H44   S    
C13   C100  A    
C28   N23   A    
C65   C69   D    
C31   C35   A    
C65   H16   S    
N16   N21   A    
N37   Ni6   S    
N14   Ni5   S    
C17   C81   A    
C70   N35   S    
N18   Ni2   S    
C13   C97   A    
C10   C99   A    
C30   H67   S    
C73   H28   S    
H58   N29   S    
H53   N27   S    
C59   C70   S    
C71   H27   S    
C37   C44   S    
C78   C84   A    
C75   C88   A    
C54   H18   S    
C104  H79   S    
C56   C60   D    
C100  N20   A    
N15   Ni6   S    
N11   N25   A    
C1    H1    S    
N19   Ni1   S    
C102  H73   S    
C57   C82   S    
C12   C96   A    
C36   C43   S    
N22   Ni6   S    
C7    H94   S    
C60   C104  S    
C102  H72   S    
H54   N27   S    
C54   C81   S    
H69   N35   S    
C17   H12   S    
N34   Ni4   S    
C5    H90   S    
C46   C86   A    
C83   N26   A    
