data_mof_unit_58242.cif
_audit_creation_date              2012-12-10T17:47:12-0500
_audit_creation_method            fapswitch 2.2
_symmetry_space_group_name_H-M    P1
_symmetry_Int_Tables_number       1
_space_group_crystal_system       triclinic
_cell_length_a                    11.679603
_cell_length_b                    14.720282
_cell_length_c                    14.684291
_cell_angle_alpha                 65.074393
_cell_angle_beta                  103.651429
_cell_angle_gamma                 101.743427
_cell_volume                      2209.22721454

loop_
_atom_site_label
_atom_site_type_symbol
_atom_type_description
_atom_site_fract_x
_atom_site_fract_y
_atom_site_fract_z
_atom_type_partial_charge
C1    C     C_R   0.480310 0.119422 0.311770 0.823993
C2    C     C_R   0.520207 0.880531 0.688417 0.819851
C3    C     C_R   0.464962 0.323704 0.998731 0.134731
C4    C     C_R   0.544785 0.677669 0.003167 0.103254
C5    C     C_R   0.502354 0.466277 0.052524 0.096753
C6    C     C_R   0.493570 0.534780 0.948874 0.097228
C7    C     C_R   0.474134 0.495216 0.873127 -0.233548
C8    C     C_R   0.537319 0.505755 0.128892 -0.236801
C9    C     C_R   0.461378 0.392392 0.897703 -0.163951
C10   C     C_R   0.558611 0.608650 0.104662 -0.203790
C11   C     C_R   0.731751 0.294350 0.640621 0.143553
C12   C     C_R   0.319486 0.731876 0.313209 0.185016
C13   C     C_R   0.681524 0.207714 0.622759 0.047761
C14   C     C_R   0.343405 0.805181 0.353730 -0.004006
C15   C     C_R   0.513281 0.286300 0.515876 0.278149
C16   C     C_R   0.486146 0.713714 0.488863 0.316970
C17   C     C_R   0.564985 0.381096 0.520819 -0.058551
C18   C     C_R   0.474068 0.639222 0.446854 -0.129117
C19   C     C_R   0.675221 0.384447 0.587666 -0.001858
C20   C     C_R   0.384449 0.646756 0.359568 0.057480
C21   C     C_R   0.508182 0.471692 0.463555 0.097342
C22   C     C_R   0.545143 0.556617 0.489509 0.020835
C23   C     C_R   0.284402 0.000715 0.500013 0.816468
C24   C     C_R   0.715605 0.999262 0.500032 0.817207
C25   C     C_R   0.658635 0.560858 0.547601 -0.208974
C26   C     C_R   0.424661 0.484137 0.374204 -0.243732
C27   C     C_R   0.723502 0.478387 0.595702 0.174122
C28   C     C_R   0.365025 0.569774 0.321625 0.168679
C29   C     C_1   0.162998 0.001620 0.500343 -0.165594
C30   C     C_1   0.837024 0.998367 0.499747 -0.166982
C31   C     C_1   0.060190 0.000821 0.500222 0.019784
C32   C     C_1   0.939844 0.999180 0.499895 0.019437
C33   C     C_R   0.470743 0.186363 0.202539 -0.074173
C34   C     C_R   0.530521 0.813851 0.798152 -0.115595
C35   C     C_R   0.452796 0.219008 0.022760 0.108521
C36   C     C_R   0.567621 0.783028 0.979066 0.144159
C37   C     C_R   0.457948 0.150049 0.125262 0.109304
C38   C     C_R   0.575058 0.850033 0.876768 0.137652
C39   C     C_R   0.478001 0.289876 0.176695 -0.305243
C40   C     C_R   0.494031 0.711109 0.823474 -0.288830
C41   C     C_R   0.481991 0.360342 0.076702 0.045023
C42   C     C_R   0.510678 0.640760 0.924496 0.054161
Cu1   Cu    Cu3+1 0.469550 0.918260 0.475690 0.973190
Cu2   Cu    Cu3+1 0.530450 0.081740 0.524310 0.945614
H1    H     H_    0.448980 0.367205 0.836168 0.188145
H2    H     H_    0.589471 0.633170 0.167134 0.175089
H3    H     H_    0.703547 0.631155 0.550711 0.165767
H4    H     H_    0.410362 0.430983 0.338557 0.155737
H5    H     H_    0.452768 0.687299 0.762264 0.186769
H6    H     H_    0.478410 0.313954 0.236505 0.161201
H7    H     H_    0.473153 0.541619 0.793615 0.146827
H8    H     H_    0.555127 0.459219 0.208999 0.148864
H9    H     H_    0.297756 0.871894 0.315984 0.178533
H10   H     H_    0.727533 0.141224 0.659007 0.171370
N1    N     N_R   0.576230 0.204580 0.560790 -0.215369
N2    N     N_R   0.423770 0.795420 0.439210 -0.193544
O1    O     O_R   0.459870 0.022090 0.338120 -0.549892
O2    O     O_R   0.540130 0.977910 0.661880 -0.559875
O3    O     O_R   0.511290 0.160150 0.379180 -0.601872
O4    O     O_R   0.488710 0.839850 0.620820 -0.553873
O5    O     O_R   0.311490 0.930960 0.479480 -0.568325
O6    O     O_R   0.688510 0.069040 0.520520 -0.578832
O7    O     O_R   0.362910 0.069020 0.520540 -0.592571
O8    O     O_R   0.637090 0.930980 0.479460 -0.572272
N3    N     N_3   0.630313 0.952677 0.852364 -0.551229
H11   H     H_    0.699350 0.962302 0.813726 0.222903
H12   H     H_    0.674521 0.964753 0.917548 0.236234
N4    N     N_3   0.450683 0.043774 0.150843 -0.565012
H13   H     H_    0.520291 0.030249 0.126465 0.220374
H14   H     H_    0.370089 0.020267 0.113368 0.236762
N5    N     N_3   0.437067 0.183442 0.942771 -0.602624
H15   H     H_    0.357305 0.135807 0.943569 0.238792
H16   H     H_    0.507018 0.142622 0.956098 0.229765
N6    N     N_3   0.583132 0.821021 0.057861 -0.581514
H17   H     H_    0.557280 0.893463 0.025870 0.220214
H18   H     H_    0.518668 0.781016 0.103802 0.222677
N7    N     N_3   0.839206 0.496062 0.649600 -0.575383
H19   H     H_    0.841183 0.454932 0.727680 0.273707
H20   H     H_    0.902620 0.478309 0.621972 0.272495
N8    N     N_3   0.284577 0.576190 0.229537 -0.515905
H21   H     H_    0.331719 0.573213 0.178728 0.225077
H22   H     H_    0.220339 0.513261 0.246453 0.239711
N9    N     N_3   0.552225 0.700411 0.588150 -0.553816
H23   H     H_    0.548658 0.624533 0.637764 0.197290
H24   H     H_    0.638722 0.736221 0.583372 0.222507
N10   N     N_3   0.390275 0.273362 0.474432 -0.601515
H25   H     H_    0.344897 0.222294 0.532819 0.254623
H26   H     H_    0.380129 0.248108 0.416166 0.244717
Br1   Br    Br    0.875908 0.275549 0.739256 -0.560868
Br2   Br    Br    0.197905 0.759482 0.193858 -0.497349

loop_
_geom_bond_atom_site_label_1
_geom_bond_atom_site_label_2
_ccdc_geom_bond_type
C14   N2    A    
C21   C26   A    
C4    C36   A    
C9    H1    S    
C39   H6    S    
C1    C33   S    
C39   C41   A    
N7    H19   S    
C11   C19   A    
C33   C39   A    
N6    H18   S    
C34   C40   A    
C23   C29   S    
C12   Br2   S    
C35   C37   A    
C1    O3    A    
C5    C6    A    
C2    O4    A    
Cu2   O3    S    
C40   H5    S    
C37   N4    S    
C7    C9    A    
N9    H23   S    
Cu2   O2    S    
N4    H13   S    
N3    H12   S    
C22   C25   A    
C10   H2    S    
C19   C27   A    
C8    H8    S    
C18   C20   A    
C26   H4    S    
C2    C34   S    
C40   C42   A    
C35   N5    S    
C24   O8    A    
C34   C38   A    
C21   C22   A    
Cu1   O8    S    
C24   C30   S    
N7    H20   S    
Cu2   O7    S    
N6    H17   S    
N8    H22   S    
N5    H16   S    
N10   H25   S    
C20   C28   A    
Cu2   O6    S    
C16   N9    S    
C33   C37   A    
C15   N1    A    
Cu1   Cu2   S    
C16   N2    A    
C3    C9    A    
C1    O1    A    
C11   Br1   S    
C31   C32   S    
C38   N3    S    
C3    C35   A    
C12   C20   A    
C36   N6    S    
Cu1   O4    S    
C15   N10   S    
C16   C18   A    
N9    H24   S    
C12   C14   A    
C4    C10   A    
Cu1   O5    S    
C13   H10   S    
C15   C17   A    
C5    C41   A    
C25   H3    S    
C3    C41   A    
C24   O6    A    
C18   C22   A    
N8    H21   S    
C27   N7    S    
C5    C8    A    
C2    O2    A    
C6    C7    A    
C25   C27   A    
C26   C28   A    
C36   C38   A    
C7    H7    S    
N5    H15   S    
C29   C31   T    
C30   C32   T    
C11   C13   A    
Cu2   N1    S    
C4    C42   A    
C23   O7    A    
C17   C19   A    
N10   H26   S    
C28   N8    S    
C17   C21   A    
Cu1   O1    S    
Cu1   N2    S    
C23   O5    A    
C14   H9    S    
C8    C10   A    
N3    H11   S    
C6    C42   A    
N4    H14   S    
C13   N1    A    
