data_mof_unit_7747.cif
_audit_creation_date              2012-12-10T20:39:09-0500
_audit_creation_method            fapswitch 2.2
_symmetry_space_group_name_H-M    P1
_symmetry_Int_Tables_number       1
_space_group_crystal_system       triclinic
_cell_length_a                    19.170565
_cell_length_b                    10.674848
_cell_length_c                    9.871925
_cell_angle_alpha                 89.07597
_cell_angle_beta                  90.286342
_cell_angle_gamma                 90.352286
_cell_volume                      2019.89390083

loop_
_atom_site_label
_atom_site_type_symbol
_atom_type_description
_atom_site_fract_x
_atom_site_fract_y
_atom_site_fract_z
_atom_type_partial_charge
C1    C     C_R   0.498931 0.260480 0.500974 0.902280
C2    C     C_R   0.290024 0.508866 0.501536 -0.150887
C3    C     C_R   0.929431 0.513921 0.521841 0.283969
C4    C     C_R   0.069479 0.524638 0.528983 0.323392
C5    C     C_R   0.817391 0.448653 0.616221 -0.223597
C6    C     C_R   0.745241 0.446473 0.612642 -0.209035
C7    C     C_R   0.709800 0.499979 0.502033 -0.052436
C8    C     C_R   0.746667 0.554983 0.394301 -0.280393
C9    C     C_R   0.819337 0.559006 0.397728 0.244251
C10   C     C_R   0.854408 0.506767 0.510835 0.067234
C11   C     C_R   0.522542 0.061375 0.609965 0.097670
C12   C     C_R   0.365644 0.502264 0.499834 0.917745
C13   C     C_R   0.492987 0.129181 0.503750 -0.128295
C14   C     C_R   0.455906 0.068324 0.401464 -0.308611
C15   C     C_R   0.457590 0.938402 0.395522 0.186474
C16   C     C_R   0.494096 0.871808 0.498061 -0.145661
C17   C     C_R   0.521447 0.934111 0.609027 0.050606
C18   C     C_3   0.591256 0.922848 0.676653 -0.478430
C19   C     C_3   0.593061 0.065817 0.676842 -0.113513
C20   C     C_R   0.441992 0.463213 0.071985 0.178197
C21   C     C_R   0.554228 0.549799 0.071524 -0.127350
C22   C     C_R   0.554016 0.550552 0.927544 -0.137571
C23   C     C_R   0.499046 0.739800 0.498793 0.905467
C24   C     C_R   0.443053 0.458581 0.930135 0.130751
C25   C     C_3   0.408942 0.330973 0.933584 -0.013832
C26   C     C_3   0.405001 0.341179 0.086737 -0.508731
C27   C     C_R   0.634329 0.499918 0.500362 0.851382
C28   C     C_R   0.255046 0.445716 0.606037 -0.330326
C29   C     C_R   0.183390 0.456658 0.620046 0.222466
C30   C     C_R   0.145387 0.527431 0.523401 -0.048023
C31   C     C_R   0.180419 0.591575 0.416457 0.126796
C32   C     C_R   0.253284 0.584654 0.408087 0.166209
H1    H     H_    0.283901 0.389660 0.679419 0.157909
H2    H     H_    0.586690 0.880935 0.780093 0.184478
H3    H     H_    0.630407 0.876549 0.612336 0.189016
H4    H     H_    0.589552 0.103008 0.781128 0.145774
H5    H     H_    0.598588 0.587938 0.125346 0.138331
H6    H     H_    0.598094 0.589629 0.873120 0.148731
H7    H     H_    0.357442 0.329276 0.881089 0.144636
H8    H     H_    0.350903 0.351146 0.124058 0.165203
H9    H     H_    0.436492 0.270740 0.143649 0.227815
H10   H     H_    0.844377 0.407952 0.702883 0.154569
H11   H     H_    0.717159 0.402909 0.696102 0.150363
H12   H     H_    0.719071 0.595946 0.308495 0.141692
H13   H     H_    0.428956 0.121110 0.322869 0.162632
N1    N     N_R   0.031943 0.630317 0.508311 -0.192481
N2    N     N_R   0.962826 0.624998 0.504012 -0.149372
N3    N     N_R   0.966685 0.408736 0.546484 -0.184725
N4    N     N_R   0.035795 0.413988 0.549292 -0.145442
N5    N     N_R   0.499530 0.499140 0.142800 -0.093374
N6    N     N_R   0.499530 0.499180 0.857150 -0.114920
O1    O     O_R   0.500010 0.316790 0.614690 -0.637497
O2    O     O_R   0.500000 0.316760 0.385350 -0.620892
O3    O     O_R   0.398140 0.500000 0.614710 -0.626580
O4    O     O_R   0.398130 0.499970 0.385370 -0.587359
O5    O     O_R   0.500000 0.683240 0.614650 -0.616413
O6    O     O_R   0.499990 0.683210 0.385310 -0.593183
O7    O     O_R   0.601870 0.500030 0.614630 -0.630686
O8    O     O_R   0.601860 0.500000 0.385290 -0.626180
Zn1   Zn    Zn3+2 0.500000 0.500020 0.653130 0.930352
Zn2   Zn    Zn3+2 0.500000 0.499980 0.346870 0.952900
N7    N     N_2   0.424331 0.876717 0.285809 -0.277091
H14   H     H_    0.374358 0.908546 0.268214 0.213615
C33   C     C_3   0.464841 0.877746 0.162401 -0.745153
H15   H     H_    0.471466 0.975241 0.123229 0.230571
H16   H     H_    0.437487 0.821661 0.084433 0.227662
H17   H     H_    0.517095 0.836194 0.180700 0.251856
C34   C     C_3   0.652004 0.130933 0.594672 -0.361436
C35   C     C_3   0.665256 0.080167 0.451761 -0.330518
C36   C     C_3   0.711308 0.170150 0.369659 -0.869132
H18   H     H_    0.683984 0.260418 0.351982 0.270423
H19   H     H_    0.761238 0.187853 0.423897 0.271315
H20   H     H_    0.723003 0.128787 0.269884 0.245059
H21   H     H_    0.692237 0.988597 0.459385 0.212345
H22   H     H_    0.615708 0.066518 0.395417 0.237658
H23   H     H_    0.639265 0.232076 0.586944 0.199092
H24   H     H_    0.701151 0.123485 0.654367 0.194800
N8    N     N_2   0.454886 0.228966 0.899091 -0.277072
H25   H     H_    0.499053 0.249771 0.844553 0.264452
C37   C     C_3   0.420639 0.111564 0.869334 -0.804661
H26   H     H_    0.459664 0.035258 0.869384 0.238074
H27   H     H_    0.394950 0.117641 0.768356 0.243484
H28   H     H_    0.381046 0.088375 0.947836 0.247246
N9    N     N_2   0.149809 0.396402 0.732143 -0.285903
H29   H     H_    0.174208 0.315687 0.765680 0.221999
C38   C     C_3   0.133926 0.479054 0.842420 -0.793248
H30   H     H_    0.182902 0.516664 0.887357 0.230669
H31   H     H_    0.104895 0.426236 0.922120 0.240582
H32   H     H_    0.100820 0.558025 0.806536 0.252258
N10   N     N_2   0.143887 0.661893 0.315068 -0.301655
H33   H     H_    0.114034 0.734121 0.350451 0.243106
C39   C     C_3   0.110395 0.588581 0.210825 -0.771035
H34   H     H_    0.064257 0.537731 0.251801 0.248241
H35   H     H_    0.147440 0.519894 0.168745 0.241838
H36   H     H_    0.092818 0.651795 0.127219 0.239060
N11   N     N_2   0.290183 0.663884 0.315246 -0.279576
H37   H     H_    0.278728 0.757612 0.324495 0.215729
C40   C     C_3   0.290879 0.624087 0.175844 -0.708217
H38   H     H_    0.249466 0.672973 0.116762 0.231369
H39   H     H_    0.282636 0.521448 0.168484 0.224663
H40   H     H_    0.342000 0.648918 0.130439 0.236693
N12   N     N_2   0.856639 0.615752 0.288154 -0.301860
H41   H     H_    0.829491 0.685949 0.238316 0.220015
C41   C     C_3   0.886454 0.527822 0.194959 -0.785886
H42   H     H_    0.844381 0.473938 0.143830 0.234390
H43   H     H_    0.922033 0.461902 0.248758 0.249616
H44   H     H_    0.917148 0.579660 0.116894 0.241069

loop_
_geom_bond_atom_site_label_1
_geom_bond_atom_site_label_2
_ccdc_geom_bond_type
C5    H10   S    
C2    C12   S    
C41   H43   S    
C7    C8    A    
O3    Zn1   S    
C11   C19   S    
N7    H14   S    
C5    C6    A    
C28   C29   A    
N9    C38   S    
C19   H4    S    
C30   C31   A    
N8    C37   S    
O7    Zn1   S    
C15   C16   A    
C22   H6    S    
C3    N3    A    
C7    C27   S    
C2    C32   A    
C18   C19   S    
C1    O2    A    
C21   N5    A    
C20   N5    A    
O1    Zn1   S    
C34   C35   S    
O2    Zn2   S    
C20   C24   A    
C9    N12   S    
N11   C40   S    
N7    C33   S    
C36   H18   S    
C18   H3    S    
C24   N6    A    
C21   C22   A    
C35   C36   S    
C37   H28   S    
C41   H42   S    
C14   H13   S    
O8    Zn2   S    
C25   N8    S    
C33   H17   S    
C35   H21   S    
C24   C25   S    
C29   N9    S    
C37   H27   S    
N8    H25   S    
C8    C9    A    
C4    N1    A    
C25   C26   S    
C38   H32   S    
C39   H36   S    
O5    Zn1   S    
C33   H16   S    
C29   C30   A    
N10   C39   S    
C31   C32   A    
C31   N10   S    
N11   H37   S    
C36   H20   S    
C39   H35   S    
C17   C18   S    
C19   C34   S    
N9    H29   S    
N12   C41   S    
C18   H2    S    
C23   O5    A    
N3    N4    A    
C32   N11   S    
C28   H1    S    
C16   C23   S    
C40   H39   S    
C6    H11   S    
C1    C13   S    
C9    C10   A    
C34   H24   S    
C23   O6    A    
N1    N2    A    
C11   C17   A    
C38   H30   S    
C8    H12   S    
C37   H26   S    
C27   O7    A    
C36   H19   S    
O6    Zn2   S    
C6    C7    A    
C34   H23   S    
C40   H40   S    
C4    N4    A    
C33   H15   S    
C5    C10   A    
C3    C10   S    
C27   O8    A    
C25   H7    S    
C11   C13   A    
C26   H8    S    
N10   H33   S    
C16   C17   A    
C20   C26   S    
O4    Zn2   S    
C3    N2    A    
C39   H34   S    
C15   N7    S    
C35   H22   S    
C38   H31   S    
N12   H41   S    
C1    O1    A    
C4    C30   S    
C12   O4    A    
C21   H5    S    
C40   H38   S    
N5    Zn2   S    
C14   C15   A    
C2    C28   A    
N6    Zn1   S    
C13   C14   A    
C41   H44   S    
C12   O3    A    
C26   H9    S    
C22   N6    A    
