data_mof_unit_32625.cif
_audit_creation_date              2012-12-10T19:16:24-0500
_audit_creation_method            fapswitch 2.2
_symmetry_space_group_name_H-M    P1
_symmetry_Int_Tables_number       1
_space_group_crystal_system       triclinic
_cell_length_a                    10.779072
_cell_length_b                    9.801184
_cell_length_c                    26.873097
_cell_angle_alpha                 90.136301
_cell_angle_beta                  88.119775
_cell_angle_gamma                 87.810289
_cell_volume                      2835.4607161

loop_
_atom_site_label
_atom_site_type_symbol
_atom_type_description
_atom_site_fract_x
_atom_site_fract_y
_atom_site_fract_z
_atom_type_partial_charge
Br1   Br    Br    0.303085 0.334471 0.347210 -0.431215
Br2   Br    Br    0.672211 0.837352 0.415995 -0.414215
Br3   Br    Br    0.473238 0.915724 0.121675 -0.286215
Br4   Br    Br    0.345156 0.327211 0.672117 -0.311633
Br5   Br    Br    0.712775 0.966061 0.967719 -0.391408
Br6   Br    Br    0.989527 0.222319 0.969231 -0.340211
Br7   Br    Br    0.138856 0.704233 0.415913 -0.406973
Br8   Br    Br    0.107393 0.280111 0.571648 -0.323895
Br9   Br    Br    0.081665 0.805591 0.523591 -0.433260
Br10  Br    Br    0.122783 0.572602 0.607149 -0.350485
Br11  Br    Br    0.884349 0.391663 0.392370 -0.379498
Br12  Br    Br    0.910458 0.195491 0.482468 -0.388155
Br13  Br    Br    0.645009 0.153923 0.405651 -0.258875
C1    C     C_R   0.257614 0.502582 0.500049 0.967384
C2    C     C_R   0.695946 0.665831 0.966556 0.035495
C3    C     C_R   0.783960 0.430584 0.967628 -0.089654
C4    C     C_R   0.500510 0.499581 0.405417 0.987788
C5    C     C_R   0.741910 0.546827 0.941172 0.000245
C6    C     C_R   0.688422 0.789190 0.938998 0.367422
C7    C     C_R   0.682953 0.783948 0.887362 -0.136915
C8    C     C_R   0.700160 0.659053 0.862420 -0.057303
C9    C     C_R   0.742619 0.543618 0.888692 -0.094978
C10   C     C_R   0.781088 0.423911 0.862665 -0.208828
C11   C     C_R   0.750264 0.413312 0.812195 0.630836
C12   C     C_R   0.469071 0.431165 0.267356 0.421117
C13   C     C_R   0.677132 0.646410 0.811864 0.584370
C14   C     C_R   0.543585 0.429973 0.732307 0.460518
C15   C     C_R   0.492490 0.425861 0.684311 0.146350
C16   C     C_R   0.742352 0.497874 0.496260 0.907218
C17   C     C_R   0.654050 0.574535 0.653696 -0.223704
C18   C     C_R   0.705016 0.576512 0.700219 -0.145888
C19   C     C_R   0.649690 0.506399 0.739614 0.209088
C20   C     C_R   0.659486 0.656386 0.017574 -0.026638
C21   C     C_R   0.693209 0.537104 0.044353 0.027491
C22   C     C_R   0.754208 0.423344 0.019459 0.113155
C23   C     C_R   0.573561 0.499227 0.249020 0.164171
C24   C     C_R   0.573822 0.752204 0.040396 0.408638
C25   C     C_R   0.738243 0.292427 0.096213 -0.080221
C26   C     C_R   0.854623 0.327843 0.940419 0.250390
C27   C     C_R   0.848415 0.320784 0.888352 0.468569
C28   C     C_R   0.504277 0.500108 0.594445 0.975201
C29   C     C_R   0.767738 0.299913 0.045809 -0.117070
C30   C     C_3   0.063900 0.648556 0.479995 0.457343
C31   C     C_3   0.063391 0.466874 0.551427 0.491130
C32   C     C_3   0.923478 0.635584 0.474283 -0.428308
C33   C     C_3   0.920866 0.481975 0.549499 -0.484617
C34   C     C_R   0.658175 0.527540 0.095588 -0.098625
C35   C     C_3   0.083838 0.397034 0.459818 -0.474533
C36   C     C_3   0.120776 0.506333 0.498726 -0.200341
C37   C     C_3   0.879307 0.496133 0.494909 -0.142151
C38   C     C_3   0.941969 0.380893 0.460634 0.510630
C39   C     C_3   0.383405 0.085597 0.522135 0.229819
C40   C     C_3   0.379990 0.923148 0.519007 0.241978
C41   C     C_3   0.509694 0.079178 0.447070 -0.001495
C42   C     C_3   0.518252 0.916452 0.447566 -0.028019
C43   C     C_3   0.607329 0.076217 0.525568 0.278921
C44   C     C_3   0.600812 0.915336 0.529765 0.302558
C45   C     C_R   0.594181 0.638155 0.120558 -0.169258
C46   C     C_R   0.567038 0.624940 0.172172 0.676442
C47   C     C_R   0.655379 0.398008 0.172463 0.638709
C48   C     C_R   0.652909 0.562733 0.281196 0.470505
C49   C     C_R   0.625785 0.561218 0.332239 -0.275615
C50   C     C_R   0.443010 0.428777 0.319418 0.145135
C51   C     C_R   0.553793 0.752813 0.092445 0.211068
C52   C     C_R   0.685575 0.405763 0.121646 -0.029280
C53   C     C_R   0.520757 0.497812 0.351404 -0.160194
C54   C     C_R   0.547777 0.500827 0.645374 -0.130848
H1    H     H_    0.753055 0.195464 0.114815 0.215554
H2    H     H_    0.131829 0.296536 0.465988 0.247449
H3    H     H_    0.303663 0.126036 0.500679 0.146672
H4    H     H_    0.306862 0.898038 0.492667 0.135306
H5    H     H_    0.424821 0.111377 0.426973 0.156912
H6    H     H_    0.443673 0.879455 0.423865 0.180820
H7    H     H_    0.692246 0.095720 0.503303 0.164032
H8    H     H_    0.691677 0.870363 0.515790 0.113770
H9    H     H_    0.667519 0.877855 0.866894 0.230168
H10   H     H_    0.689170 0.606037 0.357278 0.214132
H11   H     H_    0.802225 0.665127 0.289112 0.380616
H12   H     H_    0.698815 0.629969 0.623727 0.175233
H13   H     H_    0.952231 0.255150 0.832763 0.372825
H14   H     H_    0.324344 0.328479 0.249953 0.399378
H15   H     H_    0.412239 0.080901 0.594144 0.428168
H16   H     H_    0.269814 0.907999 0.577626 0.393464
H17   H     H_    0.706511 0.120823 0.582198 0.344505
H18   H     H_    0.667567 0.877600 0.595080 0.330149
H19   H     H_    0.421129 0.311734 0.763414 0.385154
H20   H     H_    0.421316 0.859820 0.028420 0.382472
H21   H     H_    0.786465 0.635169 0.706064 0.197074
H22   H     H_    0.794267 0.204999 0.027621 0.217864
H23   H     H_    0.872980 0.722073 0.493708 0.238407
H24   H     H_    0.887282 0.574484 0.570741 0.197652
H25   H     H_    0.898436 0.647176 0.434762 0.246706
H26   H     H_    0.875928 0.394404 0.568057 0.226739
H27   H     H_    0.117487 0.426614 0.422158 0.252445
N1    N     N_R   0.598669 0.507035 0.196488 -0.321578
N2    N     N_R   0.695381 0.522590 0.788666 -0.332952
N3    N     N_3   0.499750 0.138610 0.498940 -0.151662
N4    N     N_3   0.499750 0.861390 0.498940 -0.135395
O1    O     O_R   0.314910 0.616040 0.499990 -0.560766
O2    O     O_2   0.631338 0.755053 0.786629 -0.505937
O3    O     O_2   0.683090 0.282827 0.197929 -0.474495
O4    O     O_2   0.769513 0.294226 0.787375 -0.481501
O5    O     O_3   0.756308 0.625053 0.261589 -0.689522
O6    O     O_3   0.915821 0.217138 0.863840 -0.646602
O7    O     O_3   0.395922 0.370307 0.232993 -0.688117
O8    O     O_3   0.363509 0.137441 0.570755 -0.598996
O9    O     O_3   0.348678 0.863170 0.565033 -0.598182
O10   O     O_3   0.619523 0.138679 0.572186 -0.680222
O11   O     O_3   0.585118 0.875059 0.579737 -0.648328
O12   O     O_R   0.314910 0.383960 0.499990 -0.601611
O13   O     O_3   0.492078 0.365244 0.773256 -0.706904
O14   O     O_3   0.500391 0.834049 0.010448 -0.700804
O15   O     O_R   0.500140 0.616020 0.428740 -0.600333
O16   O     O_R   0.500140 0.383980 0.428740 -0.574459
O17   O     O_R   0.685320 0.616040 0.499970 -0.634289
O18   O     O_R   0.685320 0.383960 0.499970 -0.571240
O19   O     O_R   0.500090 0.616050 0.571230 -0.521896
O20   O     O_R   0.500090 0.383950 0.571230 -0.505060
O21   O     O_2   0.508637 0.727101 0.198341 -0.448323
Zn1   Zn    Zn3+2 0.500150 0.654960 0.499980 1.061430
Zn2   Zn    Zn3+2 0.500150 0.345040 0.499980 1.084914

loop_
_geom_bond_atom_site_label_1
_geom_bond_atom_site_label_2
_ccdc_geom_bond_type
C31   C36   S    
C2    C5    A    
C8    C13   A    
C49   H10   S    
C6    C7    A    
C35   H2    S    
Br12  C38   S    
C4    O15   A    
C1    O1    A    
C28   C54   S    
Br3   C51   S    
C2    C6    A    
C4    C53   S    
C35   H27   S    
H13   O6    S    
C34   C52   A    
C48   O5    S    
C25   C29   A    
H18   O11   S    
Br2   C42   S    
C11   N2    A    
C3    C22   A    
C17   C18   A    
C1    C36   S    
C10   C27   A    
C39   N3    S    
C43   C44   S    
C7    H9    S    
C21   C22   A    
C12   C50   A    
C32   H25   S    
C22   C29   A    
C43   O10   S    
C24   O14   S    
N3    Zn2   S    
O1    Zn1   S    
O16   Zn2   S    
C35   C38   S    
C44   O11   S    
C10   C11   A    
C41   N3    S    
Br7   C30   S    
C28   O20   A    
C17   C54   A    
C16   O17   A    
C50   C53   A    
C14   O13   S    
C8    C9    A    
C45   C51   A    
C46   N1    A    
C43   N3    S    
Br1   C50   S    
Br4   C15   S    
C31   C33   S    
C4    O16   A    
C20   C21   A    
C16   C37   S    
C9    C10   A    
C13   N2    A    
H14   O7    S    
Br9   C30   S    
C43   H7    S    
O18   Zn2   S    
C49   C53   A    
C12   O7    S    
C15   C54   A    
C39   H3    S    
O19   Zn1   S    
C26   C27   A    
C30   C36   S    
C33   H24   S    
C12   C23   A    
C45   C46   A    
Br10  C31   S    
C20   C24   A    
O20   Zn2   S    
C27   O6    S    
O15   Zn1   S    
C40   O9    S    
C18   C19   A    
C25   C52   A    
C37   C38   S    
C32   H23   S    
C30   C32   S    
C17   H12   S    
C35   C36   S    
C19   N2    S    
C16   O18   A    
C25   H1    S    
C47   C52   A    
C23   C48   A    
C40   H4    S    
C24   C51   A    
C39   C40   S    
Br13  C41   S    
C1    O12   A    
C41   C42   S    
C46   O21   S    
C18   H21   S    
H11   O5    S    
C5    C9    A    
Br8   C31   S    
N4    Zn1   S    
Br5   C6    S    
C40   N4    S    
C33   C37   S    
C29   H22   S    
C44   H8    S    
H19   O13   S    
O12   Zn2   S    
C34   C45   A    
C23   N1    S    
C33   H26   S    
C32   C37   S    
C44   N4    S    
C42   N4    S    
H17   O10   S    
H20   O14   S    
H16   O9    S    
C11   O4    S    
H15   O8    S    
C48   C49   A    
Br11  C38   S    
C14   C19   A    
C3    C26   A    
C39   O8    S    
C42   H6    S    
C47   N1    A    
C41   H5    S    
C7    C8    A    
C3    C5    A    
O17   Zn1   S    
C14   C15   A    
Br6   C26   S    
C21   C34   A    
C28   O19   A    
C2    C20   A    
C47   O3    S    
C13   O2    S    
