data_mof_unit_19296.cif
_audit_creation_date              2012-12-10T18:06:41-0500
_audit_creation_method            fapswitch 2.2
_symmetry_space_group_name_H-M    P1
_symmetry_Int_Tables_number       1
_space_group_crystal_system       triclinic
_cell_length_a                    12.559733
_cell_length_b                    13.165588
_cell_length_c                    15.439467
_cell_angle_alpha                 84.645105
_cell_angle_beta                  100.043552
_cell_angle_gamma                 97.700469
_cell_volume                      2484.80868144

loop_
_atom_site_label
_atom_site_type_symbol
_atom_type_description
_atom_site_fract_x
_atom_site_fract_y
_atom_site_fract_z
_atom_type_partial_charge
C1    C     C_R   0.442571 0.307807 0.510224 0.852779
C2    C     C_R   0.452215 0.528684 0.099290 0.084175
C3    C     C_R   0.357691 0.574395 0.060583 0.161995
C4    C     C_R   0.530198 0.512235 0.047697 0.026362
C5    C     C_R   0.493456 0.508044 0.955983 0.059920
C6    C     C_R   0.396807 0.550332 0.917883 -0.112853
C7    C     C_R   0.332720 0.587913 0.969334 -0.234801
C8    C     C_R   0.643294 0.504572 0.081876 0.081736
C9    C     C_R   0.709149 0.475944 0.025881 -0.258082
C10   C     C_R   0.668024 0.458271 0.938190 0.135768
C11   C     C_R   0.557958 0.469089 0.903552 0.027367
C12   C     C_R   0.434559 0.512346 0.336133 0.874964
C13   C     C_R   0.736890 0.433035 0.883240 -0.191551
C14   C     C_R   0.700093 0.431296 0.792951 -0.209867
C15   C     C_R   0.517472 0.442358 0.816354 -0.088110
C16   C     C_R   0.725256 0.938087 0.527951 -0.204870
C17   C     C_R   0.589974 0.801680 0.474418 -0.125775
C18   C     C_R   0.294995 0.167341 0.462888 0.101517
C19   C     C_R   0.281305 0.094811 0.400184 -0.167392
C20   C     C_R   0.366746 0.040707 0.393359 -0.173278
C21   C     C_R   0.461155 0.045869 0.458301 0.092835
C22   C     C_R   0.481167 0.129764 0.512121 0.066827
C23   C     C_R   0.555365 0.691645 0.486139 0.940074
C24   C     C_R   0.538134 0.973684 0.470482 0.007419
C25   C     C_R   0.643738 0.002204 0.519489 0.156668
C26   C     C_R   0.664822 0.090081 0.566135 -0.231305
C27   C     C_R   0.581836 0.148166 0.568155 -0.165851
C28   C     C_R   0.512258 0.870573 0.445829 -0.049458
C29   C     C_R   0.698344 0.838046 0.504934 -0.183745
C30   C     C_R   0.402319 0.197880 0.505573 -0.146416
C31   C     C_R   0.145870 0.695153 0.561860 -0.024131
C32   C     C_R   0.753599 0.366953 0.406446 0.025722
C33   C     C_R   0.845757 0.342245 0.378775 -0.275618
C34   C     C_R   0.561293 0.477156 0.663801 0.968441
C35   C     C_R   0.945255 0.400852 0.403210 -0.195482
C36   C     C_R   0.951760 0.485310 0.454452 0.053768
C37   C     C_R   0.855310 0.509553 0.478909 0.152625
C38   C     C_R   0.050796 0.543202 0.487669 -0.027448
C39   C     C_R   0.048741 0.640226 0.520438 0.119105
C40   C     C_R   0.947386 0.672325 0.522671 -0.346684
C41   C     C_R   0.859399 0.597234 0.525691 -0.037189
C42   C     C_R   0.150274 0.503939 0.496752 -0.083529
C43   C     C_R   0.240028 0.644332 0.579141 0.117622
C44   C     C_R   0.397975 0.526357 0.241656 -0.062455
C45   C     C_R   0.593174 0.448841 0.758292 -0.124366
C46   C     C_R   0.287849 0.601750 0.114051 -0.198126
C47   C     C_R   0.310517 0.581166 0.205298 -0.140440
C48   C     C_R   0.460925 0.492804 0.187006 -0.248820
H1    H     H_    0.260240 0.621532 0.937789 0.150668
H2    H     H_    0.820676 0.421425 0.908963 0.145324
H3    H     H_    0.760091 0.786746 0.519996 0.190482
H4    H     H_    0.743345 0.109505 0.606629 0.152374
H5    H     H_    0.807262 0.961695 0.560660 0.137264
H6    H     H_    0.356327 0.994356 0.337867 0.151749
H7    H     H_    0.204232 0.079770 0.356729 0.144355
H8    H     H_    0.597784 0.209751 0.612316 0.162094
H9    H     H_    0.942246 0.743337 0.550606 0.161280
H10   H     H_    0.158788 0.434148 0.468667 0.127671
H11   H     H_    0.675865 0.322187 0.386768 0.143902
H12   H     H_    0.015169 0.380791 0.379580 0.132739
H13   H     H_    0.840078 0.278021 0.338571 0.151165
H14   H     H_    0.754238 0.415703 0.750285 0.200717
H15   H     H_    0.794729 0.470172 0.049968 0.139491
H16   H     H_    0.217102 0.639672 0.085530 0.138940
H17   H     H_    0.260085 0.607308 0.246862 0.173624
H18   H     H_    0.515234 0.436578 0.213123 0.153585
H19   H     H_    0.370652 0.555861 0.847834 0.211292
N1    N     N_R   0.239390 0.551900 0.544730 -0.149219
N2    N     N_R   0.759950 0.448600 0.455730 -0.141850
O1    O     O_R   0.374950 0.371210 0.521360 -0.605898
O2    O     O_R   0.542050 0.338030 0.492790 -0.630473
O3    O     O_R   0.368720 0.526070 0.390200 -0.617869
O4    O     O_R   0.535820 0.492890 0.361630 -0.632483
O5    O     O_R   0.457950 0.661970 0.507210 -0.588737
O6    O     O_R   0.625050 0.628790 0.478640 -0.621785
O7    O     O_R   0.464180 0.507110 0.638370 -0.548642
O8    O     O_R   0.631280 0.473930 0.609800 -0.614949
Zn1   Zn    Zn3+2 0.388420 0.522150 0.519080 0.995131
Zn2   Zn    Zn3+2 0.611580 0.477850 0.480920 0.938944
C49   C     C_2   0.403952 0.827914 0.399153 0.907036
O9    O     O_2   0.398064 0.787872 0.329849 -0.670004
O10   O     O_R   0.310119 0.829202 0.435994 -0.778844
H20   H     H_    0.242189 0.796224 0.398438 0.327268
C50   C     C_3   0.195076 0.208377 0.482190 -0.412008
C51   C     C_3   0.117092 0.121050 0.518445 -0.358306
C52   C     C_3   0.018611 0.161457 0.542681 -0.874334
H21   H     H_    0.044879 0.221501 0.590553 0.274142
H22   H     H_    0.968874 0.193974 0.482636 0.272832
H23   H     H_    0.967433 0.097457 0.573182 0.238500
H24   H     H_    0.087570 0.063359 0.468849 0.223212
H25   H     H_    0.161103 0.081928 0.578371 0.237933
H26   H     H_    0.216731 0.264526 0.533239 0.238408
H27   H     H_    0.153112 0.246602 0.420885 0.184538
C53   C     C_2   0.338650 0.687958 0.637382 0.960920
O11   O     O_2   0.370919 0.640022 0.706066 -0.680590
O12   O     O_R   0.393761 0.783933 0.615788 -0.789053
H28   H     H_    0.459755 0.804165 0.661493 0.340303
C54   C     C_2   0.408674 0.378898 0.794618 0.920936
O13   O     O_2   0.350073 0.356081 0.850696 -0.631284
O14   O     O_R   0.377734 0.336262 0.713012 -0.802701
H29   H     H_    0.304103 0.292911 0.707410 0.338951
C55   C     C_3   0.147327 0.801893 0.593691 -0.413834
C56   C     C_3   0.125470 0.795150 0.688943 -0.355699
C57   C     C_3   0.118757 0.901287 0.718219 -0.862857
H30   H     H_    0.196506 0.951643 0.714760 0.267453
H31   H     H_    0.050915 0.936982 0.675571 0.257363
H32   H     H_    0.103514 0.894091 0.787359 0.257625
H33   H     H_    0.047755 0.745775 0.694978 0.239987
H34   H     H_    0.192027 0.760119 0.733916 0.232148
H35   H     H_    0.225555 0.849899 0.588869 0.270357
H36   H     H_    0.088153 0.846123 0.548879 0.196030
C58   C     C_2   0.832167 0.585361 0.615074 0.962489
O15   O     O_2   0.774645 0.642635 0.637601 -0.651472
O16   O     O_R   0.891658 0.522722 0.678249 -0.830011
H37   H     H_    0.891132 0.540731 0.740569 0.327879
C59   C     C_3   0.703026 0.540080 0.171197 -0.408990
C60   C     C_3   0.694176 0.653297 0.182173 -0.325792
C61   C     C_3   0.753567 0.685295 0.272330 -0.840029
H38   H     H_    0.717070 0.638226 0.325660 0.288178
H39   H     H_    0.841294 0.675385 0.280376 0.253333
H40   H     H_    0.746290 0.767328 0.278552 0.249489
H41   H     H_    0.730641 0.702576 0.129816 0.222442
H42   H     H_    0.607946 0.667107 0.175891 0.242242
H43   H     H_    0.678552 0.489898 0.227382 0.206571
H44   H     H_    0.791432 0.532967 0.178027 0.196310

loop_
_geom_bond_atom_site_label_1
_geom_bond_atom_site_label_2
_ccdc_geom_bond_type
C37   N2    A    
O1    Zn1   S    
C17   C29   A    
C19   C20   A    
C4    C8    A    
C42   H10   S    
C58   O16   S    
O16   H37   S    
C51   H25   S    
C51   C52   S    
C26   C27   A    
C17   C23   S    
C31   C43   A    
C37   C41   A    
C36   C37   A    
O7    Zn1   S    
C38   C42   A    
C3    C7    A    
C34   O8    A    
C5    C6    A    
C52   H22   S    
C14   H14   S    
C43   C53   S    
C59   C60   S    
C18   C19   A    
C16   H5    S    
C58   O15   D    
O3    Zn1   S    
C61   H38   S    
C11   C15   A    
C35   C36   A    
C43   N1    A    
C41   C58   S    
C12   O4    A    
C18   C50   S    
C56   H33   S    
C18   C30   A    
C59   H43   S    
C9    C10   A    
C44   C47   A    
C12   O3    A    
C9    H15   S    
C21   C22   A    
C42   N1    A    
C55   H36   S    
C55   C56   S    
O2    Zn2   S    
C57   H30   S    
C14   C45   A    
O8    Zn2   S    
N1    Zn1   S    
C31   C55   S    
C24   C25   A    
C7    H1    S    
C49   O10   S    
C39   C40   A    
C27   H8    S    
C8    C9    A    
C2    C48   A    
C16   C29   A    
C10   C13   A    
C46   H16   S    
C35   H12   S    
C61   H40   S    
C2    C4    A    
C60   H41   S    
C26   H4    S    
O12   H28   S    
O4    Zn2   S    
C34   C45   S    
C1    O2    A    
C50   C51   S    
C53   O12   S    
C6    C7    A    
C20   H6    S    
C6    H19   S    
O10   H20   S    
C54   O14   S    
C59   H44   S    
C22   C27   A    
C55   H35   S    
C15   C45   A    
C15   C54   S    
C29   H3    S    
C19   H7    S    
C16   C25   A    
C46   C47   A    
C40   C41   A    
C40   H9    S    
C22   C30   A    
C52   H21   S    
C17   C28   A    
C24   C28   A    
C23   O6    A    
C49   O9    D    
C52   H23   S    
C51   H24   S    
C5    C11   A    
C32   N2    A    
C3    C46   A    
C1    O1    A    
C23   O5    A    
C56   H34   S    
C32   C33   A    
C36   C38   A    
C57   H31   S    
C25   C26   A    
C12   C44   S    
C60   C61   S    
C38   C39   A    
C1    C30   S    
C33   C35   A    
C31   C39   A    
C2    C3    A    
C50   H27   S    
C60   H42   S    
C53   O11   D    
C28   C49   S    
C61   H39   S    
N2    Zn2   S    
C10   C11   A    
C8    C59   S    
C13   H2    S    
C4    C5    A    
C20   C21   A    
C33   H13   S    
C54   O13   D    
O5    Zn1   S    
C21   C24   A    
C56   C57   S    
O14   H29   S    
C50   H26   S    
C32   H11   S    
C48   H18   S    
C13   C14   A    
O6    Zn2   S    
C47   H17   S    
C57   H32   S    
C44   C48   A    
C34   O7    A    
