data_mof_unit_54948.cif
_audit_creation_date              2012-12-10T18:57:42-0500
_audit_creation_method            fapswitch 2.2
_symmetry_space_group_name_H-M    P1
_symmetry_Int_Tables_number       1
_space_group_crystal_system       triclinic
_cell_length_a                    10.931433
_cell_length_b                    10.810705
_cell_length_c                    9.540332
_cell_angle_alpha                 90.008937
_cell_angle_beta                  89.591279
_cell_angle_gamma                 90.17678
_cell_volume                      1127.4089572

loop_
_atom_site_label
_atom_site_type_symbol
_atom_type_description
_atom_site_fract_x
_atom_site_fract_y
_atom_site_fract_z
_atom_type_partial_charge
C1    C     C_R   0.507719 0.262495 0.499703 0.784014
C2    C     C_R   0.526536 0.129353 0.500149 -0.192022
C3    C     C_R   0.571473 0.062797 0.381741 -0.035779
C4    C     C_R   0.563130 0.932969 0.382813 -0.187632
C5    C     C_R   0.517206 0.870497 0.501026 -0.144358
C6    C     C_R   0.496719 0.936904 0.623686 0.126370
C7    C     C_3   0.391280 0.932841 0.723876 -0.451516
C8    C     C_3   0.395120 0.073324 0.723365 -0.453249
C9    C     C_R   0.549122 0.597218 0.073179 0.250135
C10   C     C_R   0.440158 0.410851 0.074931 -0.055315
C11   C     C_R   0.439935 0.411012 0.926020 -0.051923
C12   C     C_R   0.265312 0.497148 0.500577 0.891993
C13   C     C_R   0.549153 0.597124 0.925855 0.253421
C14   C     C_3   0.677902 0.642445 0.918432 -0.486214
C15   C     C_3   0.678077 0.642421 0.077587 -0.471554
C16   C     C_R   0.502539 0.737653 0.500060 0.803716
C17   C     C_R   0.734791 0.499744 0.499462 0.879330
C18   C     C_2   0.934393 0.472287 0.387092 0.622517
C19   C     C_2   0.867024 0.505172 0.499357 -0.430203
C20   C     C_2   0.068011 0.482274 0.386196 -0.216938
C21   C     C_2   0.133391 0.487514 0.504171 -0.422062
C22   C     C_R   0.500183 0.063750 0.622878 0.153257
Cu1   Cu    Cu3+1 0.499990 0.499980 0.640670 0.950407
Cu2   Cu    Cu3+1 0.500010 0.500020 0.359330 0.964239
H1    H     H_    0.423161 0.112911 0.825780 0.210312
H2    H     H_    0.393577 0.337429 0.131029 0.146230
H3    H     H_    0.392759 0.338092 0.870642 0.136705
H4    H     H_    0.741736 0.573472 0.872309 0.227649
H5    H     H_    0.684297 0.736747 0.872452 0.203846
H6    H     H_    0.741798 0.573415 0.122309 0.272504
H7    H     H_    0.685306 0.736692 0.123121 0.198611
H8    H     H_    0.908101 0.540181 0.594438 0.110275
H9    H     H_    0.113441 0.482103 0.284528 0.195340
H10   H     H_    0.091326 0.479817 0.606946 0.158923
H11   H     H_    0.591411 0.880780 0.291348 0.187594
H12   H     H_    0.307013 0.893812 0.676189 0.195755
H13   H     H_    0.417003 0.891908 0.826394 0.209436
H14   H     H_    0.312934 0.116223 0.675749 0.192873
N1    N     N_R   0.500780 0.500930 0.147930 -0.189039
N2    N     N_R   0.500780 0.500890 0.852020 -0.187915
O1    O     O_R   0.500000 0.319640 0.618810 -0.573858
O2    O     O_R   0.500010 0.319680 0.381230 -0.605404
O3    O     O_R   0.321940 0.499980 0.618760 -0.584338
O4    O     O_R   0.321950 0.500020 0.381180 -0.578492
O5    O     O_R   0.499990 0.680320 0.618770 -0.581254
O6    O     O_R   0.500000 0.680360 0.381190 -0.589438
O7    O     O_R   0.678050 0.499980 0.618820 -0.592616
O8    O     O_R   0.678060 0.500020 0.381240 -0.531441
F1    F     F_    0.880510 0.429948 0.268177 -0.676255
C23   C     C_2   0.628428 0.124545 0.258234 0.386832
H15   H     H_    0.667007 0.216685 0.266958 0.134915
O9    O     O_2   0.635620 0.071730 0.145299 -0.558382

loop_
_geom_bond_atom_site_label_1
_geom_bond_atom_site_label_2
_ccdc_geom_bond_type
C16   O5    A    
C2    C22   A    
C8    C22   S    
Cu1   Cu2   S    
C15   H7    S    
C6    C7    S    
Cu1   O5    S    
Cu2   O2    S    
C7    H12   S    
C23   O9    D    
Cu1   O1    S    
C17   O8    A    
C11   H3    S    
Cu2   O6    S    
C10   H2    S    
C2    C3    A    
C7    H13   S    
C4    H11   S    
C7    C8    S    
C12   O4    A    
C13   C14   S    
C8    H1    S    
C11   N2    A    
C8    H14   S    
C20   H9    S    
C1    O1    A    
C17   C19   S    
C3    C23   S    
C18   C19   D    
C12   O3    A    
C18   C20   S    
C9    C15   S    
C5    C6    A    
Cu2   O4    S    
Cu1   O7    S    
C10   C11   A    
C19   H8    S    
C14   H5    S    
C14   H4    S    
C3    C4    A    
C6    C22   A    
C1    O2    A    
C9    N1    A    
Cu2   N1    S    
Cu1   O3    S    
C20   C21   D    
C15   H6    S    
C1    C2    S    
C16   O6    A    
Cu1   N2    S    
C9    C13   A    
C14   C15   S    
C4    C5    A    
C5    C16   S    
C21   H10   S    
C23   H15   S    
C12   C21   S    
C17   O7    A    
C18   F1    S    
C10   N1    A    
C13   N2    A    
Cu2   O8    S    
