data_mof_unit_37158.cif
_audit_creation_date              2012-12-11T17:45:28-0500
_audit_creation_method            fapswitch 2.2
_symmetry_space_group_name_H-M    P1
_symmetry_Int_Tables_number       1
_space_group_crystal_system       triclinic
_cell_length_a                    15.076245
_cell_length_b                    15.137329
_cell_length_c                    15.037885
_cell_angle_alpha                 110.576247
_cell_angle_beta                  107.975275
_cell_angle_gamma                 109.824475
_cell_volume                      2641.9946038

loop_
_atom_site_label
_atom_site_type_symbol
_atom_type_description
_atom_site_fract_x
_atom_site_fract_y
_atom_site_fract_z
_atom_type_partial_charge
C1    C     C_R   0.954430 0.232730 0.046379 -0.128756
C2    C     C_R   0.687465 0.248802 0.777268 -0.060183
C3    C     C_R   0.791902 0.590734 0.097683 -0.208905
C4    C     C_R   0.300262 0.801242 0.213022 0.482969
C5    C     C_R   0.998755 0.409133 0.697093 -0.168902
C6    C     C_R   0.700824 0.500170 0.071163 -0.151263
C7    C     C_R   0.049564 0.499540 0.691720 0.107256
C8    C     C_R   0.681536 0.227532 0.677055 0.126560
C9    C     C_R   0.066858 0.867067 0.071562 -0.040808
C10   C     C_R   0.766854 0.681157 0.453028 0.268739
C11   C     C_R   0.848245 0.654083 0.465022 0.444978
C12   C     C_R   0.307914 0.855296 0.314061 -0.296233
C13   C     C_R   0.821536 0.543206 0.424781 -0.321944
C14   C     C_R   0.711518 0.459840 0.368343 0.255307
C15   C     C_R   0.630094 0.488306 0.353405 0.430946
C16   C     C_R   0.215725 0.409536 0.916544 -0.067033
C17   C     C_R   0.657167 0.597804 0.395490 0.184835
C18   C     C_R   0.936588 0.512487 0.552130 -0.222709
C19   C     C_R   0.023856 0.497990 0.592307 0.007090
C20   C     C_R   0.085464 0.487287 0.540821 -0.009112
C21   C     C_R   0.054671 0.486903 0.442819 0.519207
C22   C     C_R   0.966111 0.501734 0.403218 -0.078685
C23   C     C_R   0.314504 0.500492 0.961258 -0.226940
C24   C     C_R   0.908486 0.517387 0.458652 0.054421
C25   C     C_R   0.286078 0.585431 0.653514 0.314110
C26   C     C_R   0.383284 0.582676 0.692812 0.343392
C27   C     C_R   0.379032 0.482046 0.664369 0.527598
C28   C     C_R   0.996016 0.590721 0.300321 -0.040456
C29   C     C_R   0.278541 0.385335 0.606346 -0.431724
C30   C     C_R   0.183074 0.388364 0.572117 -0.242213
C31   C     C_R   0.186373 0.487485 0.593471 -0.010026
C32   C     C_R   0.103722 0.989589 0.378954 -0.075254
C33   C     C_R   0.200351 0.002177 0.379879 -0.062728
C34   C     C_R   0.937566 0.500931 0.303434 -0.140728
C35   C     C_R   0.287142 0.028061 0.473262 0.114310
C36   C     C_R   0.274639 0.039389 0.565070 -0.154969
C37   C     C_R   0.176858 0.023488 0.562547 -0.068883
C38   C     C_R   0.091293 0.997969 0.469252 -0.083454
C39   C     C_R   0.487955 0.138920 0.560604 0.426116
C40   C     C_R   0.305003 0.591118 0.007100 0.561810
C41   C     C_R   0.586660 0.145668 0.573416 -0.034881
C42   C     C_R   0.591040 0.062411 0.496491 0.011483
C43   C     C_R   0.497358 0.968721 0.416846 -0.226964
C44   C     C_R   0.398647 0.957677 0.405077 0.038397
C45   C     C_R   0.704748 0.409568 0.010641 0.495394
C46   C     C_R   0.391163 0.042102 0.476812 -0.135064
C47   C     C_R   0.720318 0.101803 0.426210 -0.333456
C48   C     C_R   0.818797 0.117546 0.428915 0.590041
C49   C     C_R   0.885500 0.097833 0.498003 -0.422002
C50   C     C_R   0.853858 0.060046 0.562520 0.567624
C51   C     C_R   0.755170 0.043695 0.558239 -0.198783
C52   C     C_R   0.906301 0.410423 0.209334 0.607668
C53   C     C_R   0.689908 0.068032 0.493097 -0.000824
C54   C     C_3   0.511333 0.396509 0.033315 -0.553706
C55   C     C_3   0.404444 0.396639 0.002157 0.432516
C56   C     C_R   0.083751 0.590546 0.786008 -0.109742
C57   C     C_3   0.613582 0.601167 0.138409 -0.392753
C58   C     C_3   0.557626 0.499550 0.938267 -0.311108
C59   C     C_3   0.598089 0.499233 0.046935 0.305306
C60   C     C_3   0.417170 0.500205 0.993584 0.225640
C61   C     C_3   0.508771 0.604550 0.105183 -0.385023
C62   C     C_3   0.449985 0.497485 0.906025 -0.470191
C63   C     C_R   0.654262 0.965948 0.913063 0.598137
C64   C     C_R   0.215054 0.790545 0.309394 0.512696
C65   C     C_R   0.758919 0.988354 0.973924 0.467342
C66   C     C_R   0.824917 0.981694 0.924104 -0.343551
C67   C     C_R   0.783736 0.264380 0.691105 -0.157601
C68   C     C_R   0.782577 0.949889 0.812300 0.546891
C69   C     C_R   0.677947 0.927696 0.753870 -0.139480
C70   C     C_R   0.614587 0.936120 0.803265 -0.482673
C71   C     C_R   0.954845 0.932570 0.006415 -0.244699
C72   C     C_R   0.059944 0.956675 0.067092 0.086590
C73   C     C_R   0.150584 0.059382 0.111931 0.151808
C74   C     C_R   0.132540 0.135533 0.091859 -0.184777
C75   C     C_R   0.027654 0.109989 0.031032 0.042365
C76   C     C_R   0.042414 0.227489 0.949777 0.599622
C77   C     C_R   0.937493 0.009379 0.988863 0.063720
C78   C     C_R   0.002014 0.802354 0.096431 -0.259069
C79   C     C_R   0.307055 0.166426 0.299483 0.535675
C80   C     C_R   0.416198 0.207994 0.370043 -0.357248
C81   C     C_R   0.480610 0.180675 0.329636 -0.144650
C82   C     C_R   0.439199 0.116324 0.217905 0.558579
C83   C     C_R   0.330515 0.076088 0.146781 -0.346677
C84   C     C_R   0.262608 0.095449 0.187389 -0.022435
C85   C     C_R   0.013901 0.190947 0.014151 -0.138410
C86   C     C_R   0.095229 0.804607 0.008081 0.522057
H1    H     H_    0.807674 0.266050 0.631413 0.125993
H2    H     H_    0.669036 0.119022 0.374826 0.178935
H3    H     H_    0.962787 0.113886 0.502496 0.144851
H4    H     H_    0.022424 0.673847 0.356588 0.188794
H5    H     H_    0.637915 0.599054 0.214662 0.164953
H6    H     H_    0.386922 0.422063 0.826585 0.167610
H7    H     H_    0.533952 0.918565 0.755450 0.173394
H8    H     H_    0.644885 0.902798 0.668655 0.161771
H9    H     H_    0.915732 0.214676 0.092058 0.211156
H10   H     H_    0.126824 0.673925 0.806094 0.156374
H11   H     H_    0.206387 0.796753 0.976565 0.344430
H12   H     H_    0.964101 0.824233 0.144055 0.141496
H13   H     H_    0.621861 0.228404 0.795503 0.170378
H14   H     H_    0.597036 0.688441 0.374076 0.312452
H15   H     H_    0.744609 0.800758 0.522181 0.352284
H16   H     H_    0.004376 0.712745 0.523157 0.328340
H17   H     H_    0.403134 0.925383 0.219970 0.331476
H18   H     H_    0.743362 0.340475 0.346372 0.335792
H19   H     H_    0.511732 0.337149 0.259973 0.359280
H20   H     H_    0.160734 0.452571 0.412877 0.336039
H21   H     H_    0.354256 0.732852 0.679015 0.325435
H22   H     H_    0.474942 0.735818 0.803135 0.318343
H23   H     H_    0.819713 0.675818 0.149078 0.134644
H24   H     H_    0.458490 0.405042 0.671698 0.315524
H25   H     H_    0.274150 0.307465 0.587038 0.163185
H26   H     H_    0.106394 0.312854 0.525079 0.199758
H27   H     H_    0.206960 0.990052 0.307584 0.111194
H28   H     H_    0.340078 0.058298 0.637780 0.137094
H29   H     H_    0.420152 0.224793 0.599618 0.300676
H30   H     H_    0.501942 0.902478 0.362656 0.176819
H31   H     H_    0.798148 0.166201 0.324519 0.341254
H32   H     H_    0.986144 0.058988 0.627865 0.320346
H33   H     H_    0.731852 0.017338 0.609649 0.159264
H34   H     H_    0.968876 0.325503 0.638475 0.116458
H35   H     H_    0.539187 0.393477 0.109281 0.196765
H36   H     H_    0.495560 0.321156 0.966278 0.181849
H37   H     H_    0.344723 0.322492 0.920665 0.085214
H38   H     H_    0.421385 0.446661 0.148740 0.374785
H39   H     H_    0.485360 0.613715 0.169670 0.181920
H40   H     H_    0.617821 0.573673 0.946522 0.203054
H41   H     H_    0.547360 0.427346 0.871754 0.178449
H42   H     H_    0.402702 0.684877 0.979941 0.305762
H43   H     H_    0.457902 0.568671 0.896047 0.201436
H44   H     H_    0.677701 0.678011 0.155225 0.172364
H45   H     H_    0.892036 0.522978 0.595845 0.165601
H46   H     H_    0.525772 0.679387 0.100277 0.200423
H47   H     H_    0.521205 0.955855 0.910197 0.311323
H48   H     H_    0.869225 0.036752 0.118614 0.332194
H49   H     H_    0.909115 0.949215 0.802920 0.343871
H50   H     H_    0.885832 0.852652 0.970793 0.168108
H51   H     H_    0.200012 0.215787 0.125325 0.180041
H52   H     H_    0.811216 0.302366 0.225768 0.324854
H53   H     H_    0.286214 0.245016 0.417411 0.319091
H54   H     H_    0.451736 0.262497 0.456331 0.179304
H55   H     H_    0.564155 0.212877 0.385314 0.175862
H56   H     H_    0.015026 0.983690 0.466494 0.128826
H57   H     H_    0.465677 0.049078 0.100354 0.346379
H58   H     H_    0.300255 0.033357 0.060029 0.209951
H59   H     H_    0.263089 0.842533 0.460809 0.327482
H60   H     H_    0.098312 0.135033 0.897645 0.324925
H61   H     H_    0.643012 0.318219 0.062209 0.334089
H62   H     H_    0.190126 0.326396 0.861493 0.173208
H63   H     H_    0.037996 0.972732 0.308195 0.121248
H64   H     H_    0.167273 0.030434 0.632712 0.137324
N1    N     N_R   0.947080 0.293830 0.002870 -0.075248
N2    N     N_R   0.153670 0.443180 0.946090 -0.074772
N3    N     N_R   0.002360 0.556820 0.208890 -0.068160
N4    N     N_R   0.210070 0.556820 0.002870 -0.079830
N5    N     N_R   0.945960 0.443180 0.152110 -0.077595
N6    N     N_R   0.151710 0.706170 0.208890 -0.106005
N7    N     N_R   0.004320 0.293830 0.946090 -0.084648
N8    N     N_R   0.789930 0.443180 0.997130 -0.074171
N9    N     N_R   0.054040 0.556820 0.847890 -0.062095
N10   N     N_R   0.848290 0.293830 0.791110 -0.053229
N11   N     N_R   0.995680 0.706170 0.053910 -0.063376
N12   N     N_R   0.052920 0.706170 0.997130 -0.109141
N13   N     N_R   0.791050 0.293830 0.847890 -0.054351
N14   N     N_R   0.846330 0.556820 0.053910 -0.063700
N15   N     N_R   0.997640 0.443180 0.791110 -0.050115
N16   N     N_R   0.208950 0.706170 0.152110 -0.109976
Ni1   Ni    Ni4+2 0.869690 0.369690 0.000000 0.292517
Ni2   Ni    Ni4+2 0.130310 0.630310 0.000000 0.260505
Ni3   Ni    Ni4+2 0.000970 0.369690 0.869780 0.244757
Ni4   Ni    Ni4+2 0.999030 0.630310 0.130220 0.219709
O1    O     O_3   0.174236 0.844283 0.982992 -0.780975
O2    O     O_3   0.483372 0.676026 0.759319 -0.709446
O3    O     O_3   0.474808 0.481341 0.697226 -0.700879
O4    O     O_3   0.489981 0.228262 0.632214 -0.793713
O5    O     O_3   0.853244 0.154664 0.367451 -0.733679
O6    O     O_3   0.918577 0.041230 0.632288 -0.655391
O7    O     O_3   0.365072 0.386764 0.073901 -0.726617
O8    O     O_3   0.361866 0.691534 0.019991 -0.708860
O9    O     O_3   0.592499 0.974249 0.963517 -0.678590
O10   O     O_3   0.793326 0.018154 0.081924 -0.678756
O11   O     O_3   0.839403 0.938885 0.756418 -0.697975
O12   O     O_3   0.573503 0.619598 0.375359 -0.686696
O13   O     O_3   0.831801 0.304190 0.169712 -0.740021
O14   O     O_3   0.242741 0.194879 0.337640 -0.754719
O15   O     O_3   0.507124 0.096150 0.180642 -0.709252
O16   O     O_3   0.193025 0.799825 0.393068 -0.760052
O17   O     O_3   0.082583 0.188857 0.884053 -0.755846
O18   O     O_3   0.658650 0.308930 0.001247 -0.754224
O19   O     O_3   0.798333 0.790633 0.501648 -0.648533
O20   O     O_3   0.953424 0.740040 0.522840 -0.675388
O21   O     O_3   0.357954 0.845619 0.169721 -0.691503
O22   O     O_3   0.680165 0.350662 0.329482 -0.736413
O23   O     O_3   0.521808 0.410788 0.298254 -0.681822
O24   O     O_3   0.110075 0.476004 0.384870 -0.744617
O25   O     O_3   0.285367 0.680532 0.668194 -0.740129

loop_
_geom_bond_atom_site_label_1
_geom_bond_atom_site_label_2
_ccdc_geom_bond_type
C25   C31   A    
C66   C68   A    
C63   C65   A    
C58   C62   S    
C6    C45   A    
C27   C29   A    
C38   H56   S    
C41   C42   A    
N14   Ni4   S    
C35   C36   A    
C4    O21   S    
C52   O13   S    
C37   H64   S    
C3    C6    A    
C36   H28   S    
C27   O3    S    
H21   O25   S    
N11   N12   A    
H17   O21   S    
C39   C41   A    
N9    Ni2   S    
C52   N5    A    
H19   O23   S    
C26   C27   A    
C29   C30   A    
C18   C24   A    
N1    N7    A    
C50   O6    S    
C36   C37   A    
C56   N9    A    
H15   O19   S    
C76   N7    A    
C42   C53   S    
C30   C31   A    
C43   H30   S    
N1    Ni1   S    
C57   C59   S    
C10   C17   A    
C23   C40   A    
H18   O22   S    
C63   O9    S    
C79   O14   S    
C60   C62   S    
C18   C19   A    
C73   C74   A    
C61   H46   S    
N7    Ni3   S    
C17   O12   S    
C75   C85   S    
C32   H63   S    
C83   C84   A    
N5    Ni1   S    
C68   C69   A    
C62   H6    S    
N3    Ni4   S    
C78   H12   S    
C51   H33   S    
N10   Ni3   S    
C9    C72   S    
C67   N10   A    
C86   N12   A    
C32   C38   A    
C21   O24   S    
N3    N5    A    
H14   O12   S    
C73   C84   S    
C25   O25   S    
N8    N14   A    
C47   C53   A    
C48   O5    S    
C14   O22   S    
C33   H27   S    
H31   O5    S    
C81   H55   S    
C54   H36   S    
H32   O6    S    
C58   H41   S    
C21   C22   A    
N16   Ni2   S    
H57   O15   S    
C62   H43   S    
N4    Ni2   S    
C18   H45   S    
C7    C56   A    
C39   O4    S    
C44   C46   A    
N8    Ni1   S    
C81   C82   A    
C54   C59   S    
N15   Ni3   S    
C23   C60   S    
C22   C34   S    
C74   H51   S    
C55   H37   S    
C68   O11   S    
C10   O19   S    
C74   C75   A    
C5    H34   S    
C86   O1    S    
N10   N13   A    
H60   O17   S    
H16   O20   S    
C70   H7    S    
C8    C41   S    
C72   C73   A    
H20   O24   S    
C69   H8    S    
C71   H50   S    
C5    C7    A    
H47   O9    S    
C82   O15   S    
C25   C26   A    
C80   H54   S    
C82   C83   A    
N9    N15   A    
C13   C24   S    
C30   H26   S    
C60   C61   S    
C51   C53   A    
N13   Ni1   S    
C43   C44   A    
C37   C38   A    
C9    C86   A    
C57   H44   S    
C47   C48   A    
C63   C70   A    
N6    N16   A    
C1    H9    S    
C50   C51   A    
C16   N2    A    
H52   O13   S    
C75   C77   A    
H38   O7    S    
C76   O17   S    
C3    N14   A    
C78   N11   A    
C39   C46   A    
C40   O8    S    
N11   Ni4   S    
C48   C49   A    
C54   H35   S    
N2    N4    A    
C2    H13   S    
C58   H40   S    
C16   C23   A    
C5    N15   A    
H22   O2    S    
C28   N3    A    
C13   C14   A    
N12   Ni2   S    
C1    C85   A    
C4    C12   A    
C42   C43   A    
H49   O11   S    
C71   C77   A    
H24   O3    S    
C15   C17   A    
C66   C77   S    
C54   C55   S    
C57   H5    S    
C28   C34   A    
C34   C52   A    
C6    C59   S    
C29   H25   S    
C2    C8    A    
C45   N8    A    
C49   H3    S    
C80   C81   A    
C2    N13   A    
C61   H39   S    
C45   O18   S    
C57   C61   S    
C65   O10   S    
H61   O18   S    
H29   O4    S    
C64   N6    A    
C7    C19   S    
H11   O1    S    
H59   O16   S    
C16   H62   S    
C11   O20   S    
C55   O7    S    
C47   H2    S    
C19   C20   A    
C58   C59   S    
C71   C72   A    
C12   C44   S    
C83   H58   S    
C32   C33   A    
N2    Ni3   S    
C11   C13   A    
C79   C84   A    
C3    H23   S    
C12   C64   A    
N6    Ni4   S    
C33   C35   A    
C4    N16   A    
C1    N1    A    
C22   C24   A    
C9    C78   A    
C65   C66   A    
C56   H10   S    
C69   C70   A    
C10   C11   A    
C26   O2    S    
C79   C80   A    
C15   O23   S    
H42   O8    S    
C20   C21   A    
C8    C67   A    
C49   C50   A    
C14   C15   A    
C28   H4    S    
H48   O10   S    
C55   C60   S    
C35   C46   S    
C76   C85   A    
C64   O16   S    
H53   O14   S    
C67   H1    S    
C40   N4    A    
C20   C31   S    
