data_mof_unit_16108.cif
_audit_creation_date              2012-12-10T17:31:13-0500
_audit_creation_method            fapswitch 2.2
_symmetry_space_group_name_H-M    P1
_symmetry_Int_Tables_number       1
_space_group_crystal_system       triclinic
_cell_length_a                    11.989137
_cell_length_b                    12.875061
_cell_length_c                    15.547266
_cell_angle_alpha                 86.902641
_cell_angle_beta                  116.521453
_cell_angle_gamma                 93.635742
_cell_volume                      2142.1317821

loop_
_atom_site_label
_atom_site_type_symbol
_atom_type_description
_atom_site_fract_x
_atom_site_fract_y
_atom_site_fract_z
_atom_type_partial_charge
C1    C     C_R   0.477550 0.299384 0.499425 0.866694
C2    C     C_R   0.665776 0.969554 0.538323 -0.229591
C3    C     C_R   0.346549 0.137728 0.470904 -0.220515
C4    C     C_R   0.654089 0.862385 0.530748 -0.208675
C5    C     C_R   0.570528 0.131889 0.524299 -0.281795
C6    C     C_R   0.430356 0.868218 0.478507 -0.277247
C7    C     C_R   0.559875 0.025493 0.516969 0.187866
C8    C     C_R   0.441181 0.974527 0.486456 0.182165
C9    C     C_R   0.002076 0.600685 0.411320 -0.337863
C10   C     C_R   0.997707 0.399012 0.588387 -0.328298
C11   C     C_R   0.123234 0.591209 0.420337 0.008910
C12   C     C_R   0.522484 0.700666 0.500615 0.879459
C13   C     C_R   0.876788 0.408866 0.579756 0.002153
C14   C     C_R   0.161140 0.455925 0.538158 -0.029559
C15   C     C_R   0.838446 0.543585 0.461306 -0.025632
C16   C     C_R   0.577630 0.492323 0.681025 0.916958
C17   C     C_R   0.422029 0.504461 0.319078 0.919067
C18   C     C_R   0.040125 0.463094 0.531987 0.083295
C19   C     C_R   0.959514 0.536464 0.467544 0.085349
C20   C     C_R   0.628181 0.483857 0.786442 -0.200432
C21   C     C_R   0.371428 0.507389 0.213878 -0.211872
C22   C     C_R   0.792920 0.500422 0.949806 -0.209639
C23   C     C_R   0.648348 0.498561 0.115650 -0.158764
C24   C     C_R   0.223447 0.560726 0.052771 -0.212711
C25   C     C_R   0.756669 0.500479 0.850591 0.128518
C26   C     C_R   0.256372 0.551687 0.151271 0.144805
C27   C     C_R   0.542152 0.461922 0.823946 0.380304
C28   C     C_R   0.447517 0.470644 0.175835 0.340991
C29   C     C_R   0.575120 0.485732 0.919246 -0.040738
C30   C     C_R   0.426316 0.500497 0.082234 -0.023907
C31   C     C_R   0.702939 0.495081 0.984253 0.069488
C32   C     C_R   0.307741 0.536328 0.018089 0.065835
C33   C     C_R   0.484036 0.499972 0.951168 0.070902
C34   C     C_R   0.361949 0.529081 0.886983 -0.170191
C35   C     C_R   0.519668 0.495808 0.050777 0.086382
C36   C     C_3   0.491144 0.301810 0.223642 0.103854
C37   C     C_3   0.593792 0.229799 0.289063 -0.311038
C38   C     C_3   0.543706 0.117266 0.284959 -0.967861
C39   C     C_3   0.423280 0.308745 0.791920 0.061493
C40   C     C_3   0.451707 0.244266 0.724715 -0.345439
C41   C     C_3   0.445056 0.127892 0.747139 -0.950299
C42   C     C_3   0.168393 0.590533 0.186456 -0.881228
C43   C     C_3   0.856251 0.517219 0.816490 -0.851502
C44   C     C_R   0.738623 0.501090 0.082389 -0.237159
C45   C     C_R   0.276311 0.549852 0.920591 -0.234677
C46   C     C_R   0.536551 0.812065 0.502056 -0.049398
C47   C     C_R   0.463992 0.188051 0.499306 -0.054913
C48   C     C_R   0.335153 0.030489 0.464581 -0.227629
H1    H     H_    0.836354 0.508310 0.133495 0.148404
H2    H     H_    0.334316 0.544992 0.811407 0.200631
H3    H     H_    0.338975 0.829248 0.454917 0.154967
H4    H     H_    0.661803 0.170963 0.547618 0.154938
H5    H     H_    0.736600 0.818972 0.549061 0.160037
H6    H     H_    0.263881 0.181176 0.451884 0.161899
H7    H     H_    0.243951 0.991611 0.441632 0.140642
H8    H     H_    0.756953 0.008458 0.561185 0.137726
H9    H     H_    0.775608 0.599774 0.411987 0.125194
H10   H     H_    0.223525 0.399310 0.586990 0.153446
H11   H     H_    0.452787 0.275577 0.148200 0.134695
H12   H     H_    0.185601 0.576931 0.870236 0.150398
H13   H     H_    0.415696 0.296295 0.247287 0.122865
H14   H     H_    0.669891 0.233913 0.266508 0.221285
H15   H     H_    0.633230 0.255932 0.364367 0.243609
H16   H     H_    0.467296 0.111335 0.307119 0.275952
H17   H     H_    0.619841 0.067371 0.334567 0.271345
H18   H     H_    0.507880 0.088341 0.210890 0.262047
H19   H     H_    0.327425 0.286426 0.782254 0.156649
H20   H     H_    0.487395 0.289335 0.868569 0.135158
H21   H     H_    0.382704 0.260368 0.649315 0.233320
H22   H     H_    0.546494 0.266575 0.731971 0.206484
H23   H     H_    0.844913 0.359141 0.623408 0.120533
H24   H     H_    0.514369 0.109372 0.822013 0.263503
H25   H     H_    0.466186 0.083782 0.697113 0.280083
H26   H     H_    0.350062 0.103073 0.738018 0.259589
H27   H     H_    0.134643 0.525102 0.219469 0.249274
H28   H     H_    0.216619 0.652134 0.239622 0.239998
H29   H     H_    0.085134 0.624820 0.126957 0.220643
H30   H     H_    0.838130 0.587783 0.768697 0.247823
H31   H     H_    0.950333 0.528568 0.877218 0.214013
H32   H     H_    0.858505 0.447962 0.777875 0.244293
H33   H     H_    0.155280 0.641325 0.377072 0.125782
H34   H     H_    0.942379 0.657936 0.360910 0.143168
H35   H     H_    0.057472 0.341789 0.638810 0.143476
H36   H     H_    0.890911 0.509459 0.999999 0.151500
H37   H     H_    0.134814 0.592224 0.003753 0.143127
H38   H     H_    0.681350 0.508082 0.191886 0.196236
N1    N     N_R   0.799120 0.480200 0.517090 -0.094105
N2    N     N_R   0.200880 0.519800 0.482910 -0.097197
O1    O     O_R   0.580150 0.341050 0.504560 -0.629785
O2    O     O_3   0.425829 0.416045 0.766949 -0.654377
O3    O     O_R   0.419850 0.658950 0.495440 -0.626704
O4    O     O_R   0.388090 0.353760 0.493600 -0.636208
O5    O     O_R   0.611910 0.646240 0.506400 -0.630445
O6    O     O_R   0.650890 0.490020 0.640860 -0.625601
O7    O     O_R   0.349110 0.509980 0.359140 -0.622786
O8    O     O_R   0.458830 0.502730 0.629890 -0.558938
O9    O     O_R   0.541170 0.497270 0.370110 -0.565079
O10   O     O_3   0.542490 0.404523 0.230338 -0.641539
Zn1   Zn    Zn3+2 0.628240 0.491510 0.507320 0.939423
Zn2   Zn    Zn3+2 0.371760 0.508490 0.492680 0.942693

loop_
_geom_bond_atom_site_label_1
_geom_bond_atom_site_label_2
_ccdc_geom_bond_type
C44   H1    S    
C48   H7    S    
C21   C26   A    
C45   H12   S    
C4    H5    S    
C27   C29   A    
C39   H20   S    
C14   C18   A    
C12   O3    A    
C2    C7    A    
C36   H11   S    
C40   H21   S    
C25   C43   S    
C8    C48   A    
C37   H14   S    
C7    C8    A    
C4    C46   A    
C11   H33   S    
C43   H30   S    
C15   C19   A    
C5    C47   A    
O4    Zn2   S    
C42   H27   S    
C40   H22   S    
C30   C35   A    
O1    Zn1   S    
C36   C37   S    
C24   C26   A    
C3    H6    S    
C20   C25   A    
C43   H31   S    
C29   C33   A    
C3    C48   A    
C27   O2    S    
C18   C19   A    
C32   C45   A    
O9    Zn1   S    
C41   H26   S    
C9    C19   A    
C38   H18   S    
C22   C25   A    
C5    H4    S    
C17   O7    A    
O3    Zn2   S    
C24   H37   S    
O5    Zn1   S    
C39   O2    S    
N1    Zn1   S    
C9    H34   S    
C15   H9    S    
C37   H15   S    
C38   H16   S    
C14   H10   S    
C16   O8    A    
C34   H2    S    
C22   C31   A    
C12   C46   S    
C31   C44   A    
C39   C40   S    
C5    C7    A    
O7    Zn2   S    
C1    C47   S    
C6    C8    A    
C13   H23   S    
C43   H32   S    
C23   H38   S    
C17   C21   S    
C23   C44   A    
C22   H36   S    
C2    C4    A    
C24   C32   A    
C37   C38   S    
C38   H17   S    
C11   N2    A    
C16   C20   S    
C13   N1    A    
C33   C34   A    
C34   C45   A    
C9    C11   A    
N2    Zn2   S    
C41   H24   S    
C40   C41   S    
C21   C28   A    
C1    O4    A    
C23   C35   A    
C6    H3    S    
C12   O5    A    
C10   H35   S    
C36   H13   S    
C26   C42   S    
C15   N1    A    
C28   O10   S    
C1    O1    A    
C6    C46   A    
C39   H19   S    
C10   C13   A    
C20   C27   A    
C42   H28   S    
C28   C30   A    
C14   N2    A    
C29   C31   A    
C2    H8    S    
C30   C32   A    
O6    Zn1   S    
C10   C18   A    
O8    Zn2   S    
C3    C47   A    
C33   C35   A    
C41   H25   S    
C42   H29   S    
C36   O10   S    
C17   O9    A    
C16   O6    A    
