data_mof_unit_12310.cif
_audit_creation_date              2012-12-10T17:02:56-0500
_audit_creation_method            fapswitch 2.2
_symmetry_space_group_name_H-M    P1
_symmetry_Int_Tables_number       1
_space_group_crystal_system       triclinic
_cell_length_a                    9.813123
_cell_length_b                    10.960985
_cell_length_c                    13.448071
_cell_angle_alpha                 93.858312
_cell_angle_beta                  81.859429
_cell_angle_gamma                 110.858228
_cell_volume                      1337.85483559

loop_
_atom_site_label
_atom_site_type_symbol
_atom_type_description
_atom_site_fract_x
_atom_site_fract_y
_atom_site_fract_z
_atom_type_partial_charge
C1    C     C_R   0.557096 0.746249 0.504558 0.752288
C2    C     C_R   0.437812 0.501566 0.971905 0.077413
C3    C     C_R   0.479035 0.540782 0.870254 0.087284
C4    C     C_R   0.547671 0.538277 0.038064 0.071165
C5    C     C_R   0.692520 0.622373 0.004297 0.158356
C6    C     C_R   0.725815 0.671630 0.907617 -0.226125
C7    C     C_R   0.620357 0.633151 0.842091 -0.186623
C8    C     C_R   0.518356 0.493736 0.136915 -0.220856
C9    C     C_R   0.768181 0.617409 0.167572 -0.159936
C10   C     C_R   0.376864 0.487687 0.799821 -0.102612
C11   C     C_2   0.591496 0.886843 0.497255 0.259604
C12   C     C_R   0.423765 0.493800 0.690623 0.770576
C13   C     C_2   0.497369 0.929646 0.459171 -0.298965
C14   C     C_2   0.417835 0.114744 0.483668 -0.417270
C15   C     C_2   0.524332 0.067905 0.447373 0.478889
C16   C     C_2   0.921643 0.491336 0.489551 0.015378
C17   C     C_2   0.074741 0.508287 0.507805 0.056663
C18   C     C_R   0.445536 0.254486 0.489730 0.904964
C19   C     C_R   0.577766 0.513423 0.309799 0.811687
C20   C     C_R   0.801957 0.659143 0.068603 -0.174469
C21   C     C_R   0.625065 0.537319 0.202551 -0.048565
C22   C     C_R   0.230027 0.415055 0.834000 -0.186365
C23   C     C_R   0.185796 0.388473 0.935237 -0.129167
C24   C     C_R   0.288122 0.428436 0.003380 -0.165208
Cu1   Cu    Cu3+1 0.362000 0.479240 0.482530 1.041199
Cu2   Cu    Cu3+1 0.638000 0.520760 0.517470 1.001963
H1    H     H_    0.851841 0.652359 0.217698 0.168221
H2    H     H_    0.393234 0.861298 0.439285 0.138917
H3    H     H_    0.310665 0.049216 0.515657 0.138355
H4    H     H_    0.121319 0.574628 0.567809 0.088982
H5    H     H_    0.871830 0.426951 0.429900 0.245133
H6    H     H_    0.893430 0.613427 0.600369 0.192467
H7    H     H_    0.834117 0.740484 0.882394 0.151297
H8    H     H_    0.912596 0.723400 0.043143 0.145456
H9    H     H_    0.412193 0.426334 0.165901 0.172214
H10   H     H_    0.149608 0.375351 0.781925 0.170638
H11   H     H_    0.245410 0.402771 0.080385 0.163288
H12   H     H_    0.071952 0.332740 0.960748 0.164279
H13   H     H_    0.650651 0.679653 0.769938 0.176977
N1    N     N_2   0.845330 0.551960 0.543750 -0.312636
N2    N     N_2   0.154690 0.448120 0.456210 0.009958
O1    O     O_R   0.426290 0.668220 0.490680 -0.619978
O2    O     O_R   0.659360 0.703290 0.520190 -0.536825
O3    O     O_R   0.326580 0.473880 0.629020 -0.592349
O4    O     O_R   0.559660 0.508940 0.658530 -0.576183
O5    O     O_R   0.340640 0.296710 0.479810 -0.527909
O6    O     O_R   0.573710 0.331780 0.509320 -0.532406
O7    O     O_R   0.440340 0.491060 0.341470 -0.547404
O8    O     O_R   0.673420 0.526120 0.370980 -0.579404
Cl1   Cl    Cl    0.755693 0.994435 0.539648 -0.518877
Cl2   Cl    Cl    0.089265 0.343530 0.357312 -0.444817
Cl3   Cl    Cl    0.689253 0.163636 0.375609 -0.508660

loop_
_geom_bond_atom_site_label_1
_geom_bond_atom_site_label_2
_ccdc_geom_bond_type
Cu1   O1    S    
C2    C4    A    
C23   C24   A    
C13   H2    S    
C6    C7    A    
C12   O4    A    
C23   H12   S    
C22   H10   S    
C14   C18   S    
C9    C20   A    
C1    C11   S    
C6    H7    S    
C4    C8    A    
C20   H8    S    
C18   O6    A    
C13   C15   S    
C24   H11   S    
C12   O3    A    
C3    C10   A    
C15   Cl3   S    
C10   C22   A    
C16   H5    S    
C17   H4    S    
C11   C13   D    
Cu1   O7    S    
Cu2   N1    S    
C10   C12   S    
Cu2   O6    S    
C16   N1    D    
C18   O5    A    
Cu1   O3    S    
C19   C21   S    
N2    Cl2   S    
Cu2   O2    S    
C2    C3    A    
C3    C7    A    
H6    N1    S    
C2    C24   A    
C5    C6    A    
C5    C20   A    
C17   N2    D    
C14   H3    S    
C9    C21   A    
C1    O1    A    
C9    H1    S    
Cu2   O8    S    
Cu1   N2    S    
C11   Cl1   S    
C19   O8    A    
C14   C15   D    
C16   C17   S    
C7    H13   S    
Cu2   O4    S    
Cu1   Cu2   S    
C19   O7    A    
Cu1   O5    S    
C1    O2    A    
C22   C23   A    
C4    C5    A    
C8    H9    S    
C8    C21   A    
