data_mof_unit_59179.cif
_audit_creation_date              2012-12-10T18:13:24-0500
_audit_creation_method            fapswitch 2.2
_symmetry_space_group_name_H-M    P1
_symmetry_Int_Tables_number       1
_space_group_crystal_system       triclinic
_cell_length_a                    12.679976
_cell_length_b                    13.066929
_cell_length_c                    16.649605
_cell_angle_alpha                 88.921499
_cell_angle_beta                  98.243507
_cell_angle_gamma                 98.613662
_cell_volume                      2699.33818613

loop_
_atom_site_label
_atom_site_type_symbol
_atom_type_description
_atom_site_fract_x
_atom_site_fract_y
_atom_site_fract_z
_atom_type_partial_charge
C1    C     C_R   0.560277 0.691335 0.513039 0.845424
C2    C     C_R   0.484561 0.505562 0.737029 -0.123826
C3    C     C_R   0.288463 0.056007 0.550323 -0.286359
C4    C     C_R   0.509621 0.489596 0.349129 0.917710
C5    C     C_R   0.401139 0.197004 0.494180 -0.281110
C6    C     C_R   0.704351 0.842657 0.514416 -0.187089
C7    C     C_R   0.735454 0.949176 0.513777 -0.198962
C8    C     C_R   0.659652 0.014722 0.518783 -0.091489
C9    C     C_R   0.551970 0.973825 0.527540 0.111425
C10   C     C_R   0.528360 0.868098 0.545066 -0.000160
C11   C     C_R   0.467624 0.034231 0.521884 -0.107430
C12   C     C_R   0.597352 0.451711 0.232212 -0.367286
C13   C     C_R   0.370817 0.994978 0.553219 -0.086528
C14   C     C_R   0.357014 0.894747 0.585535 0.539847
C15   C     C_R   0.435677 0.831978 0.580940 -0.275405
C16   C     C_R   0.439201 0.308144 0.491281 0.915909
C17   C     C_R   0.474513 0.130661 0.482845 0.357590
C18   C     C_R   0.302377 0.156722 0.519983 0.443000
C19   C     C_R   0.599312 0.801450 0.527159 -0.073411
C20   C     C_R   0.893489 0.334721 0.604009 -0.327429
C21   C     C_R   0.210536 0.624484 0.399153 0.680283
C22   C     C_R   0.105268 0.631290 0.364104 -0.393136
C23   C     C_R   0.396762 0.440594 0.850756 -0.078074
C24   C     C_R   0.021009 0.574123 0.397225 -0.232401
C25   C     C_R   0.039097 0.519502 0.470145 0.046928
C26   C     C_R   0.145362 0.502104 0.495811 0.071792
C27   C     C_R   0.955296 0.471690 0.512332 -0.086259
C28   C     C_R   0.487964 0.503925 0.650654 0.883042
C29   C     C_R   0.976686 0.391292 0.568105 0.097746
C30   C     C_R   0.081613 0.370111 0.588912 -0.228501
C31   C     C_R   0.165365 0.427154 0.554845 -0.110092
C32   C     C_R   0.853002 0.504390 0.505643 0.592604
C33   C     C_R   0.790941 0.361167 0.587201 -0.072516
C34   C     C_R   0.394757 0.452022 0.767582 -0.313362
C35   C     C_R   0.502262 0.452139 0.265697 -0.255597
C36   C     C_R   0.402904 0.405046 0.222669 0.327616
C37   C     C_R   0.401636 0.356588 0.147732 0.299138
C38   C     C_R   0.495564 0.369252 0.111388 -0.202425
C39   C     C_R   0.595130 0.409667 0.155738 0.455058
C40   C     C_3   0.245870 0.473224 0.213792 0.182924
C41   C     C_3   0.128022 0.441805 0.223688 -0.853739
C42   C     C_3   0.136844 0.185269 0.457172 0.068176
C43   C     C_3   0.158440 0.239449 0.377965 -0.786904
C44   C     C_3   0.197555 0.785926 0.578028 -0.305453
C45   C     C_R   0.574917 0.552667 0.789634 0.514838
C46   C     C_3   0.508232 0.159788 0.352800 0.117585
C47   C     C_3   0.597409 0.187289 0.300733 -0.837240
C48   C     C_3   0.793485 0.621206 0.407940 -0.259250
C49   C     C_3   0.296204 0.780403 0.358040 -0.368312
C50   C     C_3   0.753821 0.565880 0.777789 -0.252785
C51   C     C_3   0.755956 0.353411 0.154685 -0.344998
C52   C     C_3   0.531489 0.226689 0.973658 0.115851
C53   C     C_3   0.518942 0.133584 0.029718 -0.878421
C54   C     C_3   0.279264 0.210321 0.135048 0.162280
C55   C     C_3   0.176917 0.156868 0.084862 -0.823876
C56   C     C_R   0.574011 0.544613 0.873216 -0.273057
C57   C     C_R   0.487705 0.484685 0.903242 0.108170
C58   C     C_2   0.484201 0.373239 0.022937 0.617473
C59   C     C_2   0.495871 0.468082 0.990079 -0.303966
H1    H     H_    0.641963 0.581960 0.914723 0.159453
H2    H     H_    0.907660 0.270807 0.644561 0.159670
H3    H     H_    0.945119 0.562460 0.359391 0.161400
H4    H     H_    0.088752 0.673008 0.308061 0.164556
H5    H     H_    0.244207 0.407403 0.572451 0.227203
H6    H     H_    0.523504 0.535715 0.028907 0.134982
H7    H     H_    0.328381 0.396533 0.874121 0.181935
H8    H     H_    0.673533 0.487648 0.263621 0.178518
H9    H     H_    0.250165 0.477984 0.147389 0.150155
H10   H     H_    0.274357 0.551614 0.240008 0.181132
H11   H     H_    0.118329 0.440925 0.288763 0.254580
H12   H     H_    0.213647 0.026865 0.572850 0.201612
H13   H     H_    0.079007 0.497888 0.191752 0.207743
H14   H     H_    0.098262 0.363461 0.197555 0.257091
H15   H     H_    0.061927 0.208000 0.473896 0.173558
H16   H     H_    0.119929 0.099788 0.447639 0.115831
H17   H     H_    0.228783 0.213443 0.356074 0.234279
H18   H     H_    0.086905 0.221059 0.330898 0.196885
H19   H     H_    0.175131 0.324329 0.387831 0.289967
H20   H     H_    0.234418 0.715721 0.569266 0.170214
H21   H     H_    0.127065 0.761414 0.610052 0.209818
H22   H     H_    0.166971 0.818660 0.518544 0.146111
H23   H     H_    0.762150 0.793011 0.504343 0.193567
H24   H     H_    0.451580 0.217463 0.340463 0.124789
H25   H     H_    0.464766 0.081175 0.334846 0.122072
H26   H     H_    0.652276 0.127970 0.307953 0.248934
H27   H     H_    0.561743 0.190625 0.236111 0.187221
H28   H     H_    0.644420 0.263951 0.319156 0.268889
H29   H     H_    0.717602 0.652866 0.406664 0.192857
H30   H     H_    0.777944 0.549885 0.370637 0.126453
H31   H     H_    0.845213 0.682130 0.378202 0.149161
H32   H     H_    0.237926 0.798009 0.305086 0.152810
H33   H     H_    0.377217 0.818749 0.347539 0.197198
H34   H     H_    0.687968 0.096883 0.519266 0.188208
H35   H     H_    0.278583 0.814326 0.414516 0.153340
H36   H     H_    0.739323 0.481785 0.762529 0.152617
H37   H     H_    0.787937 0.578038 0.842758 0.148455
H38   H     H_    0.815189 0.603636 0.741151 0.200100
H39   H     H_    0.826686 0.359305 0.121715 0.193119
H40   H     H_    0.715015 0.271761 0.149518 0.164663
H41   H     H_    0.786702 0.373701 0.219248 0.166082
H42   H     H_    0.614028 0.271735 0.988317 0.141584
H43   H     H_    0.525605 0.197584 0.910697 0.166711
H44   H     H_    0.437907 0.087245 0.013980 0.269004
H45   H     H_    0.817390 0.981026 0.506467 0.143577
H46   H     H_    0.581212 0.084135 0.023200 0.216964
H47   H     H_    0.529105 0.159573 0.093659 0.232113
H48   H     H_    0.264584 0.212886 0.199280 0.149871
H49   H     H_    0.344745 0.163279 0.131194 0.129481
H50   H     H_    0.189384 0.151704 0.020459 0.272148
H51   H     H_    0.155517 0.077508 0.108374 0.193789
H52   H     H_    0.109515 0.201186 0.088506 0.248411
H53   H     H_    0.425188 0.755711 0.607819 0.183569
H54   H     H_    0.724973 0.316851 0.613112 0.156626
H55   H     H_    0.325415 0.415219 0.727112 0.167008
H56   H     H_    0.099290 0.310059 0.632417 0.166832
N1    N     N_R   0.774070 0.445420 0.541180 -0.132258
N2    N     N_R   0.226730 0.554050 0.459240 -0.176191
O1    O     O_R   0.631480 0.627510 0.519670 -0.576521
O2    O     O_3   0.222047 0.217194 0.520579 -0.620580
O3    O     O_3   0.270087 0.860756 0.625969 -0.606952
O4    O     O_3   0.554544 0.161959 0.435197 -0.605397
O5    O     O_3   0.843599 0.607573 0.488135 -0.612270
O6    O     O_3   0.298259 0.672884 0.364951 -0.582554
O7    O     O_3   0.659641 0.612077 0.758421 -0.604369
O8    O     O_3   0.687391 0.422384 0.118944 -0.610111
O9    O     O_3   0.446848 0.285400 0.975882 -0.604917
O10   O     O_3   0.305396 0.310930 0.104344 -0.577666
O11   O     O_R   0.455770 0.662400 0.493360 -0.578970
O12   O     O_R   0.598240 0.480510 0.398910 -0.639765
O13   O     O_R   0.422540 0.515400 0.372600 -0.530099
O14   O     O_R   0.544230 0.337600 0.506640 -0.584344
O15   O     O_R   0.368520 0.372490 0.480330 -0.591506
O16   O     O_R   0.577460 0.484600 0.627400 -0.591184
O17   O     O_R   0.401760 0.519490 0.601090 -0.658568
O18   O     O_3   0.307674 0.401410 0.254981 -0.603481
Zn1   Zn    Zn3+2 0.617320 0.476700 0.517570 0.978605
Zn2   Zn    Zn3+2 0.382680 0.523300 0.482430 0.978621

loop_
_geom_bond_atom_site_label_1
_geom_bond_atom_site_label_2
_ccdc_geom_bond_type
C39   O8    S    
C27   C29   A    
C35   C36   A    
C26   N2    A    
O17   Zn2   S    
C7    C8    A    
C43   H19   S    
C6    C19   A    
C52   H43   S    
C42   H16   S    
C29   C30   A    
C54   H48   S    
C28   O17   A    
C47   H26   S    
C23   H7    S    
C36   C37   A    
C10   C15   A    
C48   O5    S    
C30   C31   A    
C50   H36   S    
C57   C59   S    
C5    C17   A    
C44   O3    S    
C49   O6    S    
C51   H41   S    
C56   C57   A    
C3    C18   A    
C46   C47   S    
C20   H2    S    
C16   O14   A    
C5    C16   S    
C21   N2    A    
C22   H4    S    
C38   C58   S    
C53   H47   S    
C45   C56   A    
C8    C9    A    
C50   H38   S    
O16   Zn1   S    
C1    O11   A    
C46   O4    S    
C49   H35   S    
C9    C10   A    
C3    C13   A    
C20   C29   A    
C2    C34   A    
C51   H39   S    
C4    C35   S    
C26   C31   A    
C2    C45   A    
C48   H31   S    
C13   C14   A    
C55   H50   S    
C49   H32   S    
C16   O15   A    
C31   H5    S    
C12   H8    S    
C30   H56   S    
C45   O7    S    
C51   H40   S    
C34   H55   S    
C40   O18   S    
C52   H42   S    
C42   H15   S    
C1    C19   S    
C40   H10   S    
C28   O16   A    
C51   O8    S    
C47   H27   S    
C32   O5    S    
C44   H21   S    
C50   O7    S    
C24   C25   A    
C44   H22   S    
C52   O9    S    
C4    O13   A    
C5    C18   A    
C25   C26   A    
C56   H1    S    
C47   H28   S    
C21   O6    S    
C3    H12   S    
O11   Zn2   S    
C37   C38   A    
O12   Zn1   S    
C10   C19   A    
C23   C34   A    
C48   H29   S    
C32   N1    A    
C12   C35   A    
C9    C11   A    
C4    O12   A    
C41   H13   S    
C46   H25   S    
C20   C33   A    
C17   O4    S    
C40   C41   S    
C58   O9    S    
C14   O3    S    
C48   H30   S    
C55   H51   S    
C22   C24   A    
C43   H18   S    
C42   C43   S    
C49   H33   S    
C36   O18   S    
O1    Zn1   S    
C52   C53   S    
C43   H17   S    
C23   C57   A    
C54   C55   S    
C11   C17   A    
C33   N1    A    
C24   H3    S    
C55   H52   S    
C27   C32   A    
C15   H53   S    
C44   H20   S    
N2    Zn2   S    
C8    H34   S    
C6    H23   S    
C6    C7    A    
N1    Zn1   S    
C25   C27   A    
C54   O10   S    
C33   H54   S    
C54   H49   S    
C7    H45   S    
O14   Zn1   S    
C12   C39   A    
C58   C59   D    
C59   H6    S    
C11   C13   A    
C50   H37   S    
C38   C39   A    
C53   H44   S    
C1    O1    A    
C42   O2    S    
C41   H14   S    
C46   H24   S    
C53   H46   S    
C40   H9    S    
C14   C15   A    
C2    C28   S    
O15   Zn2   S    
C21   C22   A    
O13   Zn2   S    
C18   O2    S    
C41   H11   S    
C37   O10   S    
