data_mof_unit_25744.cif
_audit_creation_date              2012-12-11T14:36:27-0500
_audit_creation_method            fapswitch 2.2
_symmetry_space_group_name_H-M    P1
_symmetry_Int_Tables_number       1
_space_group_crystal_system       triclinic
_cell_length_a                    13.470898
_cell_length_b                    13.489338
_cell_length_c                    27.505357
_cell_angle_alpha                 90.841909
_cell_angle_beta                  90.055043
_cell_angle_gamma                 60.0258
_cell_volume                      4329.01688952

loop_
_atom_site_label
_atom_site_type_symbol
_atom_type_description
_atom_site_fract_x
_atom_site_fract_y
_atom_site_fract_z
_atom_type_partial_charge
C1    C     C_R   0.620168 0.101507 0.570230 0.544584
C2    C     C_1   0.648997 0.705881 0.658593 -0.058744
C3    C     C_3   0.089920 0.134720 0.738109 -0.101854
C4    C     C_R   0.599544 0.779786 0.568847 0.544409
C5    C     C_3   0.181665 0.060500 0.775998 -0.100382
C6    C     C_1   0.097001 0.201054 0.901793 -0.016495
C7    C     C_1   0.229692 0.138372 0.617666 -0.015962
C8    C     C_3   0.055239 0.242933 0.770020 -0.101502
C9    C     C_3   0.147413 0.168542 0.807060 0.052747
C10   C     C_3   0.144725 0.262987 0.743392 -0.099104
C11   C     C_3   0.179012 0.155060 0.712249 0.052616
C12   C     C_1   0.630774 0.732918 0.616556 -0.016049
C13   C     C_3   0.236430 0.188858 0.781132 -0.101930
C14   C     C_3   0.271216 0.080624 0.749265 -0.103027
C15   C     C_1   0.124766 0.181798 0.859547 -0.058911
C16   C     C_R   0.277749 0.121949 0.569733 0.545501
C17   C     C_1   0.201740 0.147377 0.659830 -0.058812
C18   C     C_3   0.628587 0.277456 0.740179 -0.101713
C19   C     C_3   0.554702 0.258789 0.778178 -0.099989
C20   C     C_1   0.691538 0.207620 0.902941 -0.015891
C21   C     C_1   0.635112 0.133850 0.618396 -0.015429
C22   C     C_3   0.736903 0.204930 0.771009 -0.101523
C23   C     C_3   0.699030 0.561485 0.767674 -0.101566
C24   C     C_3   0.662861 0.185994 0.808175 0.052844
C25   C     C_3   0.758607 0.095063 0.743313 -0.099206
C26   C     C_3   0.650539 0.167737 0.713252 0.052554
C27   C     C_3   0.684806 0.076344 0.781196 -0.102080
C28   C     C_R   0.623078 0.099208 0.431100 0.564307
C29   C     C_3   0.576463 0.148803 0.750394 -0.103110
C30   C     C_1   0.674642 0.196587 0.860692 -0.058689
C31   C     C_1   0.643408 0.152852 0.660714 -0.058824
C32   C     C_R   0.735141 0.705897 0.359315 -0.135484
C33   C     C_R   0.746563 0.689319 0.308915 0.015815
C34   C     C_3   0.679271 0.654816 0.805557 0.052748
C35   C     C_R   0.761054 0.667319 0.207126 0.016338
C36   C     C_R   0.849869 0.667754 0.233634 -0.129988
C37   C     C_R   0.842095 0.679959 0.284262 -0.131455
C38   C     C_R   0.771397 0.645670 0.157012 -0.136638
C39   C     C_R   0.683440 0.640061 0.131906 -0.005253
C40   C     C_R   0.602215 0.775415 0.430425 0.545681
C41   C     C_R   0.555641 0.703821 0.356716 -0.129045
C42   C     C_R   0.562446 0.693873 0.306594 0.013629
C43   C     C_R   0.657505 0.687894 0.282400 0.064463
C44   C     C_R   0.472251 0.696387 0.280284 -0.130080
C45   C     C_3   0.589584 0.649270 0.740905 -0.099218
C46   C     C_R   0.475511 0.694079 0.229849 -0.130145
C47   C     C_R   0.570969 0.684956 0.205481 0.013988
C48   C     C_R   0.662864 0.681049 0.231644 0.064264
C49   C     C_R   0.579539 0.670888 0.155496 -0.129203
C50   C     C_R   0.636609 0.719160 0.382798 -0.003154
C51   C     C_R   0.216632 0.054700 0.357918 -0.134357
C52   C     C_R   0.277441 0.120707 0.431217 0.547845
C53   C     C_R   0.188572 0.069406 0.308588 0.014156
C54   C     C_R   0.147775 0.096114 0.208069 0.015820
C55   C     C_R   0.172370 0.993348 0.230250 -0.126538
C56   C     C_3   0.662957 0.684256 0.710909 0.052706
C57   C     C_R   0.193602 0.979741 0.280162 -0.126586
C58   C     C_R   0.124176 0.111986 0.158330 -0.133590
C59   C     C_R   0.098421 0.216119 0.137057 -0.002763
C60   C     C_R   0.177395 0.251152 0.364159 -0.129150
C61   C     C_R   0.153254 0.265820 0.314927 0.013512
C62   C     C_R   0.160801 0.174073 0.286732 0.062645
C63   C     C_R   0.128320 0.368702 0.293027 -0.126183
C64   C     C_3   0.772281 0.596860 0.736904 -0.101546
C65   C     C_R   0.113443 0.379949 0.243030 -0.124875
C66   C     C_R   0.120749 0.289409 0.214698 0.012139
C67   C     C_3   0.570036 0.742147 0.779504 -0.102013
C68   C     C_R   0.143139 0.186411 0.236476 0.062463
C69   C     C_R   0.101926 0.302117 0.165088 -0.127603
C70   C     C_R   0.216393 0.143877 0.385088 -0.004641
C71   C     C_R   0.564234 0.233707 0.362035 -0.164014
C72   C     C_R   0.569678 0.251677 0.312438 0.006245
C73   C     C_R   0.578324 0.283373 0.211972 0.016768
C74   C     C_R   0.495493 0.371841 0.241410 -0.125086
C75   C     C_R   0.489795 0.355280 0.291183 -0.121449
C76   C     C_3   0.752761 0.689779 0.775632 -0.100311
C77   C     C_R   0.590582 0.300635 0.162708 -0.135739
C78   C     C_3   0.643210 0.777599 0.748783 -0.103035
C79   C     C_R   0.677030 0.211447 0.134612 -0.005868
C80   C     C_R   0.740499 0.048700 0.354856 0.096964
C81   C     C_R   0.739472 0.060601 0.304286 0.021463
C82   C     C_R   0.654363 0.162944 0.283231 0.041338
C83   C     C_R   0.820411 0.971387 0.274203 -0.127696
C84   C     C_R   0.816993 0.983272 0.224209 -0.129712
C85   C     C_R   0.736704 0.086380 0.203534 0.014058
C86   C     C_R   0.655517 0.177261 0.232853 0.064277
C87   C     C_R   0.742420 0.102368 0.154308 -0.127022
C88   C     C_1   0.697239 0.607778 0.900108 -0.016635
C89   C     C_1   0.688244 0.633752 0.857931 -0.059222
C90   C     C_R   0.646431 0.130959 0.383152 0.031018
C91   C     C_R   0.049334 0.236097 0.949751 0.545480
C92   C     C_R   0.711630 0.562844 0.948144 0.544648
C93   C     C_R   0.722194 0.225370 0.950897 0.544353
C94   C     C_R   0.046852 0.246194 0.088854 0.547529
C95   C     C_R   0.707237 0.576207 0.086057 0.546828
C96   C     C_R   0.717798 0.233915 0.089110 0.548108
Cr1   Cr    Cr6+3 0.417550 0.169090 0.500530 1.019688
Cr2   Cr    Cr6+3 0.669180 0.913420 0.499920 1.036226
Cr3   Cr    Cr6+3 0.413260 0.917540 0.499520 1.020859
Cr4   Cr    Cr6+3 0.909170 0.177380 0.020380 1.020432
Cr5   Cr    Cr6+3 0.912710 0.429210 0.018220 1.019722
Cr6   Cr    Cr6+3 0.657170 0.432570 0.019030 1.020363
H1    H     H_    0.819499 0.706864 0.790504 0.103893
H2    H     H_    0.803279 0.227996 0.780056 0.099440
H3    H     H_    0.850965 0.624052 0.138568 0.118296
H4    H     H_    0.855194 0.536901 0.718934 0.103276
H5    H     H_    0.798691 0.715837 0.379632 0.117778
H6    H     H_    0.925310 0.658219 0.215249 0.091810
H7    H     H_    0.910915 0.681339 0.304117 0.090315
H8    H     H_    0.509916 0.670162 0.135943 0.128383
H9    H     H_    0.405082 0.695995 0.209959 0.095213
H10   H     H_    0.398547 0.701853 0.298700 0.092999
H11   H     H_    0.480337 0.711735 0.374715 0.128876
H12   H     H_    0.296908 0.210682 0.799232 0.103103
H13   H     H_    0.121345 0.045588 0.136715 0.118481
H14   H     H_    0.246038 0.971876 0.374117 0.123792
H15   H     H_    0.175981 0.923357 0.208973 0.099736
H16   H     H_    0.620170 0.866858 0.740423 0.100406
H17   H     H_    0.081576 0.383105 0.149108 0.129804
H18   H     H_    0.095794 0.459518 0.226537 0.098467
H19   H     H_    0.122951 0.439412 0.314389 0.100051
H20   H     H_    0.175179 0.320867 0.385218 0.128718
H21   H     H_    0.538754 0.384760 0.147352 0.122917
H22   H     H_    0.493836 0.298029 0.383847 0.123574
H23   H     H_    0.129066 0.346400 0.729471 0.104178
H24   H     H_    0.435541 0.453765 0.226006 0.101563
H25   H     H_    0.424255 0.424154 0.313199 0.102622
H26   H     H_    0.807142 0.032250 0.132423 0.129341
H27   H     H_    0.487064 0.802102 0.797438 0.103140
H28   H     H_    0.880253 0.913251 0.201869 0.101198
H29   H     H_    0.886237 0.891171 0.288661 0.101747
H30   H     H_    0.522803 0.632159 0.726099 0.104229
H31   H     H_    0.721979 0.472249 0.776026 0.098630
H32   H     H_    0.197282 0.977169 0.789992 0.103946
H33   H     H_    0.029438 0.112970 0.719967 0.103187
H34   H     H_    0.966020 0.310058 0.779123 0.099487
H35   H     H_    0.360450 0.013589 0.740130 0.100701
H36   H     H_    0.214444 0.899071 0.296484 0.097844
H37   H     H_    0.838013 0.877074 0.365515 0.221736
H38   H     H_    0.911221 0.950198 0.368080 0.219768
H39   H     H_    0.470770 0.325751 0.793100 0.104201
H40   H     H_    0.605957 0.359883 0.722863 0.102583
H41   H     H_    0.510171 0.125641 0.741313 0.100452
H42   H     H_    0.707502 0.993858 0.798475 0.102956
H43   H     H_    0.842608 0.028070 0.728451 0.104314
N1    N     N_3   0.835005 0.952362 0.377578 -0.599310
O1    O     O_R   0.301710 0.195650 0.554160 -0.507856
O2    O     O_R   0.635520 0.542770 0.964420 -0.508193
O3    O     O_R   0.665950 0.325030 0.970100 -0.495188
O4    O     O_R   0.522390 0.158990 0.550460 -0.495839
O5    O     O_R   0.816620 0.158530 0.074540 -0.521261
O6    O     O_R   0.004460 0.188870 0.069750 -0.499225
O7    O     O_R   0.025800 0.341780 0.072300 -0.523128
O8    O     O_R   0.807650 0.528950 0.067500 -0.502351
O9    O     O_R   0.633420 0.550490 0.071810 -0.522751
O10   O     O_R   0.664000 0.332180 0.069640 -0.500302
O11   O     O_3   0.826350 0.346390 0.019210 -0.242832
O12   O     O_R   0.658900 0.818120 0.449760 -0.499735
O13   O     O_R   0.694390 0.003530 0.554040 -0.507011
O14   O     O_R   0.657700 0.819660 0.549320 -0.496195
O15   O     O_R   0.501930 0.803280 0.552920 -0.507574
O16   O     O_R   0.318170 0.023580 0.549580 -0.494116
O17   O     O_R   0.303010 0.193990 0.446760 -0.520482
O18   O     O_R   0.523600 0.157450 0.450900 -0.512555
O19   O     O_R   0.695690 0.001860 0.446640 -0.469076
O20   O     O_R   0.503220 0.801620 0.445520 -0.524286
O21   O     O_R   0.319370 0.022040 0.450020 -0.501745
O22   O     O_3   0.499990 0.000010 0.499990 -0.247648
O23   O     O_R   0.818720 0.150820 0.967160 -0.508669
O24   O     O_R   0.006410 0.181720 0.970200 -0.495405
O25   O     O_R   0.027890 0.334070 0.964920 -0.506758
O26   O     O_R   0.809600 0.521790 0.967960 -0.495709

loop_
_geom_bond_atom_site_label_1
_geom_bond_atom_site_label_2
_ccdc_geom_bond_type
C66   C68   A    
C20   C93   S    
C63   C65   A    
H37   N1    S    
C1    C21   S    
C23   C45   S    
C8    H34   S    
C41   C42   A    
C54   C55   A    
C93   O3    A    
C35   C36   A    
C18   C26   S    
C24   C27   S    
C2    C12   T    
C79   C87   A    
C81   C82   A    
C22   H2    S    
C47   C49   A    
C20   C30   T    
C85   C86   A    
Cr4   O6    S    
C5    C9    S    
C21   C31   T    
C93   O23   A    
C16   O1    A    
C40   O12   A    
C36   C37   A    
C78   H16   S    
C76   C78   S    
C52   O21   A    
C55   H15   S    
C38   C39   A    
C11   C14   S    
C66   C69   A    
C54   C68   A    
C94   O6    A    
C6    C91   S    
C29   H41   S    
C56   C78   S    
C27   C29   S    
Cr5   O26   S    
C18   C19   S    
C73   C74   A    
C61   C63   A    
C9    C13   S    
Cr6   O2    S    
C6    C15   T    
Cr3   O15   S    
Cr4   O11   S    
Cr2   O12   S    
C45   C56   S    
C8    C9    S    
Cr1   O17   S    
C22   C25   S    
C45   C67   S    
Cr1   O4    S    
C56   C64   S    
C26   C29   S    
C59   C94   S    
Cr5   O7    S    
C4    C12   S    
C10   H23   S    
C43   C48   A    
C37   H7    S    
C13   H12   S    
Cr3   O20   S    
C88   C89   T    
C23   C34   S    
C76   H1    S    
C80   N1    S    
Cr5   O11   S    
C26   C31   S    
C19   H39   S    
C13   C14   S    
Cr1   O1    S    
C67   H27   S    
C67   C78   S    
C42   C44   A    
C72   C75   A    
C35   C48   A    
Cr6   O11   S    
C87   H26   S    
C63   H19   S    
C44   C46   A    
Cr3   O21   S    
C85   C87   A    
Cr4   O5    S    
C5    H32   S    
C74   C75   A    
C23   H31   S    
Cr4   O24   S    
C33   C43   A    
C88   C92   S    
C71   H22   S    
C1    O13   A    
C35   C38   A    
C3    C11   S    
C84   C85   A    
C3    C8    S    
H38   N1    S    
C53   C57   A    
Cr6   O3    S    
C7    C17   T    
C58   C59   A    
C82   C86   A    
C96   O5    A    
C69   H17   S    
C33   C37   A    
C60   C61   A    
C51   C53   A    
C83   H29   S    
C77   H21   S    
Cr3   O16   S    
C53   C62   A    
C47   C48   A    
C14   H35   S    
C60   C70   A    
Cr1   O18   S    
C39   C95   S    
C27   H42   S    
C64   C76   S    
C77   C79   A    
C1    O4    A    
Cr2   O13   S    
C60   H20   S    
C32   C50   A    
C5    C14   S    
C28   O19   A    
C59   C69   A    
C44   H10   S    
C23   C64   S    
C51   C70   A    
Cr2   O14   S    
C74   H24   S    
C55   C57   A    
C58   H13   S    
C72   C82   A    
C22   C24   S    
C83   C84   A    
C42   C43   A    
C19   C29   S    
Cr6   O10   S    
C41   C50   A    
C28   O18   A    
Cr3   O22   S    
C54   C58   A    
C46   C47   A    
C11   C17   S    
C18   H40   S    
C91   O24   A    
C39   C49   A    
Cr4   O23   S    
C18   C22   S    
C40   O20   A    
C7    C16   S    
C41   H11   S    
C80   C81   A    
C3    C5    S    
C10   C13   S    
C34   C67   S    
C81   C83   A    
C28   C90   S    
C64   H4    S    
C91   O25   A    
C25   C27   S    
Cr1   O22   S    
C51   H14   S    
C62   C68   A    
C95   O8    A    
C16   O16   A    
C32   C33   A    
C38   H3    S    
C19   C24   S    
C25   C26   S    
C34   C89   S    
C71   C72   A    
C2    C56   S    
C4    O14   A    
C92   O2    A    
C32   H5    S    
C96   O10   A    
C71   C90   A    
Cr5   O8    S    
C92   O26   A    
C94   O7    A    
C40   C50   S    
C84   H28   S    
C65   H18   S    
C57   H36   S    
Cr5   O25   S    
C3    H33   S    
C95   O9    A    
C80   C90   A    
C61   C62   A    
C24   C30   S    
C73   C86   A    
Cr2   O19   S    
C52   C70   S    
C10   C11   S    
C52   O17   A    
C79   C96   S    
C36   H6    S    
C45   H30   S    
C8    C10   S    
C65   C66   A    
C73   C77   A    
C4    O15   A    
C25   H43   S    
C46   H9    S    
Cr6   O9    S    
Cr2   O22   S    
C9    C15   S    
C34   C76   S    
C49   H8    S    
C75   H25   S    
