data_mof_unit_32898.cif
_audit_creation_date              2012-12-11T15:17:43-0500
_audit_creation_method            fapswitch 2.2
_symmetry_space_group_name_H-M    P1
_symmetry_Int_Tables_number       1
_space_group_crystal_system       triclinic
_cell_length_a                    7.093238
_cell_length_b                    19.141319
_cell_length_c                    22.934875
_cell_angle_alpha                 90.0
_cell_angle_beta                  89.998137
_cell_angle_gamma                 90.002438
_cell_volume                      3113.95813818

loop_
_atom_site_label
_atom_site_type_symbol
_atom_type_description
_atom_site_fract_x
_atom_site_fract_y
_atom_site_fract_z
_atom_type_partial_charge
O1    O     O_R   0.620180 0.810610 0.187990 -0.533974
O2    O     O_R   0.379820 0.189390 0.812010 -0.533975
O3    O     O_R   0.379820 0.189390 0.687990 -0.533987
O4    O     O_R   0.620180 0.810610 0.312010 -0.533987
O5    O     O_R   0.120180 0.689390 0.312010 -0.533985
O6    O     O_R   0.879820 0.310610 0.687990 -0.533986
O7    O     O_R   0.879820 0.310610 0.812010 -0.533970
O8    O     O_R   0.120180 0.689390 0.187990 -0.533970
O9    O     O_R   0.290420 0.818570 0.311590 -0.538611
O10   O     O_R   0.709580 0.181430 0.688410 -0.538612
O11   O     O_R   0.709580 0.181430 0.811590 -0.538594
O12   O     O_R   0.290420 0.818570 0.188410 -0.538594
O13   O     O_R   0.790420 0.681430 0.188410 -0.538592
O14   O     O_R   0.209580 0.318570 0.811590 -0.538592
O15   O     O_R   0.209580 0.318570 0.688410 -0.538610
O16   O     O_R   0.790420 0.681430 0.311590 -0.538610
H1    H     H_    0.187828 0.587403 0.625959 0.119475
H2    H     H_    0.812189 0.412597 0.374042 0.119479
H3    H     H_    0.813677 0.412459 0.126103 0.119484
H4    H     H_    0.186315 0.587540 0.873899 0.119482
H5    H     H_    0.686518 0.912479 0.873914 0.119473
H6    H     H_    0.313479 0.087520 0.126084 0.119473
H7    H     H_    0.312099 0.087390 0.374048 0.119473
H8    H     H_    0.687897 0.912612 0.625950 0.119477
C1    C     C_R   0.458979 0.835480 0.331007 0.696350
C2    C     C_R   0.541021 0.164521 0.668992 0.696350
C3    C     C_R   0.541017 0.164520 0.831007 0.696385
C4    C     C_R   0.458982 0.835479 0.168992 0.696384
C5    C     C_R   0.958980 0.664519 0.168994 0.696378
C6    C     C_R   0.041021 0.335480 0.831007 0.696378
C7    C     C_R   0.041024 0.335481 0.668993 0.696346
C8    C     C_R   0.958975 0.664520 0.331008 0.696345
H9    H     H_    0.154836 0.470844 0.665830 0.099661
H10   H     H_    0.845193 0.529153 0.334167 0.099656
H11   H     H_    0.846250 0.529041 0.165942 0.099556
H12   H     H_    0.153732 0.470959 0.834058 0.099556
H13   H     H_    0.653967 0.029064 0.834077 0.099574
H14   H     H_    0.346056 0.970937 0.165923 0.099572
H15   H     H_    0.345111 0.970830 0.334177 0.099673
H16   H     H_    0.654894 0.029170 0.665823 0.099669
H17   H     H_    0.898831 0.309258 0.565316 0.105688
H18   H     H_    0.101134 0.690749 0.434689 0.105682
H19   H     H_    0.100112 0.690875 0.065208 0.105577
H20   H     H_    0.899914 0.309120 0.934796 0.105573
H21   H     H_    0.399668 0.190849 0.934778 0.105599
H22   H     H_    0.600291 0.809145 0.065216 0.105595
H23   H     H_    0.601236 0.809269 0.434677 0.105701
H24   H     H_    0.398764 0.190734 0.565320 0.105695
O17   O     O_3   0.453640 0.707610 0.250000 -0.369134
O18   O     O_3   0.546360 0.292390 0.750000 -0.369134
O19   O     O_3   0.953640 0.792390 0.250000 -0.369137
O20   O     O_3   0.046360 0.207610 0.750000 -0.369137
V1    V     V_3+5 0.178800 0.757860 0.250000 1.411951
V2    V     V_3+5 0.821200 0.242140 0.750000 1.411949
V3    V     V_3+5 0.678800 0.742140 0.250000 1.411959
V4    V     V_3+5 0.321200 0.257860 0.750000 1.411958
C9    C     C_R   0.952848 0.362048 0.566813 -0.220704
C10   C     C_R   0.047136 0.637956 0.433190 -0.220699
C11   C     C_R   0.046586 0.638022 0.066755 -0.220715
C12   C     C_R   0.953427 0.361974 0.933248 -0.220710
C13   C     C_R   0.453305 0.138009 0.933237 -0.220720
C14   C     C_R   0.546678 0.861988 0.066760 -0.220715
C15   C     C_R   0.547192 0.862053 0.433183 -0.220716
C16   C     C_R   0.452808 0.137949 0.566815 -0.220708
C17   C     C_R   0.031342 0.384563 0.619460 -0.059222
C18   C     C_R   0.968657 0.615438 0.380541 -0.059220
C19   C     C_R   0.968671 0.615438 0.119462 -0.059100
C20   C     C_R   0.031330 0.384560 0.880539 -0.059099
C21   C     C_R   0.531321 0.115439 0.880538 -0.059118
C22   C     C_R   0.468678 0.884560 0.119460 -0.059117
C23   C     C_R   0.468668 0.884562 0.380539 -0.059229
C24   C     C_R   0.531332 0.115439 0.619459 -0.059230
C25   C     C_R   0.096492 0.453362 0.624636 -0.207822
C26   C     C_R   0.903524 0.546637 0.375364 -0.207818
C27   C     C_R   0.904127 0.546571 0.124702 -0.207819
C28   C     C_R   0.095865 0.453428 0.875300 -0.207822
C29   C     C_R   0.595989 0.046585 0.875310 -0.207812
C30   C     C_R   0.404023 0.953415 0.124689 -0.207813
C31   C     C_R   0.403481 0.953354 0.375367 -0.207826
C32   C     C_R   0.596519 0.046646 0.624631 -0.207818
C33   C     C_R   0.079917 0.500191 0.577612 0.087997
C34   C     C_R   0.920094 0.499808 0.422388 0.087997
C35   C     C_R   0.920669 0.499750 0.077671 0.088054
C36   C     C_R   0.079329 0.500249 0.922331 0.088054
C37   C     C_R   0.579426 0.999761 0.922338 0.088044
C38   C     C_R   0.420580 0.000238 0.077661 0.088044
C39   C     C_R   0.420056 0.000185 0.422391 0.087994
C40   C     C_R   0.579943 0.999815 0.577608 0.087993
C41   C     C_R   0.006228 0.476635 0.523745 0.027960
C42   C     C_R   0.993775 0.523366 0.476257 0.027957
C43   C     C_R   0.993784 0.523365 0.023747 0.027957
C44   C     C_R   0.006218 0.476633 0.976255 0.027954
C45   C     C_R   0.506220 0.023365 0.976254 0.027959
C46   C     C_R   0.493782 0.976634 0.023744 0.027956
C47   C     C_R   0.493773 0.976634 0.476255 0.027962
C48   C     C_R   0.506224 0.023366 0.523744 0.027960
C49   C     C_R   0.945976 0.406275 0.517465 0.065662
C50   C     C_R   0.054019 0.593727 0.482537 0.065668
C51   C     C_R   0.053498 0.593779 0.017414 0.065711
C52   C     C_R   0.946509 0.406218 0.982588 0.065725
C53   C     C_R   0.446428 0.093770 0.982580 0.065697
C54   C     C_R   0.553564 0.906228 0.017418 0.065707
C55   C     C_R   0.554054 0.906280 0.482532 0.065660
C56   C     C_R   0.445945 0.093721 0.517467 0.065663
C57   C     C_R   0.134065 0.570336 0.584170 -0.201704
C58   C     C_R   0.865944 0.429664 0.415831 -0.201710
C59   C     C_R   0.867019 0.429561 0.084275 -0.201767
C60   C     C_R   0.132977 0.570438 0.915727 -0.201766
C61   C     C_R   0.633123 0.929577 0.915738 -0.201748
C62   C     C_R   0.366877 0.070421 0.084260 -0.201750
C63   C     C_R   0.365882 0.070326 0.415835 -0.201707
C64   C     C_R   0.634117 0.929675 0.584163 -0.201712
C65   C     C_R   0.117887 0.618259 0.537778 0.056396
C66   C     C_R   0.882109 0.381743 0.462224 0.056395
C67   C     C_R   0.883121 0.381650 0.037872 0.056329
C68   C     C_R   0.116882 0.618348 0.962131 0.056318
C69   C     C_R   0.616979 0.881663 0.962137 0.056326
C70   C     C_R   0.383012 0.118335 0.037860 0.056315
C71   C     C_R   0.382065 0.118250 0.462227 0.056396
C72   C     C_R   0.617934 0.881751 0.537772 0.056398
C73   C     C_3   0.164429 0.695525 0.546090 -0.357123
C74   C     C_3   0.170734 0.724078 0.608970 -0.312970
C75   C     C_3   0.177507 0.804157 0.608605 -0.780416
H25   H     H_    0.296341 0.823228 0.582055 0.246865
H26   H     H_    0.050383 0.826847 0.588260 0.231720
H27   H     H_    0.190999 0.824256 0.653823 0.209831
H28   H     H_    0.046460 0.707183 0.634327 0.204026
H29   H     H_    0.294182 0.703896 0.632924 0.195334
H30   H     H_    0.299203 0.706408 0.523633 0.167213
H31   H     H_    0.054106 0.726139 0.523627 0.176974
C76   C     C_3   0.835554 0.304477 0.453913 -0.357111
C77   C     C_3   0.829270 0.275922 0.391034 -0.313001
C78   C     C_3   0.822506 0.195842 0.391400 -0.780452
H32   H     H_    0.949612 0.173156 0.411761 0.231726
H33   H     H_    0.703645 0.176771 0.417934 0.246877
H34   H     H_    0.809085 0.175744 0.346181 0.209844
H35   H     H_    0.705829 0.296099 0.367076 0.195332
H36   H     H_    0.953547 0.292818 0.365681 0.204043
H37   H     H_    0.945860 0.273860 0.476382 0.176970
H38   H     H_    0.700767 0.293600 0.476365 0.167214
C79   C     C_3   0.836930 0.304362 0.046201 -0.356971
C80   C     C_3   0.830585 0.275819 0.109081 -0.313084
C81   C     C_3   0.823877 0.195739 0.108723 -0.780469
H39   H     H_    0.704994 0.176648 0.082203 0.246851
H40   H     H_    0.951002 0.173065 0.088360 0.231797
H41   H     H_    0.810485 0.175649 0.153946 0.209838
H42   H     H_    0.954830 0.292734 0.134442 0.203987
H43   H     H_    0.707093 0.295992 0.133020 0.195429
H44   H     H_    0.702259 0.293396 0.023721 0.167210
H45   H     H_    0.947418 0.273818 0.023757 0.176940
C82   C     C_3   0.163079 0.695635 0.953801 -0.356943
C83   C     C_3   0.169379 0.724180 0.890921 -0.313105
C84   C     C_3   0.176064 0.804262 0.891279 -0.780578
H46   H     H_    0.049003 0.826929 0.911684 0.231820
H47   H     H_    0.295026 0.823355 0.917756 0.246875
H48   H     H_    0.189267 0.824350 0.846054 0.209866
H49   H     H_    0.292855 0.704016 0.866973 0.195408
H50   H     H_    0.045122 0.707261 0.865571 0.204015
H51   H     H_    0.052610 0.726182 0.976254 0.176923
H52   H     H_    0.297768 0.706596 0.976272 0.167220
C85   C     C_3   0.663115 0.804373 0.953804 -0.356979
C86   C     C_3   0.669412 0.775833 0.890923 -0.313062
C87   C     C_3   0.676058 0.695752 0.891275 -0.780496
H53   H     H_    0.794975 0.676650 0.917769 0.246856
H54   H     H_    0.548956 0.673087 0.911661 0.231812
H55   H     H_    0.689340 0.675665 0.846049 0.209839
H56   H     H_    0.545170 0.792760 0.865569 0.204002
H57   H     H_    0.792908 0.795996 0.866978 0.195407
H58   H     H_    0.797784 0.793401 0.976279 0.167210
H59   H     H_    0.552613 0.773835 0.976254 0.176932
C88   C     C_3   0.336862 0.195623 0.046192 -0.356938
C89   C     C_3   0.330608 0.224166 0.109074 -0.313090
C90   C     C_3   0.323999 0.304249 0.108722 -0.780661
H60   H     H_    0.451018 0.326903 0.088283 0.231844
H61   H     H_    0.204984 0.323356 0.082285 0.246895
H62   H     H_    0.310972 0.324332 0.153951 0.209879
H63   H     H_    0.207121 0.204014 0.133026 0.195398
H64   H     H_    0.454855 0.207231 0.134419 0.204028
H65   H     H_    0.447343 0.226166 0.023734 0.176917
H66   H     H_    0.202175 0.206589 0.023726 0.167215
C91   C     C_3   0.335528 0.195515 0.453914 -0.357104
C92   C     C_3   0.329254 0.224066 0.391034 -0.312958
C93   C     C_3   0.322522 0.304145 0.391396 -0.780416
H67   H     H_    0.203670 0.323223 0.417932 0.246863
H68   H     H_    0.449637 0.326829 0.411753 0.231725
H69   H     H_    0.309093 0.324242 0.346175 0.209831
H70   H     H_    0.453526 0.207163 0.365680 0.204030
H71   H     H_    0.205803 0.203887 0.367076 0.195322
H72   H     H_    0.200743 0.206394 0.476366 0.167206
H73   H     H_    0.445845 0.226133 0.476383 0.176966
C94   C     C_3   0.664475 0.804486 0.546084 -0.357103
C95   C     C_3   0.670731 0.775934 0.608964 -0.312992
C96   C     C_3   0.677448 0.695854 0.608602 -0.780473
H74   H     H_    0.550357 0.673175 0.588224 0.231736
H75   H     H_    0.796333 0.676774 0.582085 0.246879
H76   H     H_    0.690786 0.675759 0.653823 0.209848
H77   H     H_    0.794177 0.796107 0.632925 0.195325
H78   H     H_    0.546459 0.792839 0.634314 0.204047
H79   H     H_    0.554170 0.773867 0.523612 0.176967
H80   H     H_    0.799267 0.793611 0.523636 0.167211

loop_
_geom_bond_atom_site_label_1
_geom_bond_atom_site_label_2
_ccdc_geom_bond_type
C89   H63   S    
C81   H41   S    
O14   V4    S    
C88   C89   S    
C40   C48   A    
C45   C46   A    
C14   C54   A    
C22   C30   A    
C11   C51   A    
C66   C76   S    
C21   C29   A    
C47   C48   A    
C10   C50   A    
C73   H31   S    
O13   C5    A    
C88   H65   S    
H18   C10   S    
C67   C79   S    
O4    C1    A    
O9    C1    A    
C75   H25   S    
C60   C68   A    
C90   H60   S    
H11   C27   S    
O18   V2    S    
C58   C66   A    
O8    C5    A    
C57   C65   A    
C38   C62   A    
C94   H79   S    
C37   C61   A    
C93   H68   S    
H23   C15   S    
C75   H26   S    
C39   C63   A    
C77   H36   S    
C81   H39   S    
C18   C26   A    
C17   C25   A    
C14   C22   A    
C81   H40   S    
C71   C91   S    
C25   C33   A    
C74   H28   S    
O3    C2    A    
C92   C93   S    
C76   H38   S    
C38   C46   A    
H24   C16   S    
C11   C19   A    
C5    C19   S    
C91   H72   S    
C10   C18   A    
C55   C72   A    
O20   V2    S    
C77   C78   S    
C96   H75   S    
H8    C64   S    
O1    C4    A    
C82   C83   S    
H16   C32   S    
O2    C3    A    
C1    C23   S    
C95   H78   S    
C84   H47   S    
H12   C28   S    
C4    C22   S    
O12   V1    S    
C3    C21   S    
H19   C11   S    
C56   C71   A    
C85   H58   S    
C30   C38   A    
C34   C58   A    
O6    C7    A    
C29   C37   A    
H22   C14   S    
O7    C6    A    
C74   H29   S    
C91   H73   S    
C62   C70   A    
C52   C67   A    
C37   C45   A    
C26   C34   A    
H4    C60   S    
C31   C39   A    
C47   C55   A    
C79   H45   S    
C85   C86   S    
C33   C57   A    
C74   C75   S    
C90   H61   S    
C12   C52   A    
C83   H50   S    
C28   C36   A    
C79   H44   S    
C94   C95   S    
C27   C35   A    
C80   H43   S    
C87   H55   S    
C94   H80   S    
C15   C55   A    
C93   H69   S    
C45   C53   A    
C51   C68   A    
C64   C72   A    
C50   C65   A    
H14   C30   S    
C69   C85   S    
C77   H35   S    
C91   C92   S    
H13   C29   S    
O18   V4    S    
C23   C31   A    
C41   C49   A    
O19   V1    S    
C82   H51   S    
C61   C69   A    
C13   C53   A    
C93   H67   S    
H2    C58   S    
H1    C57   S    
C78   H34   S    
H6    C62   S    
O3    V4    S    
O11   C3    A    
C96   H76   S    
C9    C49   A    
C65   C73   S    
C92   H71   S    
C95   H77   S    
C84   H48   S    
O11   V2    S    
C59   C67   A    
C73   C74   S    
C54   C69   A    
H10   C26   S    
C86   H57   S    
C85   H59   S    
C63   C71   A    
H9    C25   S    
O12   C4    A    
O6    V2    S    
C48   C56   A    
O4    V3    S    
C78   H32   S    
C88   H66   S    
C72   C94   S    
O9    V1    S    
C53   C70   A    
C76   C77   S    
C41   C42   A    
C43   C44   A    
H7    C63   S    
C89   C90   S    
C44   C52   A    
C8    C18   S    
C86   C87   S    
C90   H62   S    
O5    V1    S    
C2    C24   S    
C7    C17   S    
C83   H49   S    
C73   H30   S    
C87   H54   S    
C80   H42   S    
C89   H64   S    
C16   C56   A    
C15   C23   A    
C75   H27   S    
O8    V1    S    
C39   C47   A    
H5    C61   S    
O15   C7    A    
O16   C8    A    
C35   C43   A    
C34   C42   A    
C13   C21   A    
C95   C96   S    
O5    C8    A    
C49   C66   A    
O16   V3    S    
C33   C41   A    
C32   C40   A    
O17   V3    S    
C79   C80   S    
C82   H52   S    
C20   C28   A    
O10   C2    A    
C70   C88   S    
H20   C12   S    
O17   V1    S    
C9    C17   A    
H21   C13   S    
C36   C60   A    
C35   C59   A    
O19   V3    S    
C92   H70   S    
C16   C24   A    
O1    V3    S    
O10   V2    S    
O15   V4    S    
C6    C20   S    
C87   H53   S    
C76   H37   S    
H17   C9    S    
C86   H56   S    
C40   C64   A    
C19   C27   A    
C83   C84   S    
C12   C20   A    
C24   C32   A    
C96   H74   S    
C78   H33   S    
C80   C81   S    
O2    V4    S    
C36   C44   A    
O7    V2    S    
C43   C51   A    
C84   H46   S    
C42   C50   A    
C68   C82   S    
O14   C6    A    
O20   V4    S    
C46   C54   A    
H15   C31   S    
O13   V3    S    
H3    C59   S    
