data_mof_unit_56831.cif
_audit_creation_date              2012-12-10T18:02:12-0500
_audit_creation_method            fapswitch 2.2
_symmetry_space_group_name_H-M    P1
_symmetry_Int_Tables_number       1
_space_group_crystal_system       triclinic
_cell_length_a                    10.881196
_cell_length_b                    9.601237
_cell_length_c                    23.544789
_cell_angle_alpha                 90.061646
_cell_angle_beta                  92.834156
_cell_angle_gamma                 90.353499
_cell_volume                      2456.73553571

loop_
_atom_site_label
_atom_site_type_symbol
_atom_type_description
_atom_site_fract_x
_atom_site_fract_y
_atom_site_fract_z
_atom_type_partial_charge
C1    C     C_R   0.262840 0.499520 0.504191 0.853148
C2    C     C_R   0.737220 0.500470 0.495948 0.853427
C3    C     C_R   0.520836 0.373017 0.238485 0.414760
C4    C     C_R   0.433936 0.393144 0.759795 0.371378
C5    C     C_R   0.533859 0.374932 0.297843 0.381960
C6    C     C_R   0.427627 0.394996 0.700298 0.374218
C7    C     C_R   0.508653 0.498542 0.328293 -0.294540
C8    C     C_R   0.490080 0.500841 0.670992 -0.270618
C9    C     C_R   0.483002 0.621624 0.297859 -0.329601
C10   C     C_R   0.549724 0.608608 0.701811 -0.365228
C11   C     C_R   0.481078 0.622952 0.238534 0.464916
C12   C     C_R   0.548789 0.613197 0.761258 0.496404
C13   C     C_R   0.497201 0.498348 0.208471 0.056034
C14   C     C_R   0.494197 0.503281 0.790357 0.080614
C15   C     C_R   0.061683 0.371879 0.503177 0.382732
C16   C     C_R   0.938453 0.628062 0.497384 0.379822
C17   C     C_R   0.936094 0.374032 0.490276 0.390248
C18   C     C_R   0.064055 0.625892 0.510234 0.391240
C19   C     C_R   0.871605 0.501414 0.491764 -0.461197
C20   C     C_R   0.128533 0.498539 0.508650 -0.461711
C21   C     C_R   0.408142 0.072677 0.471388 0.441131
C22   C     C_R   0.591785 0.927345 0.528680 0.420321
C23   C     C_R   0.591869 0.074146 0.528611 0.437543
C24   C     C_R   0.408057 0.925866 0.471450 0.434385
C25   C     C_R   0.503487 0.499663 0.391035 0.837746
C26   C     C_R   0.496711 0.500029 0.608733 0.822326
C27   C     C_R   0.600666 0.472266 0.881909 0.620019
C28   C     C_R   0.389494 0.525848 0.116682 0.629912
C29   C     C_R   0.390102 0.541863 0.877336 0.562429
C30   C     C_R   0.604762 0.477681 0.121303 0.522938
C31   C     C_R   0.384772 0.532547 0.937038 -0.125347
C32   C     C_R   0.605751 0.468066 0.061496 -0.118848
C33   C     C_R   0.494436 0.500712 0.969230 -0.060274
C34   C     C_R   0.495920 0.498958 0.029325 -0.061788
C35   C     C_R   0.603016 0.471141 0.941435 -0.103082
C36   C     C_R   0.387459 0.528678 0.057152 -0.120195
C37   C     C_R   0.275070 0.556041 0.965890 0.416849
C38   C     C_R   0.712605 0.431778 0.032573 0.412346
C39   C     C_R   0.278603 0.557451 0.025152 -0.136384
C40   C     C_R   0.710792 0.437630 0.973397 -0.138575
Cu1   Cu    Cu3+1 0.500000 0.640660 0.500000 0.962510
Cu2   Cu    Cu3+1 0.500000 0.359340 0.500000 0.971364
H1    H     H_    0.193957 0.577582 0.046046 0.220674
H2    H     H_    0.794110 0.411499 0.952462 0.215118
H3    H     H_    0.464121 0.717592 0.319952 0.213353
H4    H     H_    0.598659 0.688662 0.679606 0.187580
N1    N     N_R   0.495399 0.506992 0.851354 -0.446309
N2    N     N_R   0.497002 0.501140 0.147365 -0.452868
N3    N     N_R   0.500000 0.852070 0.500000 -0.352376
N4    N     N_R   0.500000 0.147930 0.500000 -0.351977
O1    O     O_R   0.319640 0.618740 0.500000 -0.553159
O2    O     O_R   0.680360 0.381260 0.500000 -0.559294
O3    O     O_R   0.680360 0.618740 0.500000 -0.560526
O4    O     O_R   0.319640 0.381260 0.500000 -0.567332
O5    O     O_R   0.499960 0.618810 0.417880 -0.608542
O6    O     O_R   0.500040 0.381190 0.582120 -0.601390
O7    O     O_R   0.500040 0.618810 0.582120 -0.606341
O8    O     O_R   0.499960 0.381190 0.417880 -0.594567
O9    O     O_2   0.702558 0.438469 0.854610 -0.511620
O10   O     O_2   0.284829 0.547210 0.143814 -0.485432
O11   O     O_2   0.292410 0.587246 0.845218 -0.492655
O12   O     O_2   0.710285 0.466692 0.153482 -0.503387
O13   O     O_3   0.162083 0.574254 0.938078 -0.660762
H5    H     H_    0.152142 0.499055 0.909328 0.364061
O14   O     O_3   0.819344 0.386202 0.060159 -0.665425
H6    H     H_    0.795583 0.314401 0.087838 0.355719
O15   O     O_3   0.535191 0.246977 0.211344 -0.679544
H7    H     H_    0.504752 0.254510 0.171178 0.318126
O16   O     O_3   0.377485 0.283347 0.786392 -0.664367
H8    H     H_    0.400435 0.284570 0.827560 0.317220
O17   O     O_3   0.571395 0.253624 0.324502 -0.655104
H9    H     H_    0.634597 0.279212 0.354516 0.322067
O18   O     O_3   0.358667 0.292073 0.672575 -0.664397
H10   H     H_    0.323698 0.330110 0.636248 0.318007
O19   O     O_3   0.455088 0.745054 0.209528 -0.560881
C41   C     C_3   0.566628 0.813723 0.198545 0.067891
H11   H     H_    0.639934 0.740229 0.186280 0.160792
H12   H     H_    0.599935 0.872382 0.237157 0.180196
C42   C     C_3   0.543054 0.915425 0.149401 -0.299086
H13   H     H_    0.507546 0.856949 0.111165 0.221683
H14   H     H_    0.472027 0.991630 0.160962 0.257917
C43   C     C_3   0.660281 0.993269 0.135086 -0.838945
H15   H     H_    0.698884 0.050877 0.172885 0.297024
H16   H     H_    0.639032 0.069128 0.100453 0.245389
H17   H     H_    0.730068 0.918949 0.120596 0.265096
O20   O     O_3   0.610342 0.717507 0.792256 -0.569959
C44   C     C_3   0.565819 0.851407 0.776790 0.070533
H18   H     H_    0.534345 0.902275 0.815874 0.185119
H19   H     H_    0.485071 0.850868 0.745568 0.147041
C45   C     C_3   0.670346 0.938905 0.753729 -0.351234
H20   H     H_    0.748191 0.943939 0.786083 0.254394
H21   H     H_    0.703844 0.889417 0.714799 0.235639
C46   C     C_3   0.628346 0.086670 0.739401 -0.782136
H22   H     H_    0.550455 0.084475 0.707072 0.281027
H23   H     H_    0.705505 0.146491 0.721922 0.268543
H24   H     H_    0.599387 0.140299 0.778306 0.267242
O21   O     O_3   0.116152 0.243280 0.509246 -0.568047
H25   H     H_    0.170517 0.247222 0.544285 0.338655
O22   O     O_3   0.883983 0.756684 0.491461 -0.569195
H26   H     H_    0.830040 0.753122 0.456282 0.339648
O23   O     O_3   0.879308 0.248613 0.476971 -0.576511
H27   H     H_    0.821111 0.265090 0.443949 0.325655
O24   O     O_3   0.120877 0.751287 0.523547 -0.576747
H28   H     H_    0.179419 0.734682 0.556430 0.332326
O25   O     O_3   0.313362 0.135589 0.440552 -0.599838
H29   H     H_    0.344253 0.223260 0.425224 0.375475
O26   O     O_3   0.686476 0.864516 0.559618 -0.619346
H30   H     H_    0.655770 0.776553 0.574733 0.360024
O27   O     O_3   0.687080 0.138667 0.559121 -0.614625
H31   H     H_    0.655478 0.224373 0.575601 0.363688
O28   O     O_3   0.312765 0.861332 0.441007 -0.606433
H32   H     H_    0.344336 0.775609 0.424522 0.362107

loop_
_geom_bond_atom_site_label_1
_geom_bond_atom_site_label_2
_ccdc_geom_bond_type
C38   C40   A    
C44   H18   S    
C9    H3    S    
C46   H22   S    
C8    C26   S    
O18   H10   S    
O28   H32   S    
C41   C42   S    
C1    O4    A    
Cu2   O8    S    
O21   H25   S    
O23   H27   S    
C29   N1    A    
C30   N2    A    
C41   H12   S    
C33   C35   A    
C22   O26   S    
C15   C17   A    
Cu1   Cu2   S    
C17   O23   S    
C21   N4    A    
Cu2   O6    S    
Cu1   O5    S    
C10   H4    S    
O26   H30   S    
C31   C33   A    
C32   C38   A    
C18   C20   A    
C3    C13   A    
C46   H23   S    
C24   O28   S    
C15   O21   S    
C10   C12   A    
Cu1   N3    S    
C4    O16   S    
C37   O13   S    
C28   O10   S    
C15   C20   A    
C23   O27   S    
C29   O11   S    
O15   H7    S    
C41   H11   S    
C4    C6    A    
C5    C7    A    
O20   C44   S    
C23   N4    A    
C39   H1    S    
C27   C35   A    
C31   C37   A    
C32   C34   A    
O19   C41   S    
C13   N2    S    
C9    C11   A    
C45   H21   S    
O22   H26   S    
C38   O14   S    
C40   H2    S    
C29   C31   A    
C33   C34   A    
C1    O1    A    
Cu1   O3    S    
C2    O2    A    
Cu2   N4    S    
C22   N3    A    
C8    C10   A    
C12   C14   A    
C43   H15   S    
C46   H24   S    
C43   H16   S    
C30   O12   S    
C44   C45   S    
C25   O8    A    
C45   C46   S    
C42   H14   S    
C27   N1    A    
C24   N3    A    
C7    C9    A    
C28   N2    A    
C1    C20   S    
C2    C19   S    
C36   C39   A    
C3    O15   S    
C25   O5    A    
O13   H5    S    
C3    C5    A    
C2    O3    A    
C26   O6    A    
C42   C43   S    
C6    C8    A    
C16   O22   S    
C14   N1    S    
C43   H17   S    
O25   H29   S    
C7    C25   S    
C12   O20   S    
C44   H19   S    
C35   C40   A    
Cu1   O7    S    
O17   H9    S    
C5    O17   S    
C11   O19   S    
O27   H31   S    
Cu2   O4    S    
C30   C32   A    
C11   C13   A    
C45   H20   S    
C16   C19   A    
C17   C19   A    
C34   C36   A    
C18   O24   S    
C6    O18   S    
C4    C14   A    
O16   H8    S    
C26   O7    A    
C42   H13   S    
C37   C39   A    
C28   C36   A    
C16   C18   A    
O14   H6    S    
C21   C24   A    
O24   H28   S    
C22   C23   A    
C27   O9    S    
Cu1   O1    S    
C21   O25   S    
Cu2   O2    S    
