data_mof_unit_20028.cif
_audit_creation_date              2013-03-05T15:58:20-0500
_audit_creation_method            fapswitch 2.2
_symmetry_space_group_name_H-M    P1
_symmetry_Int_Tables_number       1
_space_group_crystal_system       triclinic
_cell_length_a                    15.076636
_cell_length_b                    13.702538
_cell_length_c                    15.915078
_cell_angle_alpha                 90.068573
_cell_angle_beta                  89.916095
_cell_angle_gamma                 89.883696
_cell_volume                      3287.85429636

loop_
_atom_site_label
_atom_site_type_symbol
_atom_site_description
_atom_site_fract_x
_atom_site_fract_y
_atom_site_fract_z
_atom_type_partial_charge
O1    O     O_R   0.370250 0.582280 0.500020 -0.591695
O2    O     O_R   0.370250 0.417720 0.500020 -0.590027
C1    C     C_R   0.328768 0.500170 0.496038 0.808319
O3    O     O_R   0.499990 0.582310 0.379440 -0.569847
O4    O     O_R   0.499990 0.417690 0.379440 -0.559742
C2    C     C_R   0.500012 0.499969 0.340289 0.806432
Cu1   Cu    Cu3+1 0.499990 0.597420 0.500010 0.971329
Cu2   Cu    Cu3+1 0.499990 0.402580 0.500010 0.974423
O5    O     O_R   0.629730 0.582260 0.499990 -0.587833
O6    O     O_R   0.629730 0.417740 0.499990 -0.591619
O7    O     O_R   0.499980 0.582240 0.620570 -0.567421
O8    O     O_R   0.499980 0.417760 0.620570 -0.578892
C3    C     C_R   0.671312 0.499949 0.499880 0.826838
C4    C     C_R   0.500171 0.500049 0.659810 0.824947
C5    C     C_3   0.456609 0.596950 0.047486 -0.130655
C6    C     C_3   0.458475 0.405398 0.046781 -0.133839
C7    C     C_3   0.479472 0.402287 0.949859 -0.408694
C8    C     C_3   0.450856 0.583204 0.949109 -0.449241
H1    H     H_    0.383126 0.561379 0.929118 0.239566
H2    H     H_    0.421371 0.377784 0.912577 0.218508
H3    H     H_    0.530489 0.346669 0.935065 0.259269
H4    H     H_    0.462293 0.652084 0.914217 0.227278
C9    C     C_1   0.503762 0.500229 0.749070 -0.096380
C10   C     C_3   0.508499 0.501764 0.083322 -0.110322
C11   C     C_3   0.514437 0.501920 0.916711 0.064553
C12   C     C_3   0.612842 0.521703 0.949746 -0.193428
C13   C     C_3   0.612081 0.500134 0.051247 -0.251363
C14   C     C_1   0.508296 0.500835 0.824280 0.057265
C15   C     C_1   0.504452 0.500778 0.175806 0.194411
C16   C     C_1   0.501884 0.500064 0.251112 0.063007
C17   C     C_R   0.812434 0.578696 0.462439 -0.216008
C18   C     C_R   0.767815 0.500194 0.498561 -0.074476
C19   C     C_R   0.814818 0.422334 0.533196 -0.224877
C20   C     C_R   0.907702 0.422036 0.532932 0.108162
C21   C     C_R   0.953071 0.501348 0.494727 -0.005302
C22   C     C_R   0.905127 0.580196 0.459037 0.109458
C23   C     C_R   0.956323 0.344637 0.569859 0.161548
C24   C     C_R   0.048945 0.347436 0.568299 -0.179121
C25   C     C_R   0.093736 0.424519 0.529688 0.075515
C26   C     C_R   0.046350 0.501544 0.492029 0.017344
C27   C     C_R   0.092216 0.578106 0.451189 0.067174
C28   C     C_R   0.043477 0.656443 0.417496 -0.193535
C29   C     C_R   0.950906 0.658571 0.420986 0.170501
C30   C     C_R   0.185826 0.425816 0.529653 -0.263584
C31   C     C_R   0.232098 0.500575 0.489375 -0.058432
C32   C     C_R   0.185835 0.574395 0.444969 0.116987
H5    H     H_    0.773765 0.637519 0.435667 0.157437
H6    H     H_    0.777991 0.363066 0.561370 0.169516
H7    H     H_    0.086586 0.288793 0.597033 0.144309
H8    H     H_    0.221944 0.368482 0.561959 0.151159
H9    H     H_    0.077097 0.717907 0.389312 0.162683
C33   C     C_R   0.436816 0.792466 0.545174 0.040536
C34   C     C_R   0.437973 0.207943 0.546614 0.045372
N1    N     N_R   0.499930 0.743810 0.499960 -0.190262
N2    N     N_R   0.499930 0.256190 0.499960 -0.189912
C35   C     C_R   0.561570 0.793792 0.454461 0.048075
C36   C     C_R   0.561209 0.205789 0.454053 0.041794
C37   C     C_R   0.562105 0.896584 0.453975 0.020790
C38   C     C_R   0.561744 0.102991 0.453567 0.019544
C39   C     C_R   0.497583 0.948233 0.500818 0.042870
C40   C     C_R   0.497652 0.051763 0.500930 0.043312
C41   C     C_R   0.432721 0.896139 0.546189 -0.058400
C42   C     C_R   0.434962 0.104258 0.549007 -0.058069
C43   C     C_R   0.625494 0.948457 0.407373 -0.178109
C44   C     C_R   0.625159 0.050689 0.406989 -0.179271
C45   C     C_R   0.371372 0.052356 0.597642 0.177103
C46   C     C_R   0.366064 0.948437 0.590966 0.174496
H10   H     H_    0.390697 0.749372 0.581390 0.149285
H11   H     H_    0.390392 0.251415 0.581020 0.140496
H12   H     H_    0.610411 0.753434 0.418483 0.128572
H13   H     H_    0.609678 0.245839 0.417645 0.136331
H14   H     H_    0.675332 0.909892 0.371061 0.144457
H15   H     H_    0.674772 0.088910 0.370417 0.145462
C47   C     C_3   0.234584 0.644121 0.386921 -0.799456
H16   H     H_    0.300578 0.616359 0.367504 0.255130
H17   H     H_    0.197902 0.652582 0.326945 0.223488
H18   H     H_    0.241955 0.716369 0.417764 0.230123
C48   C     C_3   0.902843 0.744980 0.383390 -0.860749
H19   H     H_    0.949415 0.799553 0.356770 0.239437
H20   H     H_    0.858846 0.720121 0.331753 0.237583
H21   H     H_    0.862733 0.782167 0.432519 0.230267
C49   C     C_3   0.312729 0.107969 0.658858 -0.858512
H22   H     H_    0.282678 0.060924 0.707663 0.254150
H23   H     H_    0.352978 0.161201 0.694987 0.230370
H24   H     H_    0.259688 0.147149 0.624156 0.221777
C50   C     C_3   0.287514 0.893455 0.627104 -0.856680
H25   H     H_    0.228677 0.940552 0.637218 0.246528
H26   H     H_    0.264081 0.837465 0.581844 0.219317
H27   H     H_    0.306635 0.857775 0.686998 0.243458
C51   C     C_2   0.362758 0.611512 0.084547 0.865984
O9    O     O_2   0.298573 0.624873 0.038903 -0.569817
O10   O     O_R   0.350720 0.616371 0.171703 -0.741967
H28   H     H_    0.286565 0.627619 0.188264 0.343160
C52   C     C_2   0.357885 0.407474 0.062481 0.845569
O11   O     O_2   0.329576 0.405453 0.134646 -0.558841
O12   O     O_R   0.297310 0.410307 0.995916 -0.757656
H29   H     H_    0.233377 0.411371 0.015732 0.360525
C53   C     C_2   0.485670 0.307577 0.087156 0.863952
O13   O     O_2   0.488307 0.299169 0.163663 -0.567171
O14   O     O_R   0.501332 0.225031 0.037264 -0.733531
H30   H     H_    0.517012 0.165168 0.071607 0.351777
C54   C     C_2   0.499733 0.694464 0.070670 0.898478
O15   O     O_2   0.514725 0.713591 0.144364 -0.531033
O16   O     O_R   0.508588 0.768834 0.011019 -0.752698
H31   H     H_    0.533086 0.831414 0.035805 0.352136
C55   C     C_2   0.676560 0.568157 0.098241 0.951515
O17   O     O_2   0.753476 0.574077 0.073841 -0.513475
O18   O     O_R   0.653887 0.613741 0.173783 -0.734096
H32   H     H_    0.704553 0.652623 0.198820 0.336918
C56   C     C_2   0.652412 0.400255 0.077221 0.839820
O19   O     O_2   0.668111 0.335319 0.026600 -0.556875
O20   O     O_R   0.669545 0.382398 0.162454 -0.749487
H33   H     H_    0.694671 0.314822 0.172944 0.348649
C57   C     C_2   0.638845 0.626639 0.921783 0.875918
O21   O     O_2   0.636336 0.647142 0.846925 -0.586038
O22   O     O_R   0.668582 0.698305 0.977452 -0.718033
H34   H     H_    0.684750 0.761693 0.948479 0.357605
C58   C     C_2   0.683401 0.459730 0.904192 0.917634
O23   O     O_2   0.663003 0.397119 0.852901 -0.581522
O24   O     O_R   0.773187 0.475564 0.921676 -0.696564
H35   H     H_    0.813817 0.430816 0.888399 0.346350
C59   C     C_3   0.911413 0.258976 0.611528 -0.843775
H36   H     H_    0.869411 0.219937 0.565182 0.231802
H37   H     H_    0.960123 0.205790 0.636985 0.236119
H38   H     H_    0.869729 0.284943 0.664640 0.246360

loop_
_geom_bond_atom_site_label_1
_geom_bond_atom_site_label_2
_geom_bond_distance
_ccdc_geom_bond_type
C5    C8    1.579277 S    
C20   C23   1.416732 A    
C27   C28   1.406795 A    
C3    C18   1.455063 S    
C21   C22   1.418428 A    
C10   C13   1.642367 S    
C34   H11   1.079631 S    
C57   O21   1.225002 D    
Cu1   Cu2   2.669801 S    
C24   H7    1.084762 S    
C31   C32   1.417543 A    
O22   H34   1.013871 S    
C11   C14   1.474162 S    
Cu1   O7    1.930211 S    
C12   C13   1.642583 S    
C15   C16   1.199112 T    
C47   H17   1.109938 S    
C41   C46   1.423058 A    
O10   H28   1.013559 S    
C20   C21   1.421993 A    
C24   C25   1.397310 A    
O7    C4    1.288434 A    
C48   H20   1.110502 S    
C36   C38   1.408615 A    
C55   O17   1.225263 D    
C37   C39   1.413076 A    
C7    H2    1.110999 S    
C44   H15   1.083333 S    
O18   H32   1.013984 S    
C39   C41   1.410394 A    
C8    H1    1.111464 S    
C40   C42   1.410665 A    
O5    C3    1.289282 A    
C58   O23   1.223560 D    
O20   H33   1.013867 S    
O1    Cu1   1.967430 S    
C56   O19   1.222161 D    
C13   C56   1.553183 S    
C6    C7    1.574739 S    
C47   H18   1.110322 S    
C27   C32   1.415595 A    
O6    C3    1.290285 A    
C33   H10   1.079673 S    
C28   H9    1.081401 S    
C45   C46   1.430200 A    
C42   C45   1.423370 A    
C6    C10   1.629150 S    
C17   H5    1.082015 S    
C54   O15   1.222961 D    
C8    C11   1.555031 S    
O3    Cu1   1.929771 S    
Cu2   N2    2.005916 S    
O16   H31   1.014016 S    
C33   N1    1.364560 A    
C56   O20   1.402936 S    
C34   N2    1.364760 A    
C37   C43   1.403772 A    
N1    C35   1.363399 A    
C38   C40   1.412992 A    
C47   H16   1.107907 S    
C29   C48   1.511451 S    
O3    C2    1.288241 A    
C25   C26   1.408290 A    
C50   H25   1.107376 S    
C13   C55   1.541867 S    
C11   C12   1.598311 S    
C1    C31   1.461469 S    
C7    H3    1.106585 S    
C39   C40   1.418625 A    
O1    C1    1.289893 A    
C4    C9    1.421699 S    
C54   O16   1.400025 S    
C12   C57   1.556461 S    
C23   C24   1.397209 A    
C45   C49   1.518071 S    
C51   O10   1.400144 S    
C17   C18   1.394064 A    
Cu2   O8    1.929716 S    
O12   H29   1.013806 S    
C19   C20   1.400369 A    
C9    C14   1.199037 T    
C36   H13   1.082620 S    
C52   O12   1.400222 S    
C5    C10   1.624024 S    
C2    C16   1.419504 S    
O8    C4    1.288318 A    
C49   H22   1.107012 S    
C49   H23   1.110282 S    
N2    C36   1.363275 A    
C28   C29   1.396919 A    
C59   H37   1.110851 S    
C32   C47   1.519696 S    
O24   H35   1.014121 S    
C30   H8    1.085416 S    
Cu1   O5    1.966624 S    
C26   C27   1.415799 A    
C46   C50   1.517746 S    
C48   H19   1.110726 S    
C6    C52   1.536844 S    
O2    Cu2   1.966593 S    
C30   C31   1.396468 A    
C12   C58   1.539787 S    
C50   H27   1.110016 S    
O4    Cu2   1.930263 S    
C57   O22   1.396843 S    
C25   C30   1.388549 A    
C49   H24   1.110404 S    
C35   H12   1.082709 S    
C7    C11   1.556877 S    
C18   C19   1.394181 A    
C59   H38   1.110339 S    
C8    H4    1.109301 S    
C21   C26   1.406934 A    
C33   C41   1.421871 A    
C43   C44   1.400866 A    
C5    C51   1.544646 S    
C34   C42   1.422125 A    
C48   H21   1.110459 S    
C6    C53   1.542162 S    
C51   O9    1.224468 D    
O4    C2    1.288814 A    
C55   O18   1.395908 S    
O14   H30   1.013968 S    
C35   C37   1.408576 A    
O2    C1    1.291883 A    
C50   H26   1.110298 S    
C43   H14   1.083606 S    
C5    C54   1.532090 S    
C52   O11   1.225035 D    
C53   O14   1.400660 S    
C58   O24   1.399672 S    
C23   C59   1.509895 S    
C10   C15   1.473154 S    
Cu2   O6    1.967463 S    
C53   O13   1.223886 D    
C19   H6    1.082064 S    
C17   C22   1.398651 A    
C22   C29   1.414140 A    
Cu1   N1    2.005914 S    
C59   H36   1.110402 S    
C38   C44   1.403955 A    
