data_mof_unit_26862.cif
_audit_creation_date              2013-03-05T16:01:46-0500
_audit_creation_method            fapswitch 2.2
_symmetry_space_group_name_H-M    P1
_symmetry_Int_Tables_number       1
_space_group_crystal_system       triclinic
_cell_length_a                    14.900536
_cell_length_b                    14.906144
_cell_length_c                    27.16138
_cell_angle_alpha                 74.386365
_cell_angle_beta                  102.906839
_cell_angle_gamma                 116.119745
_cell_volume                      5178.31543807

loop_
_atom_site_label
_atom_site_type_symbol
_atom_site_description
_atom_site_fract_x
_atom_site_fract_y
_atom_site_fract_z
_atom_type_partial_charge
O1    O     O_R   0.977900 0.338120 0.517190 -0.607965
O2    O     O_R   0.022100 0.661880 0.482810 -0.615124
O3    O     O_R   0.839850 0.379180 0.495160 -0.549579
O4    O     O_R   0.160150 0.620820 0.504840 -0.533550
C1    C     C_R   0.880210 0.312320 0.508118 0.922244
C2    C     C_R   0.119620 0.687593 0.491803 0.890080
O5    O     O_R   0.069030 0.479490 0.580750 -0.601549
O6    O     O_R   0.930970 0.520510 0.419250 -0.620270
O7    O     O_R   0.930970 0.520550 0.558720 -0.505634
O8    O     O_R   0.069030 0.479450 0.441280 -0.495258
C3    C     C_R   0.999531 0.498713 0.592824 0.963932
C4    C     C_R   0.000864 0.502297 0.406992 0.945733
Cu1   Cu    Cu3+1 0.081740 0.475690 0.513040 1.054999
Cu2   Cu    Cu3+1 0.918260 0.524310 0.486960 1.036166
C5    C     C_R   0.839420 0.445032 0.806713 0.617158
C6    C     C_R   0.969687 0.631960 0.157883 0.615725
O9    O     O_2   0.763665 0.379626 0.779729 -0.497308
O10   O     O_2   0.003243 0.717461 0.176668 -0.530996
N1    N     N_R   0.919641 0.519921 0.782538 -0.422028
N2    N     N_R   0.928405 0.538944 0.189644 -0.419582
C7    C     C_R   0.951876 0.614456 0.793763 0.558882
C8    C     C_R   0.842699 0.469302 0.168047 0.556143
C9    C     C_R   0.047811 0.580512 0.720062 0.055324
C10   C     C_R   0.925121 0.421978 0.277478 0.059075
C11   C     C_R   0.056362 0.582791 0.668938 0.230220
C12   C     C_R   0.929881 0.418432 0.330513 0.231338
C13   C     C_R   0.940390 0.404187 0.678997 0.185004
C14   C     C_R   0.068976 0.585257 0.321644 0.149499
C15   C     C_R   0.924810 0.407634 0.727899 0.285795
C16   C     C_R   0.055023 0.591472 0.267781 0.252591
C17   C     C_R   0.960870 0.503776 0.742532 0.097513
C18   C     C_R   0.966603 0.519156 0.244811 0.074311
C19   C     C_R   0.888672 0.535653 0.876613 -0.059130
C20   C     C_R   0.897594 0.551895 0.083563 -0.061540
C21   C     C_R   0.830798 0.444315 0.857887 -0.080980
C22   C     C_R   0.966901 0.637962 0.104497 -0.072892
C23   C     C_R   0.768937 0.356819 0.890661 0.089521
C24   C     C_R   0.031148 0.724309 0.072169 0.091867
C25   C     C_R   0.945151 0.623179 0.842853 -0.039141
C26   C     C_R   0.830821 0.469157 0.115327 -0.032340
C27   C     C_R   0.997212 0.495611 0.647188 -0.328772
C28   C     C_R   0.998819 0.503235 0.352235 -0.318123
C29   C     C_R   0.820275 0.462583 0.010881 0.055075
C30   C     C_R   0.944907 0.634682 0.945185 0.053271
C31   C     C_R   0.952467 0.636683 0.998164 0.004814
C32   C     C_R   0.822916 0.455846 0.959887 0.004727
C33   C     C_R   0.890390 0.550429 0.030737 0.077903
C34   C     C_R   0.885603 0.541836 0.927438 0.078794
C35   C     C_R   0.749739 0.384563 0.043001 -0.203476
C36   C     C_R   0.994454 0.722455 0.908976 -0.200255
C37   C     C_R   0.754731 0.388316 0.094158 -0.143620
C38   C     C_R   0.993941 0.716669 0.858696 -0.137908
O11   O     O_2   0.766691 0.405764 0.196130 -0.529473
O12   O     O_2   0.983665 0.698946 0.757009 -0.505062
C39   C     C_R   0.766715 0.364689 0.940890 -0.189041
C40   C     C_R   0.022410 0.721469 0.019821 -0.188484
H1    H     H_    0.700655 0.325577 0.117592 0.185189
H2    H     H_    0.035029 0.785447 0.832735 0.189810
H3    H     H_    0.688328 0.319995 0.029591 0.138238
H4    H     H_    0.033098 0.797555 0.917946 0.142036
H5    H     H_    0.723306 0.297356 0.965885 0.134440
H6    H     H_    0.073867 0.785019 0.996385 0.134676
C41   C     C_R   0.811631 0.203585 0.514336 -0.062094
C42   C     C_R   0.187107 0.795743 0.489442 -0.074796
C43   C     C_R   0.781217 0.024703 0.533896 0.323716
C44   C     C_R   0.215482 0.970066 0.487261 0.317248
C45   C     C_R   0.847669 0.127418 0.528386 -0.152495
C46   C     C_R   0.149929 0.868518 0.485942 -0.197639
C47   C     C_R   0.708328 0.176728 0.504980 -0.138618
C48   C     C_R   0.290542 0.824179 0.495567 -0.139418
C49   C     C_R   0.638402 0.074886 0.515115 0.042044
C50   C     C_R   0.359166 0.923924 0.499562 0.030568
C51   C     C_R   0.675050 0.995999 0.530724 -0.009573
C52   C     C_R   0.321491 0.000785 0.489366 0.008978
C53   C     C_R   0.532922 0.050691 0.508095 0.074178
C54   C     C_R   0.464332 0.948208 0.512304 0.066925
C55   C     C_R   0.501535 0.871837 0.533011 -0.186784
C56   C     C_R   0.493942 0.126184 0.496276 -0.190784
C57   C     C_R   0.604713 0.892996 0.543738 0.073293
C58   C     C_R   0.391232 0.104218 0.482223 0.089633
H7    H     H_    0.316536 0.767136 0.496114 0.184452
H8    H     H_    0.684412 0.237797 0.488557 0.164210
H9    H     H_    0.069772 0.845476 0.484883 0.208398
H10   H     H_    0.927934 0.147640 0.532513 0.201731
H11   H     H_    0.449551 0.794645 0.543768 0.142596
H12   H     H_    0.541894 0.204115 0.498202 0.139235
N3    N     N_R   0.795430 0.560780 0.467350 -0.248545
N4    N     N_R   0.204570 0.439220 0.532650 -0.246911
C59   C     C_R   0.726233 0.684887 0.422041 0.253768
C60   C     C_R   0.283908 0.327440 0.585473 0.262755
C61   C     C_R   0.790541 0.636215 0.425005 0.114697
C62   C     C_R   0.206250 0.362353 0.574973 0.100296
C63   C     C_R   0.720367 0.518016 0.499301 0.403494
C64   C     C_R   0.285445 0.488605 0.504337 0.404011
C65   C     C_R   0.635661 0.545054 0.486607 -0.162176
C66   C     C_R   0.373484 0.467047 0.520307 -0.173123
C67   C     C_R   0.647043 0.637636 0.452280 -0.024848
C68   C     C_R   0.365094 0.377627 0.556832 -0.025047
C69   C     C_R   0.542465 0.486696 0.508344 0.110344
C70   C     C_R   0.467775 0.527078 0.499520 0.102470
C71   C     C_R   0.492611 0.628122 0.473100 -0.176970
C72   C     C_R   0.518619 0.386767 0.535947 -0.188225
C73   C     C_R   0.578712 0.681164 0.448536 -0.069024
C74   C     C_R   0.435832 0.336363 0.562629 -0.083699
H13   H     H_    0.591612 0.757303 0.426786 0.213658
H14   H     H_    0.424692 0.261411 0.585589 0.218119
H15   H     H_    0.447595 0.668648 0.472063 0.185253
H16   H     H_    0.561544 0.344627 0.536673 0.186470
N5    N     N_R   0.905500 0.307861 0.663661 0.147743
O13   O     O_R   0.925167 0.233542 0.694424 -0.326172
O14   O     O_R   0.857693 0.294780 0.618215 -0.339659
N6    N     N_R   0.156840 0.658768 0.345068 0.198772
O15   O     O_R   0.246128 0.674935 0.337078 -0.201227
O16   O     O_R   0.148212 0.713145 0.372487 -0.394264
N7    N     N_R   0.823340 0.953285 0.537054 0.100712
O17   O     O_R   0.807714 0.913353 0.497189 -0.302025
O18   O     O_R   0.896796 0.949702 0.572825 -0.289160
N8    N     N_R   0.173947 0.035463 0.494555 0.114102
O19   O     O_R   0.086784 0.031122 0.470189 -0.291191
O20   O     O_R   0.213812 0.085187 0.532114 -0.300628
N9    N     N_R   0.272249 0.542650 0.453062 0.144161
O21   O     O_R   0.275722 0.633873 0.444853 -0.339492
O22   O     O_R   0.272720 0.506834 0.414457 -0.330347
N10   N     N_R   0.736139 0.462282 0.549949 0.139880
O23   O     O_R   0.740026 0.497099 0.589818 -0.339666
O24   O     O_R   0.730024 0.370293 0.556689 -0.342042
C75   C     C_3   0.128958 0.312462 0.613252 -0.279510
C76   C     C_3   0.172170 0.352409 0.664325 -0.350807
C77   C     C_3   0.160837 0.266754 0.711758 -0.677484
H17   H     H_    0.082922 0.207368 0.710898 0.290880
H18   H     H_    0.212502 0.230261 0.713777 0.291488
H19   H     H_    0.179577 0.298484 0.747133 0.230252
H20   H     H_    0.253276 0.404655 0.664592 0.224946
H21   H     H_    0.132500 0.397275 0.668499 0.227931
H22   H     H_    0.057486 0.319078 0.598659 0.232426
H23   H     H_    0.103557 0.228598 0.620369 0.226308
C78   C     C_3   0.831604 0.653808 0.375115 -0.342986
C79   C     C_3   0.937458 0.739050 0.370789 -0.312088
C80   C     C_3   0.959837 0.777674 0.314907 -0.708689
H24   H     H_    0.950984 0.713900 0.297876 0.254646
H25   H     H_    0.908054 0.813191 0.291814 0.263562
H26   H     H_    0.038413 0.835842 0.313323 0.272594
H27   H     H_    0.946336 0.803941 0.386804 0.256868
H28   H     H_    0.993957 0.710260 0.392648 0.262786
H29   H     H_    0.823857 0.582172 0.366835 0.210673
H30   H     H_    0.780145 0.674628 0.342224 0.211613
N11   N     N_R   0.734302 0.775288 0.383885 0.110093
O25   O     O_R   0.663948 0.772395 0.345286 -0.338213
O26   O     O_R   0.810491 0.861256 0.388664 -0.293716
N12   N     N_R   0.283602 0.244625 0.627610 0.103039
O27   O     O_R   0.220371 0.151813 0.624255 -0.275991
O28   O     O_R   0.356596 0.259978 0.665332 -0.358469
N13   N     N_R   0.887560 0.314424 0.764876 0.168820
O29   O     O_R   0.805039 0.238208 0.753058 -0.241312
O30   O     O_R   0.936934 0.305429 0.810653 -0.401457
N14   N     N_R   0.136633 0.660481 0.238311 0.175828
O31   O     O_R   0.181759 0.756271 0.241606 -0.272472
O32   O     O_R   0.166869 0.626983 0.208375 -0.377138
C81   C     C_3   0.710129 0.254855 0.872807 -0.300855
C82   C     C_3   0.661931 0.160453 0.913978 -0.444652
C83   C     C_3   0.612758 0.063703 0.891533 -0.744337
H31   H     H_    0.553128 0.069070 0.859457 0.265842
H32   H     H_    0.669908 0.051662 0.877054 0.273045
H33   H     H_    0.577947 0.997033 0.921902 0.238317
H34   H     H_    0.720434 0.152088 0.946168 0.236457
H35   H     H_    0.602762 0.168337 0.929020 0.225227
H36   H     H_    0.648825 0.261988 0.842227 0.244916
H37   H     H_    0.762617 0.239502 0.856285 0.268498
C84   C     C_3   0.111783 0.816125 0.094220 -0.302262
C85   C     C_3   0.190282 0.896291 0.058928 -0.443709
C86   C     C_3   0.270075 0.978739 0.087298 -0.746592
H38   H     H_    0.234540 0.018017 0.100834 0.260330
H39   H     H_    0.311022 0.944834 0.120874 0.276945
H40   H     H_    0.325159 0.035863 0.060861 0.237326
H41   H     H_    0.228523 0.859306 0.045582 0.236483
H42   H     H_    0.152810 0.933638 0.025073 0.227060
H43   H     H_    0.073478 0.855630 0.105409 0.237768
H44   H     H_    0.154050 0.787203 0.129153 0.272528
N15   N     N_R   0.869573 0.326378 0.362491 0.109974
O33   O     O_R   0.911246 0.286248 0.404568 -0.363671
O34   O     O_R   0.775810 0.275635 0.346210 -0.328011
N16   N     N_R   0.127235 0.672327 0.640269 0.111143
O35   O     O_R   0.189728 0.665052 0.616474 -0.395402
O36   O     O_R   0.136658 0.762224 0.642509 -0.282123
C87   C     C_3   0.908606 0.324261 0.261370 -0.298108
C88   C     C_3   0.993926 0.339518 0.232702 -0.400630
C89   C     C_3   0.980059 0.239480 0.220797 -0.776948
H45   H     H_    0.980852 0.182992 0.257002 0.273427
H46   H     H_    0.907615 0.208102 0.196119 0.257311
H47   H     H_    0.042477 0.253121 0.199971 0.252891
H48   H     H_    0.995876 0.394735 0.195772 0.241379
H49   H     H_    0.067468 0.370149 0.256770 0.253398
H50   H     H_    0.907388 0.263924 0.296086 0.242869
H51   H     H_    0.834996 0.291187 0.238473 0.251535
C90   C     C_3   0.143526 0.637133 0.753581 -0.318231
C91   C     C_3   0.166742 0.565475 0.802166 -0.409899
C92   C     C_3   0.266219 0.621358 0.833068 -0.797688
H52   H     H_    0.329352 0.651900 0.809578 0.262591
H53   H     H_    0.263032 0.685076 0.845390 0.257277
H54   H     H_    0.280559 0.567747 0.867914 0.252897
H55   H     H_    0.106137 0.533622 0.827366 0.244409
H56   H     H_    0.171163 0.501194 0.790946 0.238499
H57   H     H_    0.209442 0.670812 0.731724 0.231666
H58   H     H_    0.141540 0.702428 0.764382 0.254140
C93   C     C_3   0.638532 0.806364 0.570592 -0.339524
C94   C     C_3   0.560309 0.708105 0.598669 -0.451775
C95   C     C_3   0.606951 0.632633 0.627433 -0.676861
H59   H     H_    0.637124 0.612360 0.600099 0.282909
H60   H     H_    0.668707 0.665827 0.657359 0.267840
H61   H     H_    0.548551 0.562001 0.646435 0.249080
H62   H     H_    0.529988 0.726704 0.626653 0.249572
H63   H     H_    0.497398 0.669523 0.570633 0.219212
H64   H     H_    0.663063 0.784664 0.541591 0.246610
H65   H     H_    0.702920 0.835016 0.600338 0.240037
C96   C     C_3   0.360200 0.192559 0.456000 -0.352785
C97   C     C_3   0.427865 0.271773 0.415371 -0.433788
C98   C     C_3   0.387416 0.352684 0.387736 -0.695960
H66   H     H_    0.311010 0.317331 0.367096 0.263816
H67   H     H_    0.383971 0.392738 0.415882 0.277569
H68   H     H_    0.438233 0.409501 0.359265 0.251430
H69   H     H_    0.505407 0.311894 0.433497 0.219106
H70   H     H_    0.431506 0.233100 0.386580 0.253112
H71   H     H_    0.283451 0.163916 0.434967 0.234644
H72   H     H_    0.360310 0.231065 0.485620 0.234026

loop_
_geom_bond_atom_site_label_1
_geom_bond_atom_site_label_2
_geom_bond_distance
_ccdc_geom_bond_type
C71   H15   1.074619 S    
C44   C46   1.399397 A    
C86   H38   1.110922 S    
N3    C61   1.389628 A    
C13   C15   1.416238 A    
C84   C85   1.539004 S    
N11   O25   1.301360 A    
C63   N10   1.431853 S    
C87   H51   1.103196 S    
C60   N12   1.438961 S    
N1    C17   1.478240 S    
C76   C77   1.529854 S    
N8    O20   1.300612 A    
N6    O16   1.299094 A    
C83   H31   1.110933 S    
C85   H42   1.111766 S    
C12   N15   1.437427 S    
C14   N6    1.435116 S    
C98   H68   1.110407 S    
O5    C3    1.313636 A    
C86   H39   1.110956 S    
C29   C32   1.425740 A    
C19   C25   1.408976 A    
O1    C1    1.313527 A    
C42   C46   1.393861 A    
C78   H29   1.101486 S    
N14   O31   1.302114 A    
N11   O26   1.300219 A    
C10   C12   1.414048 A    
Cu2   N3    2.052724 S    
C79   H27   1.109249 S    
N5    O14   1.297528 A    
C7    O12   1.347705 S    
C72   C74   1.379007 A    
C80   H26   1.110411 S    
C56   C58   1.400080 A    
C90   H57   1.111335 S    
C85   C86   1.526987 S    
C65   C69   1.435230 A    
N7    O17   1.301247 A    
C44   C52   1.430005 A    
C39   H5    1.069774 S    
O4    Cu1   1.930296 S    
C43   C51   1.433892 A    
C81   H37   1.111350 S    
C1    C41   1.473506 S    
C59   N11   1.437217 S    
C2    C42   1.469670 S    
C88   H48   1.109953 S    
C92   H53   1.110984 S    
C48   H7    1.074181 S    
C97   H69   1.109500 S    
C89   H47   1.110378 S    
C4    C28   1.477159 S    
C47   H8    1.072686 S    
N16   O35   1.300790 A    
C94   H62   1.111696 S    
N4    C62   1.392230 A    
C31   C40   1.412800 A    
N7    O18   1.301272 A    
C66   C68   1.404763 A    
C32   C39   1.412926 A    
C95   H61   1.110653 S    
C36   C38   1.389506 A    
C72   H16   1.070274 S    
C37   H1    1.083593 S    
C42   C48   1.389575 A    
N13   O30   1.301407 A    
N9    O22   1.300957 A    
C50   C54   1.425516 A    
C35   H3    1.077350 S    
C77   H19   1.110545 S    
C56   H12   1.071397 S    
C16   N14   1.437992 S    
C25   C38   1.395265 A    
C55   H11   1.069897 S    
C45   H10   1.083840 S    
C63   C65   1.432837 A    
C61   C78   1.522227 S    
Cu1   Cu2   2.732777 S    
N8    O19   1.301562 A    
C43   N7    1.431677 S    
O2    C2    1.311308 A    
O2    Cu2   1.942070 S    
O8    C4    1.313875 A    
C5    C21   1.420969 A    
N6    O15   1.301435 A    
C83   H32   1.110956 S    
C58   C96   1.529462 S    
C41   C45   1.391064 A    
C85   H41   1.111965 S    
C31   C33   1.413336 A    
C86   H40   1.110448 S    
N4    C64   1.383363 A    
C47   C49   1.405859 A    
C95   H59   1.110915 S    
C16   C18   1.425265 A    
C41   C47   1.389824 A    
C78   H30   1.112053 S    
C75   H23   1.108761 S    
C50   C52   1.424974 A    
C11   C27   1.409509 A    
C49   C51   1.433272 A    
O7    Cu2   1.903588 S    
C94   C95   1.527001 S    
C29   C35   1.416166 A    
C90   H58   1.103273 S    
C35   C37   1.389728 A    
C98   H66   1.110764 S    
C57   C93   1.534684 S    
C90   C91   1.537750 S    
C59   C67   1.397424 A    
C10   C87   1.533944 S    
C9    C17   1.425408 A    
C92   H54   1.110372 S    
C5    N1    1.373798 A    
C53   C54   1.405254 A    
C10   C18   1.425632 A    
C64   N9    1.428439 S    
C76   H21   1.108297 S    
C13   C27   1.413338 A    
C60   C62   1.412116 A    
C81   C82   1.538934 S    
C7    C25   1.403294 A    
O6    C4    1.312139 A    
C8    C26   1.403539 A    
C51   C57   1.427323 A    
C55   C57   1.403712 A    
C73   H13   1.082470 S    
C6    O10   1.345232 S    
C6    N2    1.373763 A    
C82   H34   1.111945 S    
C97   C98   1.527056 S    
C64   C66   1.433260 A    
O7    C3    1.309735 A    
N9    O21   1.296683 A    
C67   C73   1.402824 A    
O3    Cu2   1.930296 S    
C38   H2    1.083588 S    
C88   C89   1.526209 S    
C8    O11   1.346895 S    
O4    C2    1.313317 A    
N2    C8    1.370582 A    
C93   H65   1.111000 S    
C82   H35   1.111776 S    
C84   H43   1.111151 S    
N12   O28   1.301672 A    
O1    Cu1   1.942070 S    
C91   H56   1.112228 S    
C75   C76   1.549693 S    
C62   C75   1.524806 S    
C84   H44   1.111164 S    
C83   H33   1.110432 S    
C30   C31   1.425472 A    
C12   C28   1.410174 A    
C24   C84   1.532106 S    
N10   O24   1.297806 A    
C77   H17   1.107311 S    
N2    C18   1.478206 S    
C30   C36   1.416093 A    
C5    O9    1.344597 S    
C93   C94   1.542083 S    
O6    Cu2   1.908526 S    
C96   H72   1.106277 S    
C21   C23   1.423425 A    
C46   H9    1.083555 S    
C87   H50   1.111355 S    
C91   C92   1.526066 S    
O3    C1    1.312685 A    
O8    Cu1   1.903586 S    
C96   H71   1.107253 S    
C48   C50   1.402361 A    
C80   H24   1.110905 S    
C65   C67   1.405174 A    
C74   H14   1.082866 S    
C98   H67   1.110759 S    
C26   C37   1.395327 A    
C78   C79   1.534243 S    
C66   C70   1.438376 A    
C43   C45   1.398229 A    
C69   C70   1.432275 A    
C36   H4    1.077350 S    
C82   C83   1.526990 S    
C23   C81   1.532095 S    
C14   C16   1.414309 A    
C91   H55   1.110449 S    
C15   N13   1.437392 S    
C89   H45   1.110876 S    
C15   C17   1.426072 A    
C40   H6    1.069752 S    
C76   H20   1.112433 S    
C6    C22   1.420879 A    
C22   C24   1.423484 A    
C49   C53   1.428538 A    
C54   C55   1.411131 A    
C80   H25   1.110757 S    
C87   C88   1.538360 S    
C79   H28   1.096840 S    
C68   C74   1.399513 A    
N3    C63   1.385116 A    
Cu1   N4    2.052727 S    
C14   C28   1.412032 A    
C70   C71   1.402323 A    
C19   C21   1.413873 A    
C81   H36   1.111151 S    
C3    C27   1.472525 S    
C20   C22   1.414043 A    
C9    C11   1.412591 A    
C96   C97   1.541423 S    
C88   H49   1.112103 S    
C92   H52   1.110826 S    
C75   H22   1.088047 S    
C53   C56   1.415793 A    
N16   O36   1.301334 A    
C89   H46   1.110959 S    
C97   H70   1.111733 S    
C79   C80   1.527466 S    
C93   H64   1.108432 S    
N15   O33   1.300609 A    
C23   C39   1.409223 A    
C32   C34   1.413404 A    
C94   H63   1.109748 S    
C77   H18   1.106972 S    
O5    Cu1   1.908526 S    
C69   C72   1.399630 A    
C24   C40   1.409003 A    
C13   N5    1.439933 S    
C71   C73   1.386204 A    
C59   C61   1.413242 A    
C44   N8    1.436154 S    
C9    C90   1.532633 S    
C95   H60   1.110745 S    
C19   C34   1.420120 A    
N12   O27   1.300695 A    
C20   C26   1.409105 A    
C52   C58   1.418790 A    
C20   C33   1.420113 A    
N15   O34   1.301222 A    
N13   O29   1.302162 A    
N5    O13   1.299788 A    
N14   O32   1.301427 A    
C29   C33   1.421566 A    
C60   C68   1.392312 A    
C30   C34   1.421475 A    
N10   O23   1.301298 A    
N1    C7    1.370865 A    
C11   N16   1.438663 S    
