data_mof_unit_19826.cif
_audit_creation_date              2012-12-10T18:13:47-0500
_audit_creation_method            fapswitch 2.2
_symmetry_space_group_name_H-M    P1
_symmetry_Int_Tables_number       1
_space_group_crystal_system       triclinic
_cell_length_a                    10.765236
_cell_length_b                    9.405824
_cell_length_c                    23.513219
_cell_angle_alpha                 90.209703
_cell_angle_beta                  89.741818
_cell_angle_gamma                 89.867365
_cell_volume                      2380.80591884

loop_
_atom_site_label
_atom_site_type_symbol
_atom_type_description
_atom_site_fract_x
_atom_site_fract_y
_atom_site_fract_z
_atom_type_partial_charge
C1    C     C_R   0.259485 0.500504 0.500429 0.750613
C2    C     C_R   0.324198 0.342247 0.970444 -0.043327
C3    C     C_R   0.323771 0.345093 0.029889 -0.202526
C4    C     C_R   0.419924 0.410374 0.060161 -0.023991
C5    C     C_R   0.519271 0.472847 0.030471 -0.014774
C6    C     C_R   0.616301 0.538399 0.060909 -0.025192
C7    C     C_R   0.715438 0.600515 0.031176 -0.162333
C8    C     C_R   0.718017 0.598626 0.971956 -0.149948
C9    C     C_R   0.418989 0.414819 0.119827 0.523212
C10   C     C_R   0.611156 0.541036 0.120561 0.583044
C11   C     C_R   0.594113 0.405490 0.242374 0.310723
C12   C     C_R   0.496831 0.499731 0.391177 0.811884
C13   C     C_R   0.588488 0.414454 0.301678 -0.340229
C14   C     C_R   0.497740 0.497887 0.328894 -0.134149
C15   C     C_R   0.408921 0.572914 0.296219 0.226694
C16   C     C_R   0.418481 0.567615 0.236717 -0.166866
C17   C     C_R   0.509267 0.484147 0.209740 0.273044
C18   C     C_R   0.487328 0.607990 0.765486 -0.173056
C19   C     C_R   0.476205 0.616695 0.706278 0.222204
C20   C     C_R   0.507473 0.497494 0.672138 -0.083859
C21   C     C_R   0.548246 0.371887 0.698726 -0.314369
C22   C     C_R   0.557012 0.363458 0.757837 0.027176
C23   C     C_R   0.739857 0.500033 0.498520 0.778663
C24   C     C_R   0.525820 0.482026 0.791386 0.285530
C25   C     C_3   0.069175 0.655032 0.487640 -0.148587
C26   C     C_3   0.067849 0.451918 0.559516 -0.146623
C27   C     C_3   0.926731 0.650596 0.482807 -0.405670
C28   C     C_3   0.923996 0.460614 0.558750 -0.399078
C29   C     C_3   0.072580 0.400936 0.453057 -0.401201
C30   C     C_3   0.120885 0.501946 0.500757 0.064123
C31   C     C_3   0.877300 0.500842 0.498614 0.122261
C32   C     C_3   0.929539 0.392974 0.454616 -0.387822
C33   C     C_3   0.621172 0.083240 0.481722 -0.190138
C34   C     C_3   0.621820 0.915799 0.482653 -0.189602
C35   C     C_3   0.476080 0.084265 0.558804 -0.187006
C36   C     C_3   0.474035 0.916936 0.558562 -0.171419
C37   C     C_3   0.403454 0.083722 0.463045 -0.181029
C38   C     C_3   0.405342 0.916277 0.462074 -0.193620
C39   C     C_R   0.500572 0.500035 0.609270 0.835655
C40   C     C_R   0.621907 0.534861 0.881606 0.552365
C41   C     C_R   0.428632 0.410457 0.879513 0.543612
C42   C     C_R   0.423323 0.406345 0.939660 -0.060526
C43   C     C_R   0.521326 0.470892 0.970343 -0.021107
C44   C     C_R   0.621380 0.534865 0.941138 -0.011530
Cu1   Cu    Cu3+1 0.499860 0.642410 0.500030 0.908461
Cu2   Cu    Cu3+1 0.499860 0.357590 0.500030 0.904234
H1    H     H_    0.573838 0.279722 0.673445 0.159563
H2    H     H_    0.108010 0.691686 0.446250 0.118278
H3    H     H_    0.102761 0.523309 0.593629 0.116297
H4    H     H_    0.882955 0.732849 0.510675 0.172519
H5    H     H_    0.892485 0.542643 0.589923 0.158526
H6    H     H_    0.899256 0.676747 0.438434 0.150837
H7    H     H_    0.880964 0.358423 0.572315 0.165717
H8    H     H_    0.103544 0.440508 0.410832 0.158048
H9    H     H_    0.111348 0.291894 0.457762 0.180648
H10   H     H_    0.891866 0.415801 0.411582 0.151046
H11   H     H_    0.900714 0.283151 0.466131 0.174765
H12   H     H_    0.697269 0.121624 0.509606 0.146348
H13   H     H_    0.696143 0.880372 0.512048 0.141719
H14   H     H_    0.247136 0.296109 0.052572 0.188611
H15   H     H_    0.642741 0.121432 0.438054 0.139772
H16   H     H_    0.646603 0.873921 0.439759 0.146212
H17   H     H_    0.549332 0.120413 0.588703 0.138349
H18   H     H_    0.544336 0.878188 0.589369 0.163401
H19   H     H_    0.309848 0.120186 0.476989 0.156995
H20   H     H_    0.311707 0.876738 0.473657 0.156819
H21   H     H_    0.416864 0.124069 0.419081 0.149918
H22   H     H_    0.423470 0.879033 0.417889 0.147837
H23   H     H_    0.386333 0.125609 0.575606 0.178593
H24   H     H_    0.382148 0.879216 0.573671 0.188524
H25   H     H_    0.791199 0.651244 0.053540 0.188842
H26   H     H_    0.795739 0.648122 0.950407 0.193167
H27   H     H_    0.655092 0.355307 0.326779 0.148495
H28   H     H_    0.354746 0.628216 0.210794 0.162513
H29   H     H_    0.461554 0.698266 0.791801 0.152923
N1    N     N_R   0.526456 0.473971 0.852328 -0.461916
N2    N     N_R   0.513723 0.479321 0.148699 -0.449781
N3    N     N_3   0.500250 0.143650 0.501250 -0.121326
N4    N     N_3   0.500250 0.856350 0.501250 -0.125099
O1    O     O_R   0.317570 0.620260 0.500030 -0.595132
O2    O     O_R   0.317570 0.379740 0.500030 -0.584090
O3    O     O_R   0.499840 0.620290 0.417900 -0.597226
O4    O     O_R   0.499840 0.379710 0.417900 -0.583634
O5    O     O_R   0.682190 0.620260 0.500010 -0.598772
O6    O     O_R   0.682190 0.379740 0.500010 -0.599705
O7    O     O_R   0.499920 0.620230 0.582140 -0.556820
O8    O     O_R   0.499920 0.379770 0.582140 -0.595698
O9    O     O_2   0.716773 0.595719 0.853023 -0.526159
O10   O     O_2   0.336862 0.353293 0.848052 -0.522843
O11   O     O_2   0.324643 0.354251 0.148880 -0.546607
O12   O     O_2   0.702036 0.605862 0.150223 -0.539326
C45   C     C_1   0.220632 0.272292 0.943303 0.349033
N5    N     N_1   0.137487 0.216137 0.921810 -0.228707
N6    N     N_2   0.427937 0.743412 0.682169 -0.445408
H30   H     H_    0.459394 0.834359 0.702056 0.252894
C46   C     C_3   0.294170 0.743078 0.677002 -0.638364
H31   H     H_    0.262503 0.847126 0.660333 0.241136
H32   H     H_    0.249686 0.726570 0.719237 0.235478
H33   H     H_    0.264587 0.657845 0.647225 0.228403
C47   C     C_1   0.597715 0.232458 0.783572 0.280177
N7    N     N_1   0.630244 0.127367 0.804239 -0.259527
C48   C     C_1   0.103535 0.762625 0.530863 0.223370
N8    N     N_1   0.129015 0.847696 0.564443 -0.310229
C49   C     C_1   0.108232 0.306680 0.574727 0.252246
N9    N     N_1   0.139352 0.192892 0.586724 -0.287932
N10   N     N_2   0.686365 0.319246 0.215693 -0.407210
H34   H     H_    0.767500 0.311251 0.238672 0.253209
C50   C     C_3   0.642306 0.181671 0.197065 -0.643665
H35   H     H_    0.718637 0.123899 0.174952 0.234703
H36   H     H_    0.564130 0.193429 0.166850 0.248857
H37   H     H_    0.611429 0.117855 0.234214 0.219140
N11   N     N_2   0.309302 0.651292 0.322036 -0.438364
H38   H     H_    0.315210 0.669008 0.365101 0.252019
C51   C     C_3   0.185363 0.609259 0.305233 -0.686420
H39   H     H_    0.171148 0.494190 0.313504 0.224907
H40   H     H_    0.169601 0.631516 0.259533 0.252638
H41   H     H_    0.115523 0.670887 0.330092 0.212553

loop_
_geom_bond_atom_site_label_1
_geom_bond_atom_site_label_2
_ccdc_geom_bond_type
C41   O10   S    
C18   H29   S    
C41   C42   A    
C19   C20   A    
C39   O8    A    
N11   C51   S    
C51   H39   S    
C7    C8    A    
Cu1   Cu2   S    
C33   H12   S    
C18   C24   A    
C45   N5    T    
C37   C38   S    
C29   C32   S    
C7    H25   S    
C5    C6    A    
C28   H5    S    
C33   N3    S    
Cu1   O3    S    
C29   H8    S    
C1    O2    A    
C15   C16   A    
C46   H33   S    
C34   H16   S    
C50   H35   S    
C18   C19   A    
C49   N9    T    
C26   C49   S    
C38   H20   S    
C16   C17   A    
C46   H32   S    
C27   H4    S    
Cu2   O6    S    
C3    H14   S    
C35   H17   S    
C5    C43   A    
C21   C22   A    
N6    H30   S    
C32   H11   S    
C38   N4    S    
N11   H38   S    
C10   N2    A    
C36   H24   S    
C8    H26   S    
C22   C47   S    
C23   O5    A    
C27   C31   S    
C26   H3    S    
Cu2   N3    S    
C20   C39   S    
C24   N1    S    
C29   H9    S    
C40   N1    A    
C12   O4    A    
C37   H19   S    
C35   C36   S    
C23   C31   S    
N6    C46   S    
C43   C44   A    
C29   C30   S    
C34   N4    S    
Cu2   O2    S    
C31   C32   S    
C46   H31   S    
C11   N10   S    
C17   N2    S    
C33   C34   S    
C12   O3    A    
Cu1   N4    S    
C9    N2    A    
C2    C45   S    
C25   H2    S    
C19   N6    S    
C13   H27   S    
C10   O12   S    
C26   C30   S    
C23   O6    A    
C34   H13   S    
C16   H28   S    
Cu1   O5    S    
C42   C43   A    
C3    C4    A    
C27   H6    S    
Cu2   O8    S    
C25   C30   S    
C11   C17   A    
C15   N11   S    
C28   C31   S    
C8    C44   A    
C38   H22   S    
C4    C5    A    
C36   N4    S    
C9    O11   S    
C6    C10   A    
C51   H40   S    
C28   H7    S    
C6    C7    A    
C25   C27   S    
C37   N3    S    
C35   N3    S    
C26   C28   S    
C50   H37   S    
C40   O9    S    
Cu1   O7    S    
C12   C14   S    
C36   H18   S    
C41   N1    A    
C11   C13   A    
N10   C50   S    
C2    C42   A    
C37   H21   S    
C1    C30   S    
C50   H36   S    
C2    C3    A    
Cu1   O1    S    
C22   C24   A    
C48   N8    T    
C25   C48   S    
C51   H41   S    
Cu2   O4    S    
C40   C44   A    
C20   C21   A    
C35   H23   S    
C33   H15   S    
N10   H34   S    
C1    O1    A    
C14   C15   A    
C47   N7    T    
C39   O7    A    
C4    C9    A    
C13   C14   A    
C32   H10   S    
C21   H1    S    
