data_mof_unit_49860.cif
_audit_creation_date              2012-10-26T20:00:13-0400
_audit_creation_method            fapswitch 2.2
_symmetry_space_group_name_H-M    P1
_symmetry_Int_Tables_number       1
_space_group_crystal_system       triclinic
_cell_length_a                    23.48046
_cell_length_b                    10.8993
_cell_length_c                    9.747161
_cell_angle_alpha                 90.898506
_cell_angle_beta                  90.620854
_cell_angle_gamma                 90.139282
_cell_volume                      2494.0374863

loop_
_atom_site_label
_atom_site_type_symbol
_atom_type_description
_atom_site_fract_x
_atom_site_fract_y
_atom_site_fract_z
_atom_type_partial_charge
C1    C     C_R   0.499671 0.265437 0.499238 0.577643
C2    C     C_R   0.120034 0.595553 0.440498 0.407923
C3    C     C_R   0.240369 0.607635 0.563531 -0.051086
C4    C     C_R   0.391326 0.502195 0.499892 0.583755
C5    C     C_R   0.300002 0.610917 0.558333 0.024280
C6    C     C_R   0.329120 0.508514 0.501380 -0.013220
C7    C     C_R   0.298345 0.405443 0.455487 -0.179126
C8    C     C_R   0.239080 0.404872 0.458353 -0.065904
C9    C     C_R   0.209790 0.506284 0.511661 0.205562
C10   C     C_R   0.762892 0.422178 0.412559 0.079253
C11   C     C_R   0.702457 0.417461 0.410103 0.010805
C12   C     C_R   0.970521 0.335982 0.664143 -0.103877
C13   C     C_R   0.671436 0.493531 0.502173 -0.028402
C14   C     C_R   0.700430 0.570748 0.595459 -0.154123
C15   C     C_R   0.759453 0.576573 0.596114 -0.068214
C16   C     C_R   0.502033 0.734540 0.501068 0.599519
C17   C     C_R   0.790819 0.503771 0.505431 0.194364
C18   C     C_2   0.511108 0.931777 0.390390 -0.153095
C19   C     C_2   0.506771 0.866814 0.505395 -0.075890
C20   C     C_2   0.515039 0.065770 0.393019 -0.135760
C21   C     C_2   0.496711 0.133196 0.499417 -0.093390
C22   C     C_2   0.483356 0.408861 0.922688 -0.019985
C23   C     C_R   0.029807 0.334721 0.663561 -0.111415
C24   C     C_2   0.471580 0.421645 0.073458 0.066019
C25   C     C_R   0.608834 0.497400 0.500535 0.571579
C26   C     C_R   0.879513 0.599624 0.442484 0.459223
C27   C     C_R   0.880631 0.425271 0.588182 0.424171
C28   C     C_R   0.940197 0.425376 0.591400 0.039813
C29   C     C_R   0.969931 0.516032 0.518868 -0.041709
C30   C     C_R   0.939711 0.608083 0.447287 0.007633
C31   C     C_2   0.672046 0.333611 0.312248 0.619272
C32   C     C_R   0.493092 0.621436 0.897208 0.186344
C33   C     C_R   0.541090 0.697969 0.909440 -0.080285
C34   C     C_R   0.060081 0.422507 0.589731 0.036368
C35   C     C_R   0.535089 0.820423 0.951697 -0.136836
C36   C     C_R   0.481078 0.867744 0.979473 -0.123164
C37   C     C_R   0.432916 0.792932 0.964267 -0.111189
C38   C     C_R   0.438733 0.670437 0.922071 -0.042192
C39   C     C_R   0.424777 0.345063 0.123512 0.089432
C40   C     C_R   0.369164 0.391952 0.124132 -0.072339
C41   C     C_R   0.322806 0.313693 0.144000 -0.123769
C42   C     C_R   0.331742 0.188700 0.165829 -0.110378
C43   C     C_R   0.386960 0.141253 0.164072 -0.121697
C44   C     C_R   0.433169 0.218708 0.139684 -0.093868
C45   C     C_R   0.030110 0.513518 0.517455 -0.029894
C46   C     C_2   0.944899 0.811149 0.318372 0.632912
C47   C     C_2   0.329763 0.722766 0.611531 0.565429
C48   C     C_2   0.797375 0.339322 0.323698 0.645976
C49   C     C_R   0.060320 0.601192 0.443046 0.007712
C50   C     C_R   0.030598 0.693789 0.374860 -0.112154
C51   C     C_R   0.971102 0.700988 0.379515 0.042294
C52   C     C_R   0.119841 0.421909 0.586768 0.410369
Cu1   Cu    Cu3+1 0.500010 0.500020 0.638630 0.982178
Cu2   Cu    Cu3+1 0.499990 0.499980 0.361370 0.998362
H1    H     H_    0.948531 0.266007 0.721028 0.180193
H2    H     H_    0.535497 0.536709 0.112766 0.221039
H3    H     H_    0.053927 0.764075 0.321306 0.192922
H4    H     H_    0.217120 0.684975 0.605760 0.180589
H5    H     H_    0.320490 0.324263 0.419944 0.132881
H6    H     H_    0.215909 0.325369 0.419609 0.149255
H7    H     H_    0.662239 0.272874 0.116882 0.343213
H8    H     H_    0.582991 0.662316 0.886580 0.120002
H9    H     H_    0.572272 0.878826 0.962218 0.128471
H10   H     H_    0.476541 0.962595 0.011777 0.104141
H11   H     H_    0.391062 0.830105 0.984242 0.125220
H12   H     H_    0.677152 0.629160 0.666132 0.136187
H13   H     H_    0.401117 0.613819 0.907918 0.116030
H14   H     H_    0.361604 0.488212 0.105141 0.117648
H15   H     H_    0.279956 0.350083 0.143310 0.136239
H16   H     H_    0.295849 0.128505 0.182626 0.137095
H17   H     H_    0.393816 0.044043 0.177990 0.121438
H18   H     H_    0.475276 0.180050 0.129109 0.092344
H19   H     H_    0.940598 0.924245 0.156814 0.356131
H20   H     H_    0.328020 0.870436 0.739005 0.338694
H21   H     H_    0.865201 0.319410 0.200015 0.351584
H22   H     H_    0.781169 0.637735 0.668123 0.155979
H23   H     H_    0.513056 0.886042 0.290730 0.153474
H24   H     H_    0.508726 0.909721 0.606397 0.111659
H25   H     H_    0.532610 0.109581 0.303670 0.166647
H26   H     H_    0.478444 0.092338 0.589543 0.098370
H27   H     H_    0.474907 0.320576 0.873674 0.132238
H28   H     H_    0.051783 0.264126 0.720294 0.175067
N1    N     N_R   0.851841 0.510044 0.512810 -0.388879
N2    N     N_R   0.148572 0.507382 0.512454 -0.394065
N3    N     N_2   0.499380 0.498660 0.846910 -0.271528
N4    N     N_2   0.499370 0.498630 0.153040 -0.349661
O1    O     O_R   0.500010 0.321960 0.617040 -0.511506
O2    O     O_R   0.582130 0.500060 0.617050 -0.498787
O3    O     O_R   0.582110 0.500020 0.382900 -0.482513
O4    O     O_2   0.848588 0.676215 0.364259 -0.409265
O5    O     O_2   0.635004 0.264689 0.353404 -0.509013
O6    O     O_R   0.685923 0.333596 0.173118 -0.658843
O7    O     O_2   0.912202 0.874637 0.385518 -0.438663
O8    O     O_R   0.960392 0.846339 0.186589 -0.675237
O9    O     O_2   0.376164 0.752127 0.566902 -0.519435
O10   O     O_R   0.303800 0.796837 0.711138 -0.704515
O11   O     O_2   0.784573 0.230869 0.311012 -0.447881
O12   O     O_2   0.851507 0.340073 0.658151 -0.461743
O13   O     O_R   0.844980 0.384868 0.256044 -0.660719
O14   O     O_2   0.149011 0.337410 0.658660 -0.489512
O15   O     O_2   0.149383 0.677158 0.365954 -0.488508
O16   O     O_R   0.499990 0.321920 0.382900 -0.477972
O17   O     O_R   0.417890 0.499980 0.617100 -0.490391
O18   O     O_R   0.417870 0.499940 0.382950 -0.485041
O19   O     O_R   0.500010 0.678080 0.617100 -0.483464
O20   O     O_R   0.499990 0.678040 0.382960 -0.492834

loop_
_geom_bond_atom_site_label_1
_geom_bond_atom_site_label_2
_ccdc_geom_bond_type
C1    O1    A    
C30   C51   A    
C27   O12   S    
C1    C21   S    
C26   N1    A    
C23   H28   S    
C41   C42   A    
C2    N2    A    
C35   C36   A    
C7    C8    A    
Cu1   Cu2   S    
C48   O11   D    
C5    C47   S    
C12   C23   A    
C37   C38   A    
C12   C28   A    
Cu2   O18   S    
C36   C37   A    
C16   C19   S    
C5    C6    A    
C10   C17   A    
C4    O17   A    
C42   H16   S    
C24   C39   S    
C18   C19   D    
C22   N3    D    
C52   N2    A    
C33   H8    S    
C37   H11   S    
C47   O10   S    
C32   C38   A    
H7    O6    S    
C16   O20   A    
C15   H22   S    
C11   C31   S    
C13   C14   A    
C13   C25   S    
H19   O8    S    
C7    H5    S    
Cu2   O20   S    
C22   H27   S    
H20   O10   S    
Cu2   O3    S    
C4    C6    S    
C39   C40   A    
Cu2   N4    S    
C8    C9    A    
C2    O15   S    
C46   C51   S    
C52   O14   S    
C25   O2    A    
C29   C45   A    
C17   N1    S    
C19   H24   S    
C43   C44   A    
C29   C30   A    
C3    C9    A    
C2    C49   A    
H2    N4    S    
C46   O8    S    
C45   C49   A    
C23   C34   A    
H21   O13   S    
C50   C51   A    
C14   H12   S    
Cu1   O1    S    
C34   C45   A    
C38   H13   S    
C6    C7    A    
C16   O19   A    
C40   C41   A    
C26   C30   A    
C31   O5    D    
C10   C48   S    
C49   C50   A    
C22   C24   S    
C42   C43   A    
C41   H15   S    
C15   C17   A    
C48   O13   S    
C28   C29   A    
C43   H17   S    
C20   H25   S    
C50   H3    S    
C34   C52   A    
Cu2   O16   S    
C3    C5    A    
Cu1   N3    S    
C39   C44   A    
C26   O4    S    
C25   O3    A    
C32   C33   A    
C27   N1    A    
C8    H6    S    
C11   C13   A    
C46   O7    D    
Cu1   O17   S    
C18   H23   S    
C32   N3    S    
C4    O18   A    
C21   H26   S    
C33   C35   A    
C44   H18   S    
Cu1   O2    S    
C18   C20   S    
C12   H1    S    
C10   C11   A    
C9    N2    S    
C3    H4    S    
Cu1   O19   S    
C20   C21   D    
C31   O6    S    
C40   H14   S    
C27   C28   A    
C47   O9    D    
C14   C15   A    
C35   H9    S    
C36   H10   S    
C24   N4    D    
C1    O16   A    
