data_mof_unit_20728.cif
_audit_creation_date              2012-12-11T16:41:40-0500
_audit_creation_method            fapswitch 2.2
_symmetry_space_group_name_H-M    P1
_symmetry_Int_Tables_number       1
_space_group_crystal_system       triclinic
_cell_length_a                    8.314901
_cell_length_b                    17.508699
_cell_length_c                    18.896404
_cell_angle_alpha                 99.658359
_cell_angle_beta                  92.029395
_cell_angle_gamma                 95.994212
_cell_volume                      2693.24177401

loop_
_atom_site_label
_atom_site_type_symbol
_atom_type_description
_atom_site_fract_x
_atom_site_fract_y
_atom_site_fract_z
_atom_type_partial_charge
Ba1   Ba    Ba6+2 0.849550 0.533890 0.465080 1.634668
Ba2   Ba    Ba6+2 0.340280 0.466170 0.534930 1.651833
C1    C     C_3   0.623751 0.793528 0.230376 -0.358515
C2    C     C_R   0.902436 0.416139 0.095368 0.122576
C3    C     C_R   0.759783 0.447604 0.954938 -0.084892
C4    C     C_3   0.062449 0.678551 0.271419 0.317059
C5    C     C_R   0.923572 0.469280 0.978698 0.034926
C6    C     C_R   0.706648 0.446421 0.884052 -0.106693
C7    C     C_R   0.812164 0.471219 0.834056 -0.038632
C8    C     C_R   0.969971 0.505691 0.858619 -0.022677
C9    C     C_R   0.025417 0.504695 0.931362 0.017022
C10   C     C_R   0.765171 0.461562 0.760275 -0.014352
C11   C     C_R   0.879811 0.483271 0.711624 -0.091831
C12   C     C_3   0.611602 0.732126 0.280271 0.599630
C13   C     C_R   0.024130 0.530636 0.735492 0.098614
C14   C     C_R   0.070495 0.542672 0.811227 -0.045643
C15   C     C_R   0.144387 0.497846 0.073289 -0.004668
C16   C     C_3   0.036797 0.691908 0.193824 -0.102994
C17   C     C_R   0.205449 0.497211 0.145047 -0.008757
C18   C     C_R   0.108255 0.462177 0.193632 -0.064820
C19   C     C_R   0.962124 0.418541 0.166296 -0.041621
C20   C     C_R   0.211712 0.589446 0.842813 0.155169
C21   C     C_R   0.266182 0.586705 0.913064 -0.104145
C22   C     C_R   0.181351 0.540403 0.956499 -0.000056
C23   C     C_3   0.476210 0.342521 0.315557 0.308484
C24   C     C_R   0.244023 0.533920 0.025974 0.040366
C25   C     C_R   0.407349 0.559376 0.048446 -0.104734
C26   C     C_R   0.365555 0.530397 0.167840 -0.022473
C27   C     C_R   0.466372 0.557621 0.117562 -0.097514
C28   C     C_3   0.181274 0.707319 0.617183 0.377322
C29   C     C_R   0.420809 0.534687 0.240113 0.025656
C30   C     C_R   0.317595 0.507345 0.289021 -0.295835
C31   C     C_R   0.164064 0.469336 0.267123 0.044913
C32   C     C_R   0.407834 0.722188 0.476098 -0.270211
C33   C     C_R   0.553365 0.750297 0.515686 0.059238
C34   C     C_3   0.459349 0.317531 0.234321 -0.388879
C35   C     C_R   0.604812 0.831619 0.528688 0.080177
C36   C     C_R   0.508023 0.882383 0.500796 0.009711
C37   C     C_R   0.358491 0.852923 0.463782 -0.173251
C38   C     C_R   0.307281 0.772695 0.452661 0.011012
C39   C     C_R   0.579282 0.162285 0.485809 0.091538
C40   C     C_3   0.149673 0.792413 0.632648 -0.362117
C41   C     C_R   0.637766 0.241724 0.488382 0.027046
C42   C     C_R   0.878737 0.225579 0.558671 -0.007935
C43   C     C_R   0.822027 0.146803 0.556912 -0.181141
C44   C     C_R   0.671831 0.115233 0.521143 0.012193
C45   C     C_3   0.058501 0.248294 0.724772 0.435642
C46   C     C_1   0.615387 0.033175 0.516317 0.021172
C47   C     C_1   0.564485 0.964857 0.509676 0.026344
C48   C     C_R   0.785495 0.271741 0.524693 -0.296002
C49   C     C_3   0.969208 0.294690 0.378046 0.308273
C50   C     C_3   0.948849 0.206080 0.359899 -0.383822
C51   C     C_3   0.604435 0.687750 0.695975 0.418614
C52   C     C_3   0.616979 0.758706 0.757387 -0.094048
C53   C     C_3   0.128399 0.211071 0.786148 -0.111682
C54   C     C_3   0.579647 0.271341 0.697238 0.372082
C55   C     C_3   0.555588 0.191214 0.720147 -0.103734
C56   C     C_R   0.985919 0.461882 0.049162 0.019906
H1    H     H_    0.247275 0.827465 0.669330 0.127681
H2    H     H_    0.427670 0.366679 0.208383 0.054707
H3    H     H_    0.575540 0.299244 0.213918 0.118945
H4    H     H_    0.562014 0.768514 0.177185 0.119316
H5    H     H_    0.941286 0.213832 0.703851 -0.024324
H6    H     H_    0.712079 0.289877 0.698740 -0.095132
H7    H     H_    0.528337 0.265120 0.641035 0.042900
H8    H     H_    0.428423 0.164848 0.706652 0.112312
H9    H     H_    0.581034 0.425599 0.869326 0.105557
H10   H     H_    0.360476 0.512624 0.344565 0.065788
H11   H     H_    0.667191 0.433905 0.990594 0.112806
H12   H     H_    0.144786 0.816368 0.581925 0.070838
H13   H     H_    0.282396 0.892086 0.443809 0.088774
H14   H     H_    0.896197 0.109920 0.581332 0.074592
H15   H     H_    0.303357 0.703747 0.597602 -0.111461
H16   H     H_    0.640813 0.810738 0.374779 0.126484
H17   H     H_    0.813256 0.789041 0.338947 0.213117
H18   H     H_    0.059620 0.312824 0.424014 0.077168
H19   H     H_    0.853535 0.186071 0.316112 0.128202
H20   H     H_    0.913564 0.180500 0.407627 0.071889
H21   H     H_    0.762308 0.627942 0.745420 0.127754
H22   H     H_    0.633728 0.572310 0.681414 0.180686
H23   H     H_    0.032546 0.797464 0.658559 0.128400
H24   H     H_    0.751810 0.813029 0.222086 0.097520
H25   H     H_    0.577537 0.740916 0.808545 0.073162
H26   H     H_    0.570764 0.843211 0.698136 0.183215
H27   H     H_    0.521081 0.862027 0.784483 0.183713
H28   H     H_    0.389137 0.763876 0.308019 0.155957
H29   H     H_    0.429321 0.681947 0.334289 0.130367
H30   H     H_    0.566081 0.845840 0.253770 0.076351
H31   H     H_    0.362411 0.268095 0.219744 0.130618
H32   H     H_    0.227611 0.778050 0.200050 0.211895
H33   H     H_    0.272439 0.687214 0.165927 0.197118
H34   H     H_    0.851645 0.315124 0.392617 0.006376
H35   H     H_    0.946316 0.331697 0.788994 0.122029
H36   H     H_    0.141549 0.360603 0.775030 0.203435
H37   H     H_    0.232608 0.250137 0.815023 0.123126
H38   H     H_    0.910640 0.157149 0.810419 0.194487
H39   H     H_    0.969177 0.245270 0.863671 0.181584
H40   H     H_    0.174143 0.155461 0.762503 0.109478
H41   H     H_    0.635223 0.152015 0.689343 0.060995
H42   H     H_    0.953990 0.643334 0.284958 0.119492
H43   H     H_    0.499535 0.219019 0.825809 0.207008
H44   H     H_    0.697953 0.235553 0.812606 0.177540
H45   H     H_    0.064888 0.185028 0.342238 0.124962
H46   H     H_    0.819332 0.393852 0.630222 0.150211
H47   H     H_    0.775234 0.484317 0.612641 0.203937
H48   H     H_    0.893297 0.383323 0.198947 0.101862
H49   H     H_    0.298944 0.699126 0.834922 0.164654
H50   H     H_    0.419991 0.629276 0.806902 0.197173
H51   H     H_    0.592747 0.577887 0.130519 0.113713
H52   H     H_    0.668976 0.374087 0.102579 0.172534
H53   H     H_    0.792921 0.305374 0.075308 0.177205
H54   H     H_    0.374259 0.624773 0.933456 0.060422
H55   H     H_    0.164776 0.643486 0.274602 -0.000545
H56   H     H_    0.480348 0.677271 0.671546 0.080597
H57   H     H_    0.494807 0.579130 0.012759 0.068980
H58   H     H_    0.380739 0.164376 0.416505 0.201464
H59   H     H_    0.348237 0.111981 0.482365 0.190591
H60   H     H_    0.800303 0.825492 0.597802 0.197548
H61   H     H_    0.837321 0.880087 0.533530 0.197839
H62   H     H_    0.367691 0.660310 0.466655 0.063456
H63   H     H_    0.834768 0.330478 0.521262 0.060711
H64   H     H_    0.994324 0.635178 0.158856 0.082775
H65   H     H_    0.941391 0.731016 0.190684 0.137425
H66   H     H_    0.094051 0.676797 0.573954 0.093365
H67   H     H_    0.745849 0.784657 0.767807 0.100060
H68   H     H_    0.358691 0.359912 0.334784 0.016000
H69   H     H_    0.571202 0.393086 0.328133 0.064269
N1    N     N_3   0.698754 0.764362 0.349219 -0.442833
N2    N     N_3   0.300855 0.642829 0.805879 -0.453995
N3    N     N_3   0.764677 0.360977 0.069812 -0.516659
N4    N     N_3   0.432169 0.126741 0.445636 -0.497683
N5    N     N_3   0.752079 0.864801 0.569673 -0.513375
N6    N     N_3   0.641630 0.618585 0.724853 -0.503947
N7    N     N_3   0.517336 0.817729 0.739431 -0.514655
N8    N     N_3   0.440228 0.712233 0.291353 -0.514152
N9    N     N_3   0.184620 0.725822 0.166115 -0.501338
N10   N     N_3   0.033553 0.329810 0.750399 -0.496641
N11   N     N_3   0.009059 0.193587 0.837818 -0.510859
N12   N     N_3   0.594086 0.196039 0.797121 -0.489697
N13   N     N_3   0.856202 0.453381 0.636642 -0.446844
O1    O     O_2   0.878040 0.448040 0.325130 -0.465114
O2    O     O_2   0.198572 0.231755 0.535228 -0.489905
O3    O     O_3   0.171093 0.244593 0.670604 -0.579587
O4    O     O_3   0.126800 0.453980 0.414370 -0.491420
O5    O     O_3   0.569440 0.593820 0.536390 -0.494537
O6    O     O_2   0.359400 0.311980 0.465480 -0.453851
O7    O     O_3   0.518961 0.279732 0.346775 -0.641761
O8    O     O_2   0.426171 0.467644 0.756333 -0.470988
O9    O     O_3   0.500092 0.325268 0.743407 -0.592003
O10   O     O_3   0.651020 0.589120 0.368830 -0.457718
O11   O     O_2   0.748721 0.524304 0.242609 -0.512563
O12   O     O_3   0.721758 0.703802 0.647251 -0.647192
O13   O     O_3   0.020736 0.324180 0.317399 -0.641158
O14   O     O_3   0.684632 0.667101 0.245669 -0.618348
O15   O     O_2   0.830300 0.688050 0.534560 -0.444178
O16   O     O_3   0.068750 0.630380 0.404830 -0.495005
O17   O     O_2   0.971096 0.769185 0.448127 -0.484319
O18   O     O_3   0.087255 0.750080 0.319579 -0.627390
O19   O     O_2   0.311660 0.551990 0.674910 -0.446696
O20   O     O_3   0.062910 0.546080 0.585630 -0.484458
O21   O     O_3   0.538690 0.410940 0.631180 -0.483137
O22   O     O_3   0.170073 0.676416 0.680973 -0.618959
O23   O     O_3   0.620260 0.406250 0.463620 -0.483982
O24   O     O_3   0.120960 0.369680 0.595180 -0.428978
P1    P     P_3+3 0.048060 0.426210 0.336320 0.970768
P2    P     P_3+3 0.655920 0.678120 0.556130 0.971877
P3    P     P_3+3 0.108916 0.731103 0.407757 0.924000
P4    P     P_3+3 0.141640 0.573850 0.663690 1.040915
P5    P     P_3+3 0.086672 0.267904 0.591721 0.983535
P6    P     P_3+3 0.625336 0.578412 0.275193 0.942757
P7    P     P_3+3 0.536966 0.308355 0.440287 0.938110
P8    P     P_3+3 0.557906 0.418100 0.724133 0.962786

loop_
_geom_bond_atom_site_label_1
_geom_bond_atom_site_label_2
_ccdc_geom_bond_type
C34   H31   S    
C50   H45   S    
C25   C27   A    
O9    P8    S    
Ba2   O4    S    
Ba1   O5    S    
C17   C18   A    
C55   H8    S    
H49   N2    S    
O17   P3    D    
H43   N12   S    
C10   P8    S    
C36   C47   S    
C43   C44   A    
C54   C55   S    
Ba2   O5    S    
C5    C9    A    
C21   H54   S    
C48   H63   S    
H26   N7    S    
C24   C25   A    
O11   P6    D    
C32   C38   A    
C15   C24   A    
C27   H51   S    
C26   C27   A    
C33   C35   A    
C22   C24   A    
Ba1   Ba2   S    
H38   N11   S    
C36   C37   A    
C32   C33   A    
C12   N8    S    
O15   P2    D    
C13   C14   A    
C55   H41   S    
C45   O3    S    
C9    C22   A    
C40   H12   S    
C33   P2    S    
C12   N1    S    
O19   P4    D    
C55   N12   S    
H17   N1    S    
Ba1   O15   S    
C42   P5    S    
C38   P3    S    
C3    H11   S    
C15   C17   A    
O21   P8    S    
Ba1   O1    S    
H16   N1    S    
H33   N9    S    
C6    C7    A    
C51   O12   S    
C21   C22   A    
C54   H6    S    
C16   N9    S    
O23   P7    S    
C7    C8    A    
C5    C56   A    
C19   H48   S    
C16   H65   S    
C30   H10   S    
C45   C53   S    
O6    P7    D    
C12   O14   S    
C43   H14   S    
C39   C41   A    
O24   P5    S    
C40   H23   S    
C50   H20   S    
Ba2   O21   S    
C52   H25   S    
C4    O18   S    
O7    P7    S    
O18   P3    S    
O5    P2    S    
C26   C29   A    
C32   H62   S    
H21   N6    S    
C52   H67   S    
C44   C46   S    
C4    C16   S    
C49   C50   S    
C11   N13   S    
H29   N8    S    
H60   N5    S    
C49   H18   S    
O3    P5    S    
C53   H37   S    
Ba2   O24   S    
C37   C38   A    
C39   N4    S    
C28   H15   S    
C41   P7    S    
C50   H19   S    
Ba2   O19   S    
C2    N3    S    
O16   P3    S    
C51   C52   S    
H22   N6    S    
H46   N13   S    
C4    H42   S    
C40   H1    S    
Ba1   O16   S    
C23   H68   S    
C4    H55   S    
C35   C36   A    
C49   H34   S    
H32   N9    S    
H53   N3    S    
C29   C30   A    
Ba1   P1    S    
C39   C44   A    
C45   N10   S    
C1    H24   S    
H61   N5    S    
C51   N6    S    
Ba1   O10   S    
C23   O7    S    
C10   C11   A    
C17   C26   A    
C53   N11   S    
H50   N2    S    
C1    C12   S    
C16   H64   S    
O2    P5    D    
O22   P4    S    
C18   C31   A    
C46   C47   T    
C28   H66   S    
C11   C13   A    
C20   N2    S    
C13   P4    S    
C28   O22   S    
C34   H3    S    
Ba2   P4    S    
H39   N11   S    
C51   H56   S    
C3    C5    A    
C1    H4    S    
C42   C48   A    
C49   O13   S    
H27   N7    S    
C14   C20   A    
O13   P1    S    
C1    H30   S    
Ba1   O20   S    
C31   P1    S    
C42   C43   A    
C34   H2    S    
Ba2   O23   S    
C3    C6    A    
O12   P2    S    
C41   C48   A    
C29   P6    S    
Ba2   O6    S    
C15   C56   A    
O1    P1    D    
C35   N5    S    
O4    P1    S    
C30   C31   A    
C23   H69   S    
Ba1   O4    S    
C8    C14   A    
H47   N13   S    
C45   H5    S    
C2    C19   A    
O14   P6    S    
O10   P6    S    
H58   N4    S    
Ba1   P2    S    
C53   H40   S    
O8    P8    D    
H52   N3    S    
H44   N12   S    
O20   P4    S    
H59   N4    S    
C7    C10   A    
H35   N10   S    
C8    C9    A    
C23   C34   S    
H28   N8    S    
C18   C19   A    
Ba1   O23   S    
C6    H9    S    
Ba2   O20   S    
C2    C56   A    
H36   N10   S    
C37   H13   S    
C20   C21   A    
C28   C40   S    
C54   O9    S    
C54   H7    S    
C25   H57   S    
C52   N7    S    
