data_mof_unit_39444.cif
_audit_creation_date              2012-10-26T20:40:18-0400
_audit_creation_method            fapswitch 2.2
_symmetry_space_group_name_H-M    P1
_symmetry_Int_Tables_number       1
_space_group_crystal_system       triclinic
_cell_length_a                    15.080285
_cell_length_b                    10.865315
_cell_length_c                    9.568184
_cell_angle_alpha                 90.429964
_cell_angle_beta                  90.006206
_cell_angle_gamma                 92.577328
_cell_volume                      1566.13639063

loop_
_atom_site_label
_atom_site_type_symbol
_atom_type_description
_atom_site_fract_x
_atom_site_fract_y
_atom_site_fract_z
_atom_type_partial_charge
C1    C     C_R   0.507167 0.263108 0.500256 0.551888
C2    C     C_R   0.185278 0.501483 0.372894 -0.137727
C3    C     C_R   0.231698 0.500940 0.500024 -0.013718
C4    C     C_R   0.328629 0.499915 0.500011 0.556460
C5    C     C_R   0.185310 0.501812 0.627176 -0.138214
C6    C     C_R   0.560047 0.123364 0.753837 -0.094731
C7    C     C_R   0.550883 0.065800 0.882906 -0.131538
C8    C     C_R   0.507279 0.950906 0.891240 -0.125365
C9    C     C_R   0.481144 0.888360 0.769263 -0.097545
C10   C     C_R   0.499185 0.939939 0.635714 0.024432
C11   C     C_R   0.525647 0.065805 0.630520 0.026227
C12   C     C_R   0.907128 0.504058 0.628115 0.012091
C13   C     C_R   0.515345 0.129383 0.502799 -0.008581
C14   C     C_R   0.500718 0.062899 0.378528 -0.162046
C15   C     C_R   0.493230 0.935725 0.380237 -0.163305
C16   C     C_R   0.495315 0.737678 0.501641 0.537361
C17   C     C_R   0.492183 0.872420 0.507291 -0.007707
C18   C     C_R   0.618514 0.663550 0.145571 -0.099627
C19   C     C_R   0.676564 0.743028 0.073736 -0.182869
C20   C     C_R   0.676654 0.742752 0.929774 -0.170918
C21   C     C_R   0.618551 0.663189 0.856844 -0.094827
C22   C     C_R   0.558261 0.580346 0.925729 0.145395
C23   C     C_R   0.953779 0.503679 0.245308 -0.132891
C24   C     C_R   0.558234 0.580403 0.075505 0.153162
C25   C     C_R   0.444817 0.423266 0.073329 -0.013031
C26   C     C_R   0.444836 0.423306 0.925219 -0.013193
C27   C     C_R   0.671364 0.500932 0.500007 0.535602
C28   C     C_R   0.814721 0.503597 0.627218 -0.142904
C29   C     C_R   0.768299 0.502651 0.500048 -0.015369
C30   C     C_R   0.814706 0.503339 0.372901 -0.140909
C31   C     C_R   0.907105 0.503770 0.372014 0.011865
C32   C     C_R   0.953550 0.503812 0.500064 0.061725
C33   C     C_R   0.046215 0.503084 0.245305 -0.132701
C34   C     C_R   0.092913 0.502657 0.372008 0.012358
C35   C     C_R   0.046507 0.503255 0.500056 0.061402
C36   C     C_R   0.092943 0.502976 0.628093 0.012460
C37   C     C_R   0.046273 0.503706 0.754807 -0.132709
C38   C     C_R   0.953832 0.504280 0.754818 -0.133001
Cu1   Cu    Cu3+1 0.499990 0.499990 0.640660 0.906789
Cu2   Cu    Cu3+1 0.500010 0.500010 0.359340 0.919564
H1    H     H_    0.779102 0.503583 0.725671 0.128478
H2    H     H_    0.721731 0.805198 0.873840 0.127620
H3    H     H_    0.779077 0.503119 0.274436 0.130077
H4    H     H_    0.399697 0.360457 0.869143 0.121918
H5    H     H_    0.081157 0.502757 0.146338 0.101486
H6    H     H_    0.220867 0.500928 0.274439 0.125160
H7    H     H_    0.220926 0.501528 0.725622 0.124578
H8    H     H_    0.081239 0.503626 0.853769 0.101463
H9    H     H_    0.918875 0.504613 0.853778 0.104001
H10   H     H_    0.494885 0.109124 0.279219 0.134001
H11   H     H_    0.623557 0.671689 0.746796 0.188943
H12   H     H_    0.595773 0.211804 0.751981 0.146717
H13   H     H_    0.918800 0.503779 0.146352 0.104116
H14   H     H_    0.575254 0.112013 0.976881 0.112114
H15   H     H_    0.495285 0.908877 0.992144 0.115354
H16   H     H_    0.443987 0.802234 0.783053 0.152636
H17   H     H_    0.486619 0.887026 0.281290 0.136217
H18   H     H_    0.399642 0.360429 0.128268 0.114258
H19   H     H_    0.624188 0.671697 0.255720 0.186202
H20   H     H_    0.721768 0.805458 0.130530 0.123438
N1    N     N_R   0.500860 0.501210 0.147910 -0.244142
N2    N     N_R   0.500890 0.501290 0.852040 -0.250958
O1    O     O_R   0.499990 0.319640 0.618810 -0.508309
O2    O     O_R   0.500000 0.319660 0.381240 -0.502178
O3    O     O_R   0.370250 0.499960 0.618800 -0.504810
O4    O     O_R   0.370260 0.499980 0.381230 -0.502271
O5    O     O_R   0.500000 0.680340 0.618760 -0.534840
O6    O     O_R   0.500010 0.680360 0.381190 -0.522486
O7    O     O_R   0.629740 0.500020 0.618770 -0.529159
O8    O     O_R   0.629750 0.500040 0.381200 -0.522978

loop_
_geom_bond_atom_site_label_1
_geom_bond_atom_site_label_2
_ccdc_geom_bond_type
C20   H2    S    
C22   N2    A    
C32   C35   A    
C6    C7    A    
C16   O6    A    
C33   H5    S    
C19   H20   S    
C27   C29   S    
C15   H17   S    
C9    C10   A    
C28   H1    S    
C31   C32   A    
C27   O7    A    
C21   H11   S    
C30   C31   A    
C5    C36   A    
C2    C34   A    
C33   C34   A    
Cu1   O7    S    
C26   H4    S    
C7    C8    A    
C38   H9    S    
C14   H10   S    
C21   C22   A    
C2    H6    S    
C37   H8    S    
C4    O4    A    
Cu1   O3    S    
C29   C30   A    
C27   O8    A    
Cu2   O8    S    
C12   C28   A    
C24   N1    A    
C18   C24   A    
C1    O1    A    
C8    H15   S    
C28   C29   A    
C5    H7    S    
C37   C38   A    
C23   H13   S    
C2    C3    A    
Cu2   O6    S    
C26   N2    A    
C4    O3    A    
Cu1   N2    S    
C22   C24   A    
C30   H3    S    
C23   C31   A    
C12   C38   A    
C1    C13   S    
C25   H18   S    
C10   C17   A    
C9    H16   S    
C3    C4    S    
Cu1   Cu2   S    
C1    O2    A    
C3    C5    A    
C18   H19   S    
C11   C13   A    
Cu1   O1    S    
C20   C21   A    
C34   C35   A    
C10   C11   A    
C6    C11   A    
C15   C17   A    
C18   C19   A    
C14   C15   A    
C36   C37   A    
C25   N1    A    
C7    H14   S    
C6    H12   S    
C25   C26   A    
C13   C14   A    
C16   O5    A    
Cu2   O4    S    
C12   C32   A    
Cu2   N1    S    
C19   C20   A    
C16   C17   S    
Cu1   O5    S    
C8    C9    A    
C23   C33   A    
C35   C36   A    
Cu2   O2    S    
