data_mof_unit_5309.cif
_audit_creation_date              2012-12-10T16:52:07-0500
_audit_creation_method            fapswitch 2.2
_symmetry_space_group_name_H-M    P1
_symmetry_Int_Tables_number       1
_space_group_crystal_system       triclinic
_cell_length_a                    7.767336
_cell_length_b                    8.551647
_cell_length_c                    14.917716
_cell_angle_alpha                 90.957636
_cell_angle_beta                  86.094457
_cell_angle_gamma                 93.706658
_cell_volume                      986.442577193

loop_
_atom_site_label
_atom_site_type_symbol
_atom_type_description
_atom_site_fract_x
_atom_site_fract_y
_atom_site_fract_z
_atom_type_partial_charge
C1    C     C_R   0.545811 0.794712 0.497674 0.954778
C2    C     C_R   0.585359 0.634508 0.811300 0.037643
C3    C     C_R   0.490823 0.495382 0.232492 -0.093493
C4    C     C_R   0.509170 0.504605 0.767509 -0.093494
C5    C     C_R   0.567861 0.623112 0.187003 -0.248320
C6    C     C_R   0.432093 0.376887 0.812994 -0.248318
C7    C     C_R   0.571819 0.626950 0.094358 0.093219
C8    C     C_R   0.428144 0.373034 0.905641 0.093206
C9    C     C_R   0.496910 0.497729 0.047019 -0.044075
C10   C     C_R   0.503065 0.502243 0.952982 -0.044073
C11   C     C_R   0.416496 0.364400 0.093987 0.073148
C12   C     C_R   0.454189 0.205288 0.502325 0.954774
C13   C     C_R   0.583500 0.635565 0.906017 0.073178
C14   C     C_R   0.650827 0.758205 0.049309 0.081998
C15   C     C_R   0.349145 0.241767 0.950689 0.081986
C16   C     C_R   0.657645 0.763609 0.955785 0.048564
C17   C     C_R   0.342341 0.236348 0.044220 0.048571
C18   C     C_2   0.569939 0.958284 0.496393 -0.383604
C19   C     C_2   0.430061 0.041716 0.503606 -0.383598
C20   C     C_R   0.502975 0.501981 0.672557 0.876811
C21   C     C_R   0.497025 0.498020 0.327443 0.876811
C22   C     C_R   0.414667 0.365452 0.188706 0.037667
H1    H     H_    0.624968 0.719738 0.225342 0.170891
H2    H     H_    0.563863 0.806751 0.720959 0.181010
H3    H     H_    0.857160 0.903254 0.079031 0.208785
H4    H     H_    0.665694 0.989047 0.084254 0.202043
H5    H     H_    0.142746 0.096826 0.920931 0.208749
H6    H     H_    0.334169 0.010869 0.915794 0.202058
H7    H     H_    0.654534 0.960353 0.880064 0.216575
H8    H     H_    0.848967 0.870644 0.873206 0.213872
H9    H     H_    0.150997 0.129329 0.126822 0.213853
H10   H     H_    0.345447 0.039560 0.119933 0.216555
H11   H     H_    0.374965 0.280277 0.774654 0.170899
H12   H     H_    0.702008 0.009466 0.489544 0.182446
H13   H     H_    0.297992 0.990534 0.510455 0.182447
H14   H     H_    0.013714 0.382851 0.432151 0.187594
H15   H     H_    0.986286 0.617149 0.567849 0.187590
H16   H     H_    0.240182 0.272357 0.284325 0.196928
H17   H     H_    0.436327 0.193208 0.279036 0.181016
H18   H     H_    0.759938 0.727505 0.715711 0.196955
N1    N     N_2   0.950330 0.457950 0.475660 -0.171494
N2    N     N_2   0.049670 0.542050 0.524340 -0.171495
N3    N     N_3   0.341206 0.234982 0.240970 -0.491086
N4    N     N_3   0.658921 0.764935 0.759044 -0.491109
N5    N     N_3   0.725740 0.887658 0.099364 -0.474350
N6    N     N_3   0.274211 0.112319 0.900630 -0.474296
N7    N     N_3   0.742404 0.901291 0.914829 -0.475759
N8    N     N_3   0.257555 0.098656 0.085182 -0.475718
O1    O     O_R   0.389250 0.738570 0.505970 -0.611805
O2    O     O_R   0.610750 0.261430 0.494030 -0.611806
O3    O     O_R   0.678390 0.711620 0.490370 -0.633046
O4    O     O_R   0.321610 0.288380 0.509630 -0.633050
O5    O     O_R   0.355420 0.513510 0.639950 -0.613358
O6    O     O_R   0.644580 0.486490 0.360050 -0.613359
O7    O     O_R   0.644560 0.486560 0.624350 -0.627719
O8    O     O_R   0.355440 0.513440 0.375650 -0.627714
Zn1   Zn    Zn3+2 0.306940 0.517990 0.510420 0.941759
Zn2   Zn    Zn3+2 0.693060 0.482010 0.489580 0.941757

loop_
_geom_bond_atom_site_label_1
_geom_bond_atom_site_label_2
_ccdc_geom_bond_type
C21   O8    A    
C2    C4    A    
C17   N8    S    
C14   N5    S    
C18   H12   S    
C9    C10   A    
C11   C22   A    
C12   O2    A    
C22   N3    S    
C5    H1    S    
C6    H11   S    
C7    C9    A    
C13   C16   A    
H14   N1    S    
H16   N3    S    
O3    Zn2   S    
C19   H13   S    
C1    O3    A    
H6    N6    S    
C1    C18   S    
H10   N8    S    
H7    N7    S    
C20   O7    A    
H5    N6    S    
C4    C6    A    
C12   O4    A    
N1    Zn2   S    
C8    C15   A    
C5    C7    A    
H9    N8    S    
C9    C11   A    
O6    Zn2   S    
C21   O6    A    
H2    N4    S    
C14   C16   A    
C3    C21   S    
O4    Zn1   S    
C4    C20   S    
H3    N5    S    
H8    N7    S    
H18   N4    S    
O1    Zn1   S    
O8    Zn1   S    
C12   C19   S    
C8    C10   A    
C18   C19   D    
N1    N2    D    
O7    Zn2   S    
H15   N2    S    
C15   C17   A    
C2    C13   A    
O5    Zn1   S    
C11   C17   A    
C3    C22   A    
C6    C8    A    
C16   N7    S    
C15   N6    S    
C3    C5    A    
H17   N3    S    
C1    O1    A    
C7    C14   A    
N2    Zn1   S    
C2    N4    S    
C20   O5    A    
H4    N5    S    
C10   C13   A    
O2    Zn2   S    
