data_mof_unit_22103.cif
_audit_creation_date              2012-12-11T15:57:00-0500
_audit_creation_method            fapswitch 2.2
_symmetry_space_group_name_H-M    P1
_symmetry_Int_Tables_number       1
_space_group_crystal_system       triclinic
_cell_length_a                    17.473322
_cell_length_b                    24.544661
_cell_length_c                    14.944599
_cell_angle_alpha                 90.27224
_cell_angle_beta                  126.105165
_cell_angle_gamma                 89.679478
_cell_volume                      5178.29343754

loop_
_atom_site_label
_atom_site_type_symbol
_atom_type_description
_atom_site_fract_x
_atom_site_fract_y
_atom_site_fract_z
_atom_type_partial_charge
C1    C     C_R   0.307018 0.119891 0.906698 -0.170192
C2    C     C_R   0.561155 0.149348 0.906928 -0.162514
C3    C     C_R   0.813962 0.361280 0.998440 0.121605
C4    C     C_R   0.566710 0.999982 0.368878 -0.008733
C5    C     C_R   0.067608 0.499896 0.369238 -0.010445
C6    C     C_R   0.193113 0.999306 0.634735 0.092841
C7    C     C_R   0.692041 0.500665 0.636253 0.090436
C8    C     C_R   0.520188 0.045499 0.752622 -0.114502
C9    C     C_R   0.521061 0.954132 0.753407 -0.118338
C10   C     C_R   0.019547 0.545494 0.751824 -0.119926
C11   C     C_R   0.019630 0.454115 0.751689 -0.112551
C12   C     C_R   0.769262 0.953981 0.247812 -0.139154
C13   C     C_R   0.060495 0.350264 0.906652 -0.158853
C14   C     C_R   0.769288 0.045795 0.249328 -0.114621
C15   C     C_R   0.269325 0.453715 0.249612 -0.117414
C16   C     C_R   0.269495 0.545462 0.248815 -0.130063
C17   C     C_3   0.144138 0.880107 0.996649 -0.834804
C18   C     C_3   0.144839 0.118505 0.004379 -0.833396
C19   C     C_3   0.644293 0.380464 0.997822 -0.839722
C20   C     C_3   0.702174 0.621917 0.105840 -0.849644
C21   C     C_3   0.041265 0.783847 0.974338 -0.976360
C22   C     C_3   0.041250 0.215621 0.979791 -0.989767
C23   C     C_3   0.541193 0.284245 0.975319 -0.987488
C24   C     C_R   0.061510 0.649207 0.906929 -0.163014
C25   C     C_3   0.625962 0.718251 0.139321 -0.983672
C26   C     C_3   0.672707 0.195404 0.822417 -0.893443
C27   C     C_3   0.506818 0.738043 0.783167 -1.061555
C28   C     C_3   0.173973 0.694776 0.823139 -0.893817
C29   C     C_3   0.167342 0.300451 0.818632 -0.893430
C30   C     C_R   0.551183 0.999736 0.727424 0.000938
C31   C     C_R   0.049912 0.499693 0.725947 -0.003657
C32   C     C_R   0.824109 0.999924 0.273137 0.071147
C33   C     C_R   0.324153 0.499274 0.273796 0.073378
C34   C     C_R   0.632677 0.176848 0.997784 0.144959
C35   C     C_R   0.606594 0.813467 0.997036 0.113336
C36   C     C_R   0.133249 0.676579 0.997850 0.144554
C37   C     C_R   0.308407 0.877838 0.906393 -0.173781
C38   C     C_R   0.131386 0.322374 0.997302 0.144047
C39   C     C_3   0.036212 0.948523 0.483602 -0.225819
C40   C     C_3   0.022410 0.034007 0.518121 -0.217722
C41   C     C_3   0.522141 0.465585 0.519420 -0.217573
C42   C     C_3   0.534442 0.551047 0.484791 -0.227863
C43   C     C_3   0.957728 0.983830 0.471866 -0.092494
C44   C     C_3   0.456483 0.515572 0.472642 -0.094076
C45   C     C_3   0.925514 0.000082 0.355185 0.123386
C46   C     C_3   0.425264 0.499001 0.356290 0.124305
C47   C     C_3   0.002853 0.964482 0.365366 -0.269170
C48   C     C_R   0.808546 0.623549 0.909084 -0.155216
C49   C     C_3   0.989610 0.050648 0.400850 -0.287107
C50   C     C_3   0.490290 0.448626 0.402453 -0.286290
C51   C     C_3   0.502062 0.534774 0.366889 -0.268894
C52   C     C_3   0.068148 0.014752 0.414401 0.576202
C53   C     C_3   0.568294 0.484691 0.416412 0.574686
C54   C     C_R   0.401944 0.876328 0.092233 -0.108725
C55   C     C_R   0.400240 0.121675 0.092024 -0.112204
C56   C     C_R   0.901733 0.376507 0.092141 -0.112029
C57   C     C_R   0.903981 0.623980 0.094628 -0.140263
C58   C     C_3   0.100686 0.998798 0.529924 0.127939
C59   C     C_R   0.808260 0.378029 0.906318 -0.174023
C60   C     C_3   0.599850 0.500977 0.531590 0.129225
C61   C     C_3   0.207258 0.828555 0.050550 0.702103
C62   C     C_3   0.207141 0.170395 0.054145 0.700311
C63   C     C_3   0.707233 0.328810 0.051070 0.703803
C64   C     C_3   0.749140 0.676246 0.109816 0.704339
C65   C     C_3   0.649748 0.276175 0.040377 -0.157769
C66   C     C_3   0.695373 0.728891 0.108322 -0.110922
C67   C     C_3   0.149882 0.775894 0.039890 -0.163772
C68   C     C_3   0.149532 0.223493 0.042822 -0.156480
C69   C     C_3   0.832867 0.267092 0.060848 -0.578526
C70   C     C_R   0.656986 0.149143 0.091483 -0.125324
C71   C     C_3   0.797895 0.733847 0.006674 -0.630425
C72   C     C_3   0.333561 0.766884 0.061603 -0.578644
C73   C     C_3   0.330098 0.230819 0.057586 -0.576709
C74   C     C_3   0.187704 0.793723 0.875821 -0.546612
C75   C     C_3   0.181860 0.202268 0.875097 -0.547173
C76   C     C_3   0.686667 0.294281 0.875630 -0.546334
C77   C     C_3   0.651003 0.677578 0.896503 -0.534461
C78   C     C_3   0.260525 0.814435 0.997177 0.142800
C79   C     C_3   0.257462 0.182901 0.996897 0.144337
C80   C     C_3   0.759996 0.314775 0.997034 0.142755
C81   C     C_R   0.642763 0.846529 0.089863 -0.213542
C82   C     C_3   0.753734 0.679283 0.006165 0.118878
C83   C     C_3   0.676442 0.226825 0.995076 0.133019
C84   C     C_3   0.651448 0.761538 0.996869 0.074317
C85   C     C_3   0.177051 0.726502 0.995192 0.133289
C86   C     C_3   0.174464 0.271830 0.994500 0.133397
C87   C     C_3   0.785801 0.218826 0.074008 0.383249
C88   C     C_3   0.736252 0.781392 0.995452 0.369912
C89   C     C_3   0.286427 0.718616 0.074633 0.383696
C90   C     C_3   0.283752 0.279778 0.070986 0.382183
C91   C     C_3   0.645150 0.239516 0.874316 0.164943
C92   C     C_R   0.157334 0.648987 0.091555 -0.122326
C93   C     C_3   0.586322 0.718878 0.900845 0.164964
C94   C     C_3   0.146147 0.739010 0.874541 0.165461
C95   C     C_3   0.141018 0.257696 0.873278 0.164644
C96   C     C_3   0.618932 0.050639 0.643597 -0.391928
C97   C     C_3   0.618192 0.948423 0.642139 -0.373673
C98   C     C_3   0.118506 0.550559 0.643193 -0.391001
C99   C     C_3   0.117541 0.448325 0.641586 -0.392408
C100  C     C_R   0.549687 0.045334 0.305468 -0.134521
C101  C     C_R   0.549637 0.954660 0.305073 -0.132205
C102  C     C_R   0.050413 0.545249 0.305824 -0.136824
C103  C     C_R   0.156371 0.350469 0.091162 -0.126232
C104  C     C_R   0.050036 0.454621 0.305196 -0.133631
C105  C     C_3   0.622806 0.050793 0.543392 -0.404397
C106  C     C_3   0.621762 0.948371 0.541726 -0.414264
C107  C     C_3   0.123008 0.550709 0.543466 -0.404816
C108  C     C_3   0.121841 0.448284 0.541730 -0.405397
C109  C     C_3   0.462597 0.000149 0.528561 -0.377837
C110  C     C_3   0.962085 0.500203 0.527296 -0.377531
C111  C     C_3   0.563939 0.999710 0.638603 0.355795
C112  C     C_3   0.063176 0.499674 0.637635 0.365708
C113  C     C_3   0.570910 0.999908 0.469806 0.380182
C114  C     C_R   0.551752 0.847191 0.907230 -0.025132
C115  C     C_3   0.071264 0.499838 0.469749 0.383423
C116  C     C_3   0.466776 0.000428 0.429904 -0.373869
C117  C     C_3   0.966900 0.500426 0.429123 -0.379605
C118  C     C_R   0.241302 0.954035 0.695636 -0.153919
C119  C     C_R   0.241231 0.045142 0.694172 -0.143377
C120  C     C_R   0.740718 0.454774 0.695006 -0.140927
C121  C     C_R   0.740292 0.546051 0.696710 -0.151795
C122  C     C_R   0.311545 0.135927 0.998540 0.119108
C123  C     C_R   0.314303 0.860987 0.998561 0.122137
C124  C     C_R   0.813396 0.636741 0.003711 0.119626
H1    H     H_    0.248164 0.123036 0.820623 0.103487
H2    H     H_    0.970035 0.092151 0.364490 0.125698
H3    H     H_    0.874088 0.709239 0.221692 0.281614
H4    H     H_    0.112448 0.891538 0.040281 0.249769
H5    H     H_    0.187182 0.915525 0.004999 0.229977
H6    H     H_    0.086135 0.874896 0.907663 0.195610
H7    H     H_    0.188055 0.082808 0.013067 0.229567
H8    H     H_    0.115251 0.108331 0.050676 0.250203
H9    H     H_    0.085321 0.122551 0.915701 0.195019
H10   H     H_    0.613038 0.391838 0.041970 0.249799
H11   H     H_    0.687382 0.415843 0.006095 0.228886
H12   H     H_    0.585965 0.375412 0.908911 0.195703
H13   H     H_    0.471537 0.407048 0.366134 0.125733
H14   H     H_    0.739789 0.586788 0.100747 0.226600
H15   H     H_    0.707148 0.616449 0.182842 0.257170
H16   H     H_    0.626597 0.619412 0.034522 0.192950
H17   H     H_    0.006869 0.745856 0.973805 0.252560
H18   H     H_    0.025258 0.815205 0.014892 0.269219
H19   H     H_    0.007854 0.795979 0.887347 0.248196
H20   H     H_    0.026775 0.185311 0.022908 0.269734
H21   H     H_    0.006737 0.254066 0.978207 0.251023
H22   H     H_    0.006755 0.202141 0.893169 0.249723
H23   H     H_    0.506764 0.246245 0.974698 0.251010
H24   H     H_    0.491872 0.562104 0.301665 0.134528
H25   H     H_    0.525500 0.315529 0.016306 0.269424
H26   H     H_    0.507557 0.296525 0.888349 0.249321
H27   H     H_    0.665805 0.701054 0.224206 0.265998
H28   H     H_    0.592063 0.756274 0.140258 0.248196
H29   H     H_    0.568216 0.689710 0.082321 0.250447
H30   H     H_    0.749011 0.197318 0.857431 0.279919
H31   H     H_    0.658622 0.153230 0.834222 0.257839
H32   H     H_    0.631785 0.202487 0.731835 0.207820
H33   H     H_    0.532493 0.765364 0.747557 0.260719
H34   H     H_    0.474698 0.702141 0.727232 0.256434
H35   H     H_    0.672832 0.265054 0.125112 0.144618
H36   H     H_    0.448489 0.757178 0.781940 0.245610
H37   H     H_    0.250379 0.696600 0.858601 0.278148
H38   H     H_    0.159593 0.652652 0.834855 0.257855
H39   H     H_    0.133422 0.701808 0.732579 0.209589
H40   H     H_    0.154503 0.343116 0.830227 0.258244
H41   H     H_    0.243152 0.297633 0.851657 0.278567
H42   H     H_    0.124784 0.292686 0.728067 0.207800
H43   H     H_    0.881207 0.163207 0.116749 0.312772
H44   H     H_    0.681129 0.789507 0.837432 0.323343
H45   H     H_    0.382102 0.663050 0.118249 0.312616
H46   H     H_    0.749829 0.755835 0.176197 0.129575
H47   H     H_    0.378381 0.334686 0.109305 0.313121
H48   H     H_    0.172714 0.764891 0.124578 0.145141
H49   H     H_    0.173691 0.235654 0.127622 0.144748
H50   H     H_    0.894862 0.278813 0.144977 0.141498
H51   H     H_    0.871215 0.738686 0.082984 0.155251
H52   H     H_    0.395281 0.778734 0.145812 0.140927
H53   H     H_    0.250237 0.873485 0.820237 0.105332
H54   H     H_    0.393302 0.219812 0.141469 0.141460
H55   H     H_    0.808676 0.217985 0.161256 -0.002740
H56   H     H_    0.782791 0.807947 0.069159 0.092622
H57   H     H_    0.308962 0.717881 0.161747 -0.001403
H58   H     H_    0.308241 0.281687 0.158832 -0.001858
H59   H     H_    0.222612 0.788632 0.833642 0.195412
H60   H     H_    0.213935 0.206110 0.829658 0.195859
H61   H     H_    0.721093 0.289294 0.832889 0.196212
H62   H     H_    0.652567 0.688105 0.825285 0.196418
H63   H     H_    0.430594 0.868878 0.177770 0.124503
H64   H     H_    0.750469 0.630634 0.823744 0.098047
H65   H     H_    0.428356 0.129026 0.177503 0.128609
H66   H     H_    0.930288 0.369095 0.177664 0.125893
H67   H     H_    0.936757 0.630917 0.180872 0.162898
H68   H     H_    0.130071 0.823788 0.825106 0.151542
H69   H     H_    0.124157 0.172085 0.827337 0.150833
H70   H     H_    0.629060 0.324421 0.825413 0.150453
H71   H     H_    0.620683 0.635905 0.879729 0.168576
H72   H     H_    0.067929 0.743434 0.817302 0.113667
H73   H     H_    0.062693 0.253683 0.817917 0.113782
H74   H     H_    0.566913 0.243938 0.817388 0.113620
H75   H     H_    0.750060 0.373851 0.820095 0.103520
H76   H     H_    0.546374 0.695561 0.923976 0.152544
H77   H     H_    0.862374 0.254521 0.015057 0.218689
H78   H     H_    0.805959 0.734819 0.938064 0.212121
H79   H     H_    0.363503 0.754278 0.016299 0.217851
H80   H     H_    0.357780 0.242310 0.009550 0.218213
H81   H     H_    0.583997 0.089010 0.641456 0.151616
H82   H     H_    0.582770 0.910348 0.639172 0.153454
H83   H     H_    0.083519 0.588956 0.640827 0.152615
H84   H     H_    0.081898 0.410261 0.638186 0.151148
H85   H     H_    0.691975 0.050608 0.721906 0.167379
H86   H     H_    0.055692 0.906814 0.518918 0.124683
H87   H     H_    0.691315 0.947889 0.720304 0.170371
H88   H     H_    0.191377 0.550465 0.721783 0.166668
H89   H     H_    0.190459 0.447702 0.720088 0.167438
H90   H     H_    0.697786 0.051033 0.572099 0.156050
H91   H     H_    0.696654 0.947246 0.570154 0.156647
H92   H     H_    0.198123 0.550920 0.572661 0.154495
H93   H     H_    0.196896 0.447161 0.570743 0.155685
H94   H     H_    0.588807 0.088999 0.496371 0.151480
H95   H     H_    0.586766 0.910576 0.493556 0.152458
H96   H     H_    0.089189 0.588931 0.496413 0.158333
H97   H     H_    0.031606 0.061991 0.582403 0.127149
H98   H     H_    0.087020 0.410490 0.493453 0.151969
H99   H     H_    0.422595 0.036756 0.524304 0.175460
H100  H     H_    0.422399 0.963667 0.523146 0.168900
H101  H     H_    0.922096 0.536871 0.522811 0.168117
H102  H     H_    0.921632 0.463773 0.521534 0.174794
H103  H     H_    0.562947 0.087390 0.331850 0.084118
H104  H     H_    0.562943 0.912566 0.330839 0.083738
H105  H     H_    0.064432 0.587219 0.332671 0.091463
H106  H     H_    0.063237 0.412504 0.330817 0.084096
H107  H     H_    0.429368 0.037301 0.378734 0.179150
H108  H     H_    0.531633 0.437789 0.583723 0.126856
H109  H     H_    0.428472 0.964158 0.376999 0.177772
H110  H     H_    0.929674 0.537300 0.377832 0.177954
H111  H     H_    0.928700 0.464158 0.376143 0.177820
H112  H     H_    0.227973 0.912330 0.666667 0.091164
H113  H     H_    0.226626 0.086567 0.663760 0.102903
H114  H     H_    0.726115 0.413308 0.664513 0.102668
H115  H     H_    0.726166 0.587780 0.668164 0.090790
H116  H     H_    0.523973 0.087461 0.735011 0.089482
H117  H     H_    0.527253 0.911935 0.738300 0.103280
H118  H     H_    0.023386 0.587461 0.734286 0.089981
H119  H     H_    0.553049 0.592830 0.520072 0.123902
H120  H     H_    0.023929 0.412026 0.734406 0.089260
H121  H     H_    0.792474 0.911969 0.262672 0.103685
H122  H     H_    0.792711 0.087589 0.266769 0.100003
H123  H     H_    0.292721 0.411824 0.267062 0.100214
H124  H     H_    0.293623 0.587145 0.266089 0.106664
H125  H     H_    0.701079 0.163515 0.176133 0.067839
H126  H     H_    0.686084 0.834201 0.175657 0.106673
H127  H     H_    0.201523 0.663320 0.176231 0.068039
H128  H     H_    0.200294 0.336116 0.175736 0.067638
H129  H     H_    0.511612 0.838058 0.820690 0.103866
H130  H     H_    0.992986 0.936979 0.300169 0.135447
H131  H     H_    0.515028 0.162656 0.821855 0.095084
H132  H     H_    0.014026 0.336979 0.821496 0.094486
H133  H     H_    0.015486 0.662527 0.821862 0.094331
H134  H     H_    0.910371 0.971059 0.494625 0.111613
H135  H     H_    0.408475 0.528287 0.494808 0.111322
H136  H     H_    0.089265 0.038639 0.308849 0.309944
H137  H     H_    0.590810 0.460737 0.311667 0.309304
H138  H     H_    0.309084 0.809751 0.206815 0.282725
H139  H     H_    0.310870 0.191127 0.208533 0.282559
H140  H     H_    0.809368 0.309711 0.207048 0.282697
N1    N     N_R   0.392450 0.103580 0.942190 -0.043059
N2    N     N_R   0.525490 0.971610 0.207550 -0.033570
N3    N     N_R   0.025490 0.528390 0.207550 -0.035903
N4    N     N_R   0.025490 0.471610 0.207550 -0.034389
N5    N     N_R   0.317450 0.971190 0.792000 -0.037880
N6    N     N_R   0.317450 0.028810 0.792000 -0.039785
N7    N     N_R   0.817450 0.471190 0.792000 -0.040538
N8    N     N_R   0.817450 0.528810 0.792000 -0.038050
N9    N     N_R   0.473900 0.028390 0.792280 -0.034947
N10   N     N_R   0.473900 0.971610 0.792280 -0.041220
N11   N     N_R   0.973900 0.528390 0.792280 -0.035959
N12   N     N_R   0.392450 0.896420 0.942190 -0.044113
N13   N     N_R   0.973900 0.471610 0.792280 -0.035311
N14   N     N_R   0.682310 0.971180 0.208170 -0.042018
N15   N     N_R   0.682310 0.028820 0.208170 -0.044799
N16   N     N_R   0.182310 0.471180 0.208170 -0.044616
N17   N     N_R   0.182310 0.528820 0.208170 -0.044834
N18   N     N_R   0.606470 0.103570 0.057210 -0.037032
N19   N     N_R   0.606470 0.896430 0.057210 -0.032569
N20   N     N_R   0.106470 0.603570 0.057210 -0.036324
N21   N     N_R   0.106470 0.396430 0.057210 -0.036608
N22   N     N_R   0.549740 0.896000 0.943240 -0.049276
N23   N     N_R   0.892450 0.603580 0.942190 -0.042329
N24   N     N_R   0.549740 0.104000 0.943240 -0.036574
N25   N     N_R   0.049740 0.396000 0.943240 -0.037013
N26   N     N_R   0.049740 0.604000 0.943240 -0.036508
N27   N     N_R   0.892450 0.396420 0.942190 -0.042728
N28   N     N_R   0.450490 0.896000 0.057360 -0.050367
N29   N     N_R   0.450490 0.104000 0.057360 -0.053382
N30   N     N_R   0.950490 0.396000 0.057360 -0.052850
N31   N     N_R   0.950490 0.604000 0.057360 -0.051899
N32   N     N_R   0.525490 0.028390 0.207550 -0.034411
Ni1   Ni    Ni4+2 0.433780 0.065390 0.868430 0.216209
Ni2   Ni    Ni4+2 0.433780 0.934610 0.868430 0.210770
Ni3   Ni    Ni4+2 0.933780 0.565390 0.868430 0.213553
Ni4   Ni    Ni4+2 0.933780 0.434610 0.868430 0.216357
Ni5   Ni    Ni4+2 0.565800 0.934190 0.131570 0.206248
Ni6   Ni    Ni4+2 0.565800 0.065810 0.131570 0.207497
Ni7   Ni    Ni4+2 0.065800 0.434190 0.131570 0.207234
Ni8   Ni    Ni4+2 0.065800 0.565810 0.131570 0.207251
O1    O     O_3   0.130141 0.030720 0.389310 -0.764311
O2    O     O_3   0.310891 0.328380 0.047246 -0.740486
O3    O     O_3   0.631123 0.468797 0.392129 -0.766853
O4    O     O_3   0.273701 0.842595 0.163348 -0.772392
O5    O     O_3   0.275757 0.157827 0.167208 -0.772436
O6    O     O_3   0.774069 0.342643 0.163896 -0.772155
O7    O     O_3   0.839772 0.675212 0.212069 -0.786860
O8    O     O_3   0.814284 0.169577 0.052969 -0.741031
O9    O     O_3   0.706469 0.813707 0.902290 -0.748193
O10   O     O_3   0.315268 0.669357 0.054096 -0.741707

loop_
_geom_bond_atom_site_label_1
_geom_bond_atom_site_label_2
_ccdc_geom_bond_type
C63   C65   S    
C32   C45   S    
C6    C58   S    
C18   H8    S    
C10   N11   A    
C75   C95   S    
C62   O5    S    
C25   H28   S    
C94   H72   S    
C15   N16   A    
C48   H64   S    
C59   N27   A    
N7    N8    A    
C18   H9    S    
C28   C94   S    
C1    C122  A    
C17   C61   S    
C40   C43   S    
C19   C63   S    
C116  H109  S    
C28   H37   S    
C31   C112  S    
C71   C82   S    
C2    C34   A    
C106  H95   S    
C23   H25   S    
N20   N26   A    
C42   C44   S    
C82   C124  S    
C44   C46   S    
C45   C47   S    
C67   C85   S    
C50   C53   S    
C40   C58   S    
C4    C113  S    
C93   H76   S    
C86   C90   S    
C99   H89   S    
C19   H12   S    
C121  H115  S    
C27   H34   S    
C89   H57   S    
C29   H42   S    
C100  H103  S    
C57   N31   A    
C62   C79   S    
C95   H73   S    
C70   H125  S    
N30   Ni7   S    
C52   C58   S    
C72   H79   S    
C108  H93   S    
C54   H63   S    
C27   C93   S    
C39   C47   S    
C56   N30   A    
C18   C62   S    
C84   C88   S    
C35   C84   S    
C47   C52   S    
C83   C91   S    
H43   O8    S    
C62   C68   S    
C40   H97   S    
C77   H71   S    
C77   C82   S    
C88   O9    S    
N23   N31   A    
C84   C93   S    
C86   C95   S    
N18   Ni6   S    
C71   C88   S    
C22   H20   S    
C75   C79   S    
C12   H121  S    
C54   C123  A    
C81   N19   A    
C9    H117  S    
C19   H10   S    
N32   Ni6   S    
C99   C108  S    
C24   C36   A    
C38   C86   S    
C55   H65   S    
C20   H15   S    
C105  C113  S    
C21   H18   S    
C109  C111  S    
C48   N23   A    
C29   H41   S    
C40   C49   S    
N21   N25   A    
C3    C56   A    
C103  N21   A    
C72   C78   S    
C37   C123  A    
C22   H22   S    
C97   H82   S    
C109  H99   S    
C118  N5    A    
N15   Ni6   S    
C5    C115  S    
N19   N22   A    
C77   H62   S    
C26   H31   S    
C7    C121  A    
N4    Ni7   S    
C75   H60   S    
N5    Ni2   S    
C53   C60   S    
H45   O10   S    
C63   C80   S    
C8    H116  S    
C96   C111  S    
C56   H66   S    
C98   C112  S    
C106  C113  S    
N16   N17   A    
C47   H130  S    
C110  H102  S    
H140  O6    S    
C114  N22   A    
C39   C58   S    
C46   C51   S    
C51   C53   S    
C38   C103  A    
N27   Ni4   S    
C61   C67   S    
C107  C115  S    
N1    N29   A    
C73   C79   S    
N28   Ni5   S    
C78   C123  S    
C43   C45   S    
C13   C38   A    
C76   H70   S    
C9    C30   A    
C73   H54   S    
C102  N3    A    
H139  O5    S    
C6    C119  A    
C105  H90   S    
C97   H87   S    
C17   H6    S    
N16   Ni7   S    
C25   C66   S    
C76   C80   S    
C41   C60   S    
N12   Ni2   S    
N3    N4    A    
C67   H48   S    
C27   H33   S    
C37   H53   S    
H136  O1    S    
C25   H27   S    
C23   C65   S    
C92   N20   A    
N19   Ni5   S    
C96   H81   S    
C51   H24   S    
C110  C112  S    
C55   N29   A    
C76   C91   S    
N14   Ni5   S    
N14   N15   A    
H137  O3    S    
H138  O4    S    
C64   O7    S    
C43   H134  S    
C24   N26   A    
C76   H61   S    
C28   H39   S    
C120  H114  S    
C14   N15   A    
C71   H78   S    
C83   C87   S    
C96   C105  S    
H47   O2    S    
C74   C94   S    
C81   H126  S    
C100  N32   A    
C2    H131  S    
C18   H7    S    
N18   N24   A    
N23   Ni3   S    
N21   Ni7   S    
C53   O3    S    
C57   H67   S    
C37   N12   A    
C97   C111  S    
C117  H111  S    
C19   H11   S    
C42   H119  S    
N2    N32   A    
C20   H14   S    
C16   N17   A    
C109  C116  S    
C54   N28   A    
C91   H74   S    
C10   C31   A    
N11   Ni3   S    
C115  C117  S    
N24   Ni1   S    
C34   C70   A    
C8    N9    A    
C69   C87   S    
C36   C92   A    
C16   H124  S    
N5    N6    A    
C33   C46   S    
C29   H40   S    
N3    Ni8   S    
C3    C80   S    
C110  C117  S    
C88   H56   S    
C79   C122  S    
C25   H29   S    
C85   C89   S    
C119  H113  S    
C26   C91   S    
C13   H132  S    
C98   H88   S    
C24   H133  S    
C98   C107  S    
C39   H86   S    
C49   H2    S    
N13   Ni4   S    
C104  H106  S    
C41   H108  S    
C45   C49   S    
C68   H49   S    
C49   C52   S    
C4    C101  A    
C63   O6    S    
N17   Ni8   S    
C22   C68   S    
N6    Ni1   S    
C97   C106  S    
C23   H26   S    
C15   H123  S    
C41   C44   S    
C98   H83   S    
C69   H50   S    
C41   C50   S    
C108  C115  S    
C2    N24   A    
C87   O8    S    
C114  H129  S    
C5    C102  A    
C7    C120  A    
C14   C32   A    
N7    Ni4   S    
C17   H4    S    
C36   C85   S    
N1    Ni1   S    
C99   H84   S    
C8    C30   A    
C20   H16   S    
C21   H17   S    
C70   N18   A    
C57   C124  A    
C23   H23   S    
C77   C93   S    
C71   H51   S    
C72   H52   S    
C107  H96   S    
C118  H112  S    
C73   C90   S    
C105  H94   S    
C74   C78   S    
H44   O9    S    
C11   N13   A    
C64   C66   S    
C13   N25   A    
C68   C86   S    
C26   H32   S    
C10   H118  S    
C65   H35   S    
C35   C81   A    
C50   H13   S    
C28   H38   S    
C106  H91   S    
C120  N7    A    
C101  H104  S    
C103  H128  S    
N11   N13   A    
C1    H1    S    
N10   Ni2   S    
C65   C83   S    
C35   C114  A    
C107  H92   S    
C90   H58   S    
C59   H75   S    
C102  H105  S    
C89   O10   S    
C42   C51   S    
C113  C116  S    
C55   C122  A    
C11   C31   A    
C21   C67   S    
C11   H120  S    
N8    Ni3   S    
N9    Ni1   S    
C69   H77   S    
C73   H80   S    
C17   H5    S    
C9    N10   A    
N27   N30   A    
C21   H19   S    
C42   C60   S    
C29   C95   S    
C39   C43   S    
C74   H59   S    
C27   H36   S    
C66   C84   S    
C20   C64   S    
C16   C33   A    
C108  H98   S    
C85   C94   S    
C121  N8    A    
C22   H21   S    
C61   C78   S    
N2    Ni5   S    
N9    N10   A    
C64   C82   S    
C109  H100  S    
C74   H68   S    
C75   H69   S    
C7    C60   S    
C4    C100  A    
C116  H107  S    
C26   H30   S    
C34   C83   S    
C12   N14   A    
C61   O4    S    
C92   H127  S    
C119  N6    A    
N20   Ni8   S    
C96   H85   S    
C52   O1    S    
N25   Ni4   S    
C66   H46   S    
N26   Ni3   S    
C104  N4    A    
C110  H101  S    
C48   C124  A    
C90   O2    S    
H3    O7    S    
C46   C50   S    
C30   C111  S    
C44   H135  S    
C72   C89   S    
C117  H110  S    
C99   C112  S    
C15   C33   A    
C5    C104  A    
C101  N2    A    
C87   H55   S    
N12   N28   A    
C1    N1    A    
N22   Ni2   S    
C69   C80   S    
N29   Ni6   S    
C6    C118  A    
C12   C32   A    
N31   Ni8   S    
C14   H122  S    
C3    C59   A    
