data_mof_unit_32238.cif
_audit_creation_date              2012-12-11T16:57:22-0500
_audit_creation_method            fapswitch 2.2
_symmetry_space_group_name_H-M    P1
_symmetry_Int_Tables_number       1
_space_group_crystal_system       triclinic
_cell_length_a                    14.524948
_cell_length_b                    16.206164
_cell_length_c                    6.951353
_cell_angle_alpha                 90.09823
_cell_angle_beta                  98.6665
_cell_angle_gamma                 90.008553
_cell_volume                      1617.619046

loop_
_atom_site_label
_atom_site_type_symbol
_atom_type_description
_atom_site_fract_x
_atom_site_fract_y
_atom_site_fract_z
_atom_type_partial_charge
O1    O     O_R   0.584990 0.413650 0.534420 -0.537615
O2    O     O_R   0.584990 0.586350 0.534420 -0.537069
O3    O     O_R   0.596190 0.585230 0.208380 -0.543242
O4    O     O_R   0.596190 0.414770 0.208380 -0.544627
O5    O     O_R   0.415010 0.586420 0.976930 -0.538078
O6    O     O_R   0.415010 0.413580 0.976930 -0.538639
C1    C     C_R   0.618933 0.614171 0.384273 0.697390
C2    C     C_R   0.618982 0.385868 0.383999 0.694788
O7    O     O_3   0.440560 0.500000 0.319140 -0.368890
V1    V     V_3+5 0.511030 0.500000 0.068070 1.401335
O8    O     O_R   0.403810 0.414840 0.643540 -0.543705
O9    O     O_R   0.403810 0.585160 0.643540 -0.543307
C3    C     C_R   0.381176 0.386766 0.805832 0.757511
C4    C     C_R   0.381204 0.613201 0.805978 0.760326
V2    V     V_3+5 0.488970 0.500000 0.560620 1.408170
O10   O     O_3   0.559440 0.500000 0.859420 -0.375497
H1    H     H_    0.317228 0.693064 0.099677 0.155830
H2    H     H_    0.317696 0.306808 0.099514 0.155753
C5    C     C_2   0.308043 0.676677 0.795305 -0.330356
C6    C     C_2   0.307947 0.323244 0.795114 -0.329197
C7    C     C_2   0.280910 0.709742 0.956731 -0.173187
C8    C     C_2   0.281080 0.290154 0.956662 -0.172921
H3    H     H_    0.238390 0.806702 0.241145 0.132972
H4    H     H_    0.238678 0.193387 0.241279 0.132578
C9    C     C_2   0.191968 0.816264 0.105106 -0.368536
C10   C     C_2   0.192084 0.183796 0.105396 -0.367891
C11   C     C_2   0.202691 0.769328 0.946991 -0.005752
C12   C     C_2   0.202729 0.230635 0.947315 -0.005933
H5    H     H_    0.274708 0.695231 0.651489 0.136694
H6    H     H_    0.274326 0.304717 0.651332 0.136648
C13   C     C_R   0.685464 0.740427 0.568538 0.097168
C14   C     C_R   0.747659 0.308673 0.595156 0.091055
C15   C     C_R   0.685598 0.684818 0.413832 -0.105461
C16   C     C_R   0.691077 0.319567 0.415028 -0.104751
C17   C     C_R   0.749402 0.700609 0.284115 -0.179745
C18   C     C_R   0.703197 0.263161 0.266254 -0.173614
H7    H     H_    0.752465 0.659691 0.162386 0.129373
H8    H     H_    0.658649 0.267018 0.127610 0.138048
C19   C     C_R   0.814376 0.766064 0.317608 -0.138451
C20   C     C_R   0.767428 0.197185 0.300076 -0.167224
H9    H     H_    0.865280 0.773461 0.220321 0.119363
H10   H     H_    0.771852 0.152489 0.187375 0.144520
C21   C     C_R   0.817370 0.818339 0.481062 -0.108996
C22   C     C_R   0.820681 0.184394 0.483472 -0.108832
C23   C     C_R   0.749444 0.805384 0.601479 0.081310
C24   C     C_R   0.808452 0.241202 0.629614 0.089115
C25   C     C_3   0.761600 0.792869 0.816308 -0.241017
C26   C     C_3   0.778571 0.224814 0.821955 -0.239993
C27   C     C_3   0.691107 0.722873 0.780321 -0.434171
C28   C     C_3   0.717125 0.300881 0.789215 -0.436222
H11   H     H_    0.833094 0.772639 0.877587 0.124056
H12   H     H_    0.836786 0.230151 0.944756 0.133559
H13   H     H_    0.623659 0.734617 0.833094 0.171486
H14   H     H_    0.641018 0.288925 0.778740 0.171839
H15   H     H_    0.721912 0.661203 0.818812 0.167154
H16   H     H_    0.742833 0.353167 0.886441 0.171279
O11   O     O_R   0.921430 0.915960 0.371040 -0.535018
O12   O     O_R   0.921430 0.084040 0.371040 -0.537185
O13   O     O_R   0.910450 0.087500 0.697310 -0.544896
O14   O     O_R   0.910450 0.912500 0.697310 -0.548258
O15   O     O_R   0.091710 0.087460 0.928430 -0.538957
O16   O     O_R   0.091710 0.912540 0.928430 -0.539075
C29   C     C_R   0.887537 0.114020 0.519561 0.730343
C30   C     C_R   0.888106 0.885548 0.519561 0.730438
O17   O     O_3   0.065970 0.000000 0.586140 -0.362924
V3    V     V_3+5 0.995640 0.000000 0.837400 1.477193
O18   O     O_R   0.103020 0.915700 0.261710 -0.532939
O19   O     O_R   0.103020 0.084300 0.261710 -0.532150
C31   C     C_R   0.122960 0.884292 0.099030 0.748430
C32   C     C_R   0.122992 0.115737 0.099202 0.752518
V4    V     V_3+5 0.017940 0.000000 0.344880 1.483823
O20   O     O_3   0.947330 0.000000 0.046180 -0.378498
C33   C     C_1   0.136556 0.772597 0.767792 0.353023
N1    N     N_1   0.084152 0.774791 0.624869 -0.389988
C34   C     C_1   0.136319 0.227380 0.768506 0.354343
N2    N     N_1   0.083689 0.225199 0.625895 -0.386651
C35   C     C_1   0.727830 0.863656 0.918231 0.378272
N3    N     N_1   0.701390 0.918984 0.999956 -0.326202
C36   C     C_1   0.723316 0.148213 0.819242 0.338326
N4    N     N_1   0.679623 0.088412 0.816064 -0.330366

loop_
_geom_bond_atom_site_label_1
_geom_bond_atom_site_label_2
_ccdc_geom_bond_type
O15   C32   A    
O1    C2    A    
C33   N1    T    
O2    C1    A    
O4    C2    A    
C19   H9    S    
C6    H6    S    
C35   N3    T    
C28   H14   S    
C26   C36   S    
C5    C7    D    
H4    C10   S    
O3    C1    A    
O13   V3    S    
O12   V4    S    
V2    O10   S    
O8    V2    S    
O15   V3    S    
V3    O20   S    
O17   V4    S    
C13   C15   A    
O1    V2    S    
O7    V1    S    
C16   C18   A    
C20   H10   S    
C7    C11   S    
O14   V3    S    
C8    C12   S    
C1    C15   S    
C13   C27   S    
C22   C24   A    
C21   C30   S    
C23   C25   S    
C22   C29   S    
C24   C26   S    
O16   V3    S    
C18   C20   A    
C25   C27   S    
C25   H11   S    
C27   H15   S    
C28   H16   S    
O16   C31   A    
O18   C31   A    
C14   C16   A    
C17   C19   A    
C34   N2    T    
O9    V2    S    
C20   C22   A    
C2    C16   S    
O11   V4    S    
O2    V2    S    
C21   C23   A    
C14   C28   S    
O5    C4    A    
C6    C8    D    
C10   C32   S    
O13   C29   A    
C9    C31   S    
C25   C35   S    
O4    V1    S    
C5    H5    S    
O11   C30   A    
O12   C29   A    
C3    C6    S    
C17   H7    S    
H2    C8    S    
C14   C24   A    
C4    C5    S    
O9    C4    A    
O6    V1    S    
C19   C21   A    
C9    C11   D    
C10   C12   D    
O14   C30   A    
C18   H8    S    
O7    V2    S    
O5    V1    S    
O3    V1    S    
V1    O10   S    
O6    C3    A    
O8    C3    A    
O19   V4    S    
C27   H13   S    
C26   C28   S    
C15   C17   A    
O18   V4    S    
H3    C9    S    
H1    C7    S    
C36   N4    T    
C26   H12   S    
V4    O20   S    
O19   C32   A    
O17   V3    S    
C13   C23   A    
C11   C33   S    
C12   C34   S    
