data_mof_unit_28997.cif
_audit_creation_date              2012-12-11T15:32:37-0500
_audit_creation_method            fapswitch 2.2
_symmetry_space_group_name_H-M    P1
_symmetry_Int_Tables_number       1
_space_group_crystal_system       triclinic
_cell_length_a                    6.95083
_cell_length_b                    20.46148
_cell_length_c                    24.382416
_cell_angle_alpha                 89.771186
_cell_angle_beta                  90.405943
_cell_angle_gamma                 88.713584
_cell_volume                      3466.78035312

loop_
_atom_site_label
_atom_site_type_symbol
_atom_type_description
_atom_site_fract_x
_atom_site_fract_y
_atom_site_fract_z
_atom_type_partial_charge
O1    O     O_R   0.507320 0.423560 0.460500 -0.520513
O2    O     O_R   0.170760 0.556250 0.437010 -0.537809
O3    O     O_R   0.004030 0.576440 0.539500 -0.538740
C1    C     C_R   0.337781 0.576433 0.421169 0.740548
O4    O     O_R   0.177370 0.422820 0.454110 -0.541952
O5    O     O_R   0.010680 0.442050 0.556720 -0.540941
C2    C     C_R   0.347232 0.398643 0.443672 0.767663
O6    O     O_R   0.500680 0.557950 0.443280 -0.534122
O7    O     O_3   0.340380 0.506470 0.533650 -0.377300
V1    V     V_3+5 0.064130 0.498800 0.493760 1.436234
O8    O     O_R   0.681160 0.443750 0.562990 -0.539480
C3    C     C_R   0.851454 0.423755 0.578847 0.726439
O9    O     O_R   0.674560 0.577180 0.545890 -0.544397
C4    C     C_R   0.841120 0.601129 0.556876 0.703565
V2    V     V_3+5 0.564560 0.501200 0.506240 1.437119
O10   O     O_3   0.838180 0.493530 0.466350 -0.358540
C5    C     C_R   0.983903 0.837131 0.911988 -0.083600
C6    C     C_R   0.834975 0.661843 0.589964 -0.136759
C7    C     C_R   0.106427 0.725615 0.903021 0.323195
C8    C     C_R   0.081456 0.782716 0.933655 -0.265967
C9    C     C_R   0.913292 0.835227 0.858087 -0.205670
C10   C     C_R   0.933676 0.777914 0.825286 -0.012535
C11   C     C_R   0.026503 0.721655 0.849201 0.047158
C12   C     C_R   0.867855 0.775233 0.769296 0.025309
C13   C     C_R   0.904183 0.718275 0.737124 0.040823
C14   C     C_R   0.969417 0.661530 0.764845 -0.251524
C15   C     C_R   0.032641 0.662475 0.819515 0.334830
C16   C     C_R   0.757779 0.826409 0.745454 -0.271143
C17   C     C_R   0.685285 0.822980 0.692121 0.298088
C18   C     C_R   0.737975 0.769877 0.657732 -0.000937
C19   C     C_R   0.856366 0.717671 0.679444 -0.049946
C20   C     C_R   0.674158 0.767713 0.602308 0.391580
C21   C     C_R   0.715612 0.712466 0.570602 -0.331141
C22   C     C_R   0.919816 0.666635 0.642670 0.226319
H1    H     H_    0.654253 0.708901 0.529723 0.121998
H2    H     H_    0.144764 0.785372 0.974350 0.111869
H3    H     H_    0.851759 0.880367 0.842413 0.107414
H4    H     H_    0.960883 0.614401 0.745580 0.159488
H5    H     H_    0.711947 0.868518 0.768650 0.126530
C23   C     C_3   0.832129 0.306897 0.769266 -0.249428
C24   C     C_3   0.025018 0.275637 0.791032 -0.122826
H6    H     H_    0.117900 0.295580 0.823886 0.114446
H7    H     H_    0.764984 0.353068 0.784408 0.134737
C25   C     C_1   0.959532 0.121856 0.875536 -0.198434
C26   C     C_1   0.865043 0.378615 0.624728 -0.181009
C27   C     C_3   0.737329 0.238604 0.771084 -0.172181
C28   C     C_3   0.930322 0.207895 0.791731 0.063400
C29   C     C_3   0.805446 0.226530 0.711874 0.384215
C30   C     C_3   0.896278 0.293928 0.709460 0.087977
C31   C     C_3   0.995840 0.194258 0.732152 -0.246612
C32   C     C_3   0.084423 0.262732 0.731142 0.290975
C33   C     C_1   0.947068 0.160466 0.837658 -0.025074
C34   C     C_1   0.878189 0.340541 0.662942 -0.010293
H8    H     H_    0.063126 0.148405 0.716400 0.133493
H9    H     H_    0.592166 0.227938 0.787081 0.148228
C35   C     C_3   0.507110 0.718300 0.208485 0.163880
C36   C     C_3   0.309264 0.700379 0.232055 0.287243
C37   C     C_1   0.344541 0.621953 0.375331 -0.211310
C38   C     C_1   0.480541 0.878005 0.124643 -0.204178
C39   C     C_3   0.587624 0.724626 0.267416 0.264068
C40   C     C_3   0.388707 0.706780 0.291384 -0.017061
C41   C     C_3   0.525260 0.797609 0.267251 0.228125
C42   C     C_3   0.447312 0.791714 0.208079 -0.052915
C43   C     C_3   0.326179 0.780791 0.291587 -0.303574
C44   C     C_3   0.250508 0.773281 0.231860 0.235399
C45   C     C_1   0.358949 0.660231 0.337347 0.032510
C46   C     C_1   0.469890 0.839317 0.162447 0.013764
H10   H     H_    0.249746 0.807075 0.325003 0.147483
C47   C     C_R   0.464373 0.162005 0.088659 -0.095408
C48   C     C_R   0.355341 0.336481 0.412753 -0.166490
C49   C     C_R   0.442191 0.280877 0.090218 0.301883
C50   C     C_R   0.458865 0.221810 0.061220 -0.204097
C51   C     C_R   0.453153 0.160233 0.145983 -0.223763
C52   C     C_R   0.431054 0.218529 0.177148 0.063007
C53   C     C_R   0.427107 0.279193 0.148286 0.073772
C54   C     C_R   0.410192 0.218560 0.235849 0.048174
C55   C     C_R   0.402677 0.278998 0.265221 0.069083
C56   C     C_R   0.390054 0.337339 0.234507 -0.196887
C57   C     C_R   0.404937 0.337509 0.177798 -0.193603
C58   C     C_R   0.384807 0.160313 0.265680 -0.251621
C59   C     C_R   0.343993 0.160749 0.321637 0.301861
C60   C     C_R   0.344936 0.219857 0.351077 -0.017141
C61   C     C_R   0.389812 0.279179 0.324111 -0.067437
C62   C     C_R   0.301197 0.220172 0.407294 -0.128377
C63   C     C_R   0.298056 0.277597 0.437697 0.276979
C64   C     C_R   0.415086 0.336232 0.357492 0.255087
H11   H     H_    0.396607 0.384450 0.157199 0.149656
H12   H     H_    0.464954 0.221745 0.016883 0.115361
H13   H     H_    0.463641 0.112546 0.164787 0.104139
H14   H     H_    0.358443 0.383913 0.253382 0.175490
H15   H     H_    0.381218 0.113343 0.246024 0.123399
H16   H     H_    0.264977 0.175427 0.428318 0.192345
O11   O     O_R   0.323550 0.942140 0.056770 -0.533031
O12   O     O_R   0.647080 0.077200 0.045890 -0.537293
O13   O     O_R   0.813610 0.057920 0.943260 -0.535821
C65   C     C_R   0.476976 0.101138 0.056605 0.714676
O14   O     O_R   0.653470 0.943760 0.063000 -0.537927
O15   O     O_R   0.820050 0.923540 0.960490 -0.537986
C66   C     C_R   0.486471 0.923673 0.078900 0.720217
O16   O     O_R   0.317110 0.076520 0.039540 -0.535443
O17   O     O_3   0.483830 0.993580 0.966380 -0.368774
V3    V     V_3+5 0.760140 0.001190 0.006240 1.422061
O18   O     O_R   0.149510 0.922740 0.954070 -0.539360
C67   C     C_R   0.982770 0.898540 0.943624 0.711143
O19   O     O_R   0.143120 0.056170 0.936970 -0.537810
C68   C     C_R   0.972870 0.076278 0.921164 0.724260
V4    V     V_3+5 0.259690 0.998700 0.993700 1.422314
O20   O     O_3   0.986130 0.006420 0.033620 -0.364878
O21   O     O_3   0.093612 0.605084 0.845060 -0.621023
H17   H     H_    0.093064 0.568572 0.818445 0.283790
O22   O     O_3   0.568376 0.819287 0.579684 -0.616580
H18   H     H_    0.536562 0.809740 0.540858 0.285374
N1    N     N_2   0.272639 0.275008 0.708843 -0.503290
H19   H     H_    0.286308 0.259735 0.668793 0.288248
C69   C     C_3   0.342792 0.340097 0.717895 -0.531725
H20   H     H_    0.486472 0.344530 0.699006 0.214735
H21   H     H_    0.357209 0.349666 0.762504 0.191659
H22   H     H_    0.244302 0.377313 0.698902 0.187927
O23   O     O_3   0.689784 0.201585 0.670134 -0.626881
H23   H     H_    0.646182 0.158834 0.684004 0.290510
O24   O     O_3   0.194259 0.649207 0.214458 -0.641128
H24   H     H_    0.203120 0.649034 0.173926 0.282710
N2    N     N_2   0.595948 0.687412 0.161372 -0.520966
H25   H     H_    0.516039 0.694442 0.125967 0.246328
C70   C     C_3   0.663530 0.620682 0.168710 -0.520016
H26   H     H_    0.702708 0.599563 0.128305 0.183563
H27   H     H_    0.550227 0.590410 0.187303 0.205673
H28   H     H_    0.795051 0.619383 0.194615 0.253337
N3    N     N_2   0.070266 0.802026 0.212459 -0.493014
H29   H     H_    0.962582 0.802236 0.241048 0.296449
C71   C     C_3   0.008125 0.782892 0.158282 -0.483556
H30   H     H_    0.887843 0.815667 0.144515 0.204388
H31   H     H_    0.956954 0.732025 0.159067 0.234757
H32   H     H_    0.126845 0.786724 0.128339 0.177243
N4    N     N_2   0.075913 0.623271 0.656893 -0.541753
H33   H     H_    0.067341 0.576447 0.641829 0.246782
C72   C     C_3   0.264339 0.650810 0.650488 -0.483723
H34   H     H_    0.376438 0.614711 0.664208 0.183849
H35   H     H_    0.277574 0.695338 0.675987 0.196276
H36   H     H_    0.289667 0.663204 0.606739 0.197320
N5    N     N_2   0.642839 0.850866 0.285728 -0.521693
H37   H     H_    0.609573 0.894593 0.266373 0.267393
C73   C     C_3   0.660852 0.857480 0.344547 -0.562172
H38   H     H_    0.776346 0.892354 0.354101 0.202621
H39   H     H_    0.698656 0.809800 0.364140 0.200098
H40   H     H_    0.523548 0.876616 0.361937 0.198907
N6    N     N_2   0.776557 0.700837 0.285339 -0.495933
H41   H     H_    0.853562 0.733772 0.307924 0.262473
C74   C     C_3   0.790532 0.635338 0.307709 -0.490786
H42   H     H_    0.940614 0.616452 0.303612 0.228653
H43   H     H_    0.693381 0.601801 0.285759 0.199704
H44   H     H_    0.754029 0.636000 0.351964 0.182167
O25   O     O_3   0.509493 0.390605 0.339130 -0.654966
H45   H     H_    0.612398 0.375344 0.313970 0.294287
O26   O     O_3   0.244081 0.272840 0.492051 -0.629872
H46   H     H_    0.263583 0.314734 0.511118 0.284528
N7    N     N_2   0.302398 0.100619 0.348227 -0.529133
H47   H     H_    0.386607 0.061686 0.335001 0.257557
C75   C     C_3   0.100114 0.085389 0.348109 -0.546157
H48   H     H_    0.048423 0.077500 0.305442 0.194061
H49   H     H_    0.013940 0.125644 0.367027 0.211752
H50   H     H_    0.078294 0.040076 0.372269 0.204043
N8    N     N_2   0.432816 0.342193 0.061751 -0.529259
H51   H     H_    0.303450 0.367408 0.065456 0.252411
C76   C     C_3   0.521903 0.347868 0.008499 -0.542933
H52   H     H_    0.535311 0.400371 0.997885 0.204392
H53   H     H_    0.431609 0.324690 0.976587 0.184936
H54   H     H_    0.668500 0.325043 0.009188 0.206409
N9    N     N_2   0.554711 0.873474 0.674227 -0.451820
H55   H     H_    0.591539 0.919503 0.687221 0.246133
C77   C     C_3   0.354845 0.860059 0.685057 -0.463763
H56   H     H_    0.330008 0.856647 0.729968 0.165614
H57   H     H_    0.313005 0.813648 0.665281 0.208201
H58   H     H_    0.262039 0.900139 0.667934 0.198707
N10   N     N_2   0.222062 0.673905 0.925923 -0.463238
H59   H     H_    0.208795 0.668996 0.967859 0.241592
C78   C     C_3   0.421491 0.674846 0.909245 -0.469458
H60   H     H_    0.499347 0.631184 0.926133 0.197188
H61   H     H_    0.491210 0.719481 0.924992 0.168876
H62   H     H_    0.432651 0.673696 0.863809 0.211252

loop_
_geom_bond_atom_site_label_1
_geom_bond_atom_site_label_2
_ccdc_geom_bond_type
O17   V4    S    
C73   H40   S    
C49   C53   A    
C77   H56   S    
C42   C44   S    
C13   C19   A    
N7    H47   S    
C20   O22   S    
C47   C50   A    
C38   C66   S    
C24   H6    S    
C4    C6    S    
O2    C1    A    
C7    C8    A    
C1    O6    A    
C47   C65   S    
C2    C48   S    
C57   H11   S    
C59   C60   A    
N2    H25   S    
N10   C78   S    
C55   C56   A    
C56   H14   S    
C23   C27   S    
C77   H57   S    
C14   C15   A    
C76   H52   S    
C49   N8    S    
C43   H10   S    
C9    C10   A    
C16   C17   A    
N6    C74   S    
C64   O25   S    
N1    H19   S    
C74   H43   S    
O5    C3    A    
C18   C19   A    
C78   H62   S    
O15   C67   A    
N2    C70   S    
C55   C61   A    
C73   H38   S    
C73   H39   S    
C5    C8    A    
C35   C36   S    
C39   C41   S    
C63   O26   S    
C41   C43   S    
C38   C46   T    
O8    V2    S    
C40   C45   S    
C37   C45   T    
C23   H7    S    
N6    H41   S    
C78   H61   S    
C27   H9    S    
C70   H28   S    
V4    O20   S    
C75   H49   S    
C47   C51   A    
O1    V2    S    
C39   N6    S    
C11   C15   A    
C29   O23   S    
O7    V1    S    
O11   C66   A    
O14   V3    S    
O13   V3    S    
O12   C65   A    
C71   H32   S    
C29   C31   S    
C26   C34   T    
C76   H53   S    
O9    C4    A    
N9    C77   S    
C50   H12   S    
C28   C31   S    
C27   C29   S    
C51   C52   A    
C77   H58   S    
C42   C46   S    
C35   C42   S    
C59   N7    S    
C52   C53   A    
O17   V3    S    
C54   C58   A    
N4    H33   S    
C62   C63   A    
C54   C55   A    
O14   C66   A    
C74   H44   S    
O4    C2    A    
C56   C57   A    
C14   H4    S    
C16   H5    S    
C30   C32   S    
C13   C14   A    
O15   V3    S    
V2    O10   S    
C5    C9    A    
C35   C39   S    
C39   C40   S    
C40   C43   S    
C7    C11   A    
C35   N2    S    
C17   C18   A    
O13   C68   A    
O19   V4    S    
C72   H35   S    
C75   H48   S    
O8    C3    A    
C69   H22   S    
C41   C42   S    
C31   C32   S    
C24   C28   S    
C75   H50   S    
N9    H55   S    
C31   H8    S    
C12   C13   A    
V3    O20   S    
C6    C22   A    
O12   V3    S    
O24   H24   S    
O3    C4    A    
C52   C54   A    
C29   C30   S    
C78   H60   S    
O6    V2    S    
C60   C62   A    
O9    V2    S    
C70   H26   S    
C10   C12   A    
C41   N5    S    
C1    C37   S    
C71   H30   S    
O2    V1    S    
O18   C67   A    
C19   C22   A    
C70   H27   S    
N3    H29   S    
O19   C68   A    
N4    C72   S    
C69   H21   S    
C27   C28   S    
C23   C24   S    
O16   V4    S    
O22   H18   S    
N8    C76   S    
O1    C2    A    
C32   N1    S    
C12   C16   A    
C36   C44   S    
C58   C59   A    
C71   H31   S    
O5    V1    S    
C44   N3    S    
O23   H23   S    
C36   C40   S    
C28   C33   S    
C3    C26   S    
C25   C68   S    
C76   H54   S    
C72   H34   S    
C20   C21   A    
C58   H15   S    
N5    C73   S    
O7    V2    S    
C51   H13   S    
C49   C50   A    
N10   H59   S    
V1    O10   S    
C74   H42   S    
C43   C44   S    
C18   C20   A    
C25   C33   T    
C69   H20   S    
C22   N4    S    
C30   C34   S    
C72   H36   S    
C65   O16   A    
N3    C71   S    
C21   H1    S    
C6    C21   A    
C7    N10   S    
N8    H51   S    
C36   O24   S    
C8    H2    S    
O4    V1    S    
C61   C64   A    
C9    H3    S    
C15   O21   S    
N7    C75   S    
C60   C61   A    
O21   H17   S    
O26   H46   S    
O3    V1    S    
C10   C11   A    
O18   V4    S    
C62   H16   S    
C17   N9    S    
O25   H45   S    
N5    H37   S    
C48   C63   A    
C53   C57   A    
C24   C32   S    
O11   V4    S    
C23   C30   S    
C5    C67   S    
N1    C69   S    
C48   C64   A    
