data_mof_unit_21966.cif
_audit_creation_date              2012-12-10T18:45:08-0500
_audit_creation_method            fapswitch 2.2
_symmetry_space_group_name_H-M    P1
_symmetry_Int_Tables_number       1
_space_group_crystal_system       triclinic
_cell_length_a                    10.666295
_cell_length_b                    9.964327
_cell_length_c                    10.755221
_cell_angle_alpha                 90.56801
_cell_angle_beta                  93.611155
_cell_angle_gamma                 89.535448
_cell_volume                      1140.73349324

loop_
_atom_site_label
_atom_site_type_symbol
_atom_type_description
_atom_site_fract_x
_atom_site_fract_y
_atom_site_fract_z
_atom_type_partial_charge
C1    C     C_R   0.260392 0.500541 0.500957 0.864088
C2    C     C_R   0.511808 0.500942 0.740370 0.874471
C3    C     C_R   0.631319 0.729996 0.140700 -0.250565
C4    C     C_R   0.616276 0.736603 0.885869 -0.259539
C5    C     C_R   0.633763 0.854657 0.081839 0.127655
C6    C     C_R   0.612074 0.857260 0.951681 0.132636
C7    C     C_R   0.582409 0.616738 0.942870 0.076336
C8    C     C_R   0.586097 0.614689 0.073861 0.073861
C9    C     C_R   0.541121 0.499240 0.132489 -0.098106
C10   C     C_R   0.537866 0.501958 0.874707 -0.103047
C11   C     C_R   0.512179 0.383081 0.063974 -0.235269
C12   C     C_R   0.739656 0.500063 0.501132 0.848487
C13   C     C_R   0.511157 0.384645 0.937011 -0.252322
C14   C     C_R   0.061470 0.390982 0.452901 -0.217990
C15   C     C_R   0.933395 0.392617 0.450505 -0.162070
C16   C     C_R   0.872164 0.501769 0.500977 0.004543
C17   C     C_R   0.127725 0.501788 0.501172 -0.011611
C18   C     C_3   0.659903 0.980528 0.158380 -0.433694
C19   C     C_3   0.786338 0.041635 0.129508 -0.347564
C20   C     C_3   0.797355 0.184782 0.179733 -0.894983
C21   C     C_3   0.565008 0.978938 0.880186 -0.456395
C22   C     C_3   0.432633 0.950568 0.819102 -0.309121
C23   C     C_R   0.937870 0.613215 0.549776 -0.203312
C24   C     C_3   0.359953 0.076824 0.779628 -0.898436
C25   C     C_R   0.720115 0.130775 0.604139 0.159323
C26   C     C_R   0.725849 0.205904 0.715449 -0.112336
C27   C     C_R   0.841242 0.246259 0.771952 -0.182984
C28   C     C_R   0.953010 0.208004 0.720190 -0.090421
C29   C     C_R   0.949302 0.129413 0.611858 -0.131468
C30   C     C_R   0.833762 0.092165 0.553407 -0.224690
C31   C     C_R   0.349346 0.097878 0.299992 0.091215
C32   C     C_R   0.286322 0.217307 0.263506 -0.128192
C33   C     C_R   0.211987 0.227056 0.152029 -0.204068
C34   C     C_R   0.066562 0.613617 0.549051 -0.194320
C35   C     C_R   0.197457 0.116926 0.072683 -0.114433
C36   C     C_R   0.263439 0.999502 0.101203 -0.113836
C37   C     C_R   0.342066 0.991873 0.209656 -0.215238
C38   C     C_R   0.601051 0.069339 0.553019 0.041778
C39   C     C_R   0.408658 0.066557 0.430621 0.079559
C40   C     C_R   0.601280 0.926326 0.547825 -0.154613
C41   C     C_R   0.397884 0.927938 0.458018 -0.125253
C42   C     C_R   0.512942 0.499760 0.261941 0.866560
H1    H     H_    0.482674 0.292118 0.107576 0.190864
H2    H     H_    0.317011 0.871811 0.421316 0.144776
H3    H     H_    0.740743 0.253756 0.117994 0.269854
H4    H     H_    0.762255 0.190784 0.274529 0.271434
H5    H     H_    0.896948 0.217030 0.182980 0.249313
H6    H     H_    0.863642 0.979285 0.173334 0.224440
H7    H     H_    0.797584 0.043486 0.027464 0.227512
H8    H     H_    0.582324 0.054067 0.141380 0.215247
H9    H     H_    0.662450 0.958230 0.259688 0.195690
H10   H     H_    0.333105 0.133950 0.862743 0.258359
H11   H     H_    0.416928 0.140960 0.722268 0.289418
H12   H     H_    0.480784 0.295344 0.887545 0.175113
H13   H     H_    0.272700 0.048755 0.723975 0.241894
H14   H     H_    0.440641 0.884989 0.736208 0.247083
H15   H     H_    0.376358 0.894441 0.883902 0.220107
H16   H     H_    0.562434 0.070230 0.939282 0.214485
H17   H     H_    0.630594 0.996186 0.807099 0.186050
H18   H     H_    0.642490 0.225079 0.763642 0.144029
H19   H     H_    0.844011 0.303539 0.858129 0.138265
H20   H     H_    0.042439 0.237697 0.764805 0.126220
H21   H     H_    0.035942 0.098303 0.572436 0.130706
H22   H     H_    0.832918 0.030493 0.469817 0.132124
H23   H     H_    0.660242 0.726276 0.238617 0.181752
H24   H     H_    0.291006 0.305605 0.315901 0.188931
H25   H     H_    0.163537 0.320183 0.128465 0.136520
H26   H     H_    0.136547 0.123146 0.988505 0.126092
H27   H     H_    0.251680 0.912755 0.040761 0.126336
H28   H     H_    0.393027 0.898489 0.224918 0.156526
H29   H     H_    0.633634 0.743854 0.788878 0.178359
H30   H     H_    0.107563 0.303244 0.417045 0.148913
H31   H     H_    0.882553 0.308084 0.410900 0.160711
H32   H     H_    0.890166 0.698637 0.589077 0.144659
H33   H     H_    0.117979 0.699452 0.587450 0.150159
H34   H     H_    0.682106 0.870174 0.585338 0.134880
N1    N     N_R   0.500000 0.857200 0.500000 -0.104166
N2    N     N_R   0.500000 0.142810 0.500000 -0.123313
O1    O     O_R   0.316770 0.614620 0.499990 -0.620120
O2    O     O_R   0.683230 0.614620 0.500010 -0.646431
O3    O     O_R   0.316800 0.385290 0.500000 -0.642578
O4    O     O_R   0.683200 0.385290 0.500000 -0.612349
O5    O     O_R   0.500010 0.614690 0.316770 -0.625993
O6    O     O_R   0.499990 0.614690 0.683230 -0.633676
O7    O     O_R   0.500040 0.385360 0.316770 -0.633180
O8    O     O_R   0.499960 0.385360 0.683230 -0.636211
Zn1   Zn    Zn3+2 0.500000 0.653120 0.500000 0.910578
Zn2   Zn    Zn3+2 0.500000 0.346880 0.500000 0.925985

loop_
_geom_bond_atom_site_label_1
_geom_bond_atom_site_label_2
_ccdc_geom_bond_type
C24   H10   S    
C7    C10   A    
O5    Zn1   S    
C29   H21   S    
C30   H22   S    
C2    O6    A    
C19   C20   S    
O6    Zn1   S    
C22   H15   S    
O1    Zn1   S    
C7    C8    A    
C39   C41   A    
C24   H13   S    
C18   H8    S    
C9    C42   S    
C36   C37   A    
C21   H17   S    
O2    Zn1   S    
C41   N1    A    
C5    C6    A    
O8    Zn2   S    
C1    O3    A    
C15   C16   A    
C18   C19   S    
C27   H19   S    
C12   C16   S    
C8    C9    A    
C11   H1    S    
C20   H3    S    
C34   H33   S    
C37   H28   S    
C14   C17   A    
C3    H23   S    
C4    C7    A    
C18   H9    S    
C20   H5    S    
C39   N2    A    
C4    C6    A    
C3    C8    A    
C19   H6    S    
C22   H14   S    
C5    C18   S    
C38   N2    A    
C25   C26   A    
C6    C21   S    
C31   C37   A    
C35   C36   A    
C29   C30   A    
C25   C38   S    
C19   H7    S    
C31   C32   A    
C23   C34   A    
C26   C27   A    
C12   O4    A    
C42   O7    A    
C9    C11   A    
C15   H31   S    
C16   C23   A    
C1    O1    A    
C41   H2    S    
C22   C24   S    
C17   C34   A    
C23   H32   S    
C2    C10   S    
C36   H27   S    
C33   H25   S    
C32   H24   S    
C13   H12   S    
O7    Zn2   S    
N2    Zn2   S    
C25   C30   A    
C28   C29   A    
C40   N1    A    
C14   H30   S    
C42   O5    A    
C3    C5    A    
C10   C13   A    
C1    C17   S    
C32   C33   A    
C24   H11   S    
C21   H16   S    
C38   C40   A    
C11   C13   A    
C35   H26   S    
O4    Zn2   S    
C12   O2    A    
C33   C35   A    
C31   C39   S    
C2    O8    A    
O3    Zn2   S    
C40   H34   S    
N1    Zn1   S    
C27   C28   A    
C14   C15   A    
C21   C22   S    
C26   H18   S    
C4    H29   S    
C20   H4    S    
C28   H20   S    
