data_mof_unit_44111.cif
_audit_creation_date              2012-12-11T17:43:34-0500
_audit_creation_method            fapswitch 2.2
_symmetry_space_group_name_H-M    P1
_symmetry_Int_Tables_number       1
_space_group_crystal_system       triclinic
_cell_length_a                    14.817742
_cell_length_b                    15.180677
_cell_length_c                    17.045868
_cell_angle_alpha                 109.319677
_cell_angle_beta                  106.2311
_cell_angle_gamma                 107.535101
_cell_volume                      3128.98485457

loop_
_atom_site_label
_atom_site_type_symbol
_atom_type_description
_atom_site_fract_x
_atom_site_fract_y
_atom_site_fract_z
_atom_type_partial_charge
C1    C     C_R   0.094770 0.278475 0.030459 -0.095983
C2    C     C_R   0.077903 0.049076 0.931779 -0.314980
C3    C     C_R   0.992818 0.888714 0.936294 0.117744
C4    C     C_R   0.004361 0.080574 0.952854 0.105888
C5    C     C_R   0.071583 0.951585 0.921330 0.075614
C6    C     C_R   0.921819 0.012927 0.961532 0.089013
C7    C     C_R   0.747373 0.014462 0.920998 -0.252516
C8    C     C_R   0.252353 0.971302 0.944010 -0.250684
C9    C     C_R   0.709831 0.124647 0.034142 -0.190429
C10   C     C_R   0.282684 0.841174 0.841270 -0.166958
C11   C     C_R   0.433354 0.418525 0.282039 0.639116
C12   C     C_R   0.910666 0.710559 0.923006 -0.113938
C13   C     C_R   0.579207 0.703280 0.858099 0.609747
C14   C     C_R   0.485631 0.491273 0.257200 -0.302004
C15   C     C_R   0.594350 0.652924 0.912502 -0.329688
C16   C     C_R   0.937341 0.451789 0.735912 -0.102360
C17   C     C_R   0.065218 0.484270 0.254455 -0.040232
C18   C     C_R   0.475773 0.461869 0.166877 0.046064
C19   C     C_R   0.643301 0.709676 0.008696 0.067894
C20   C     C_R   0.416360 0.358063 0.101164 -0.148721
C21   C     C_R   0.675982 0.816975 0.049258 -0.198991
C22   C     C_R   0.362237 0.285527 0.124035 -0.190974
C23   C     C_R   0.030769 0.466899 0.726882 0.034753
C24   C     C_R   0.646995 0.863560 0.995378 -0.177820
C25   C     C_R   0.368682 0.314873 0.212829 -0.306302
C26   C     C_R   0.598132 0.807132 0.899917 -0.243791
C27   C     C_R   0.621613 0.548584 0.138956 -0.240515
C28   C     C_R   0.532663 0.662915 0.079893 -0.235890
C29   C     C_R   0.658196 0.591244 0.085996 0.044768
C30   C     C_R   0.475354 0.590122 0.100122 0.040743
C31   C     C_R   0.617604 0.657067 0.062988 0.075935
C32   C     C_R   0.525635 0.539227 0.139624 0.065890
C33   C     C_R   0.680948 0.056810 0.943449 -0.134228
C34   C     C_R   0.974612 0.430620 0.259238 0.037197
C35   C     C_R   0.321173 0.935024 0.918893 -0.096535
C36   C     C_R   0.967619 0.396513 0.329310 0.148873
C37   C     C_R   0.040760 0.424591 0.640559 0.123549
C38   C     C_R   0.145179 0.443685 0.555130 -0.215064
C39   C     C_R   0.863922 0.329342 0.401578 -0.227204
C40   C     C_R   0.724293 0.214383 0.820953 -0.257347
C41   C     C_R   0.219408 0.795080 0.184431 -0.231143
C42   C     C_R   0.138841 0.456071 0.637786 -0.170026
C43   C     C_R   0.870087 0.350048 0.329485 -0.211869
C44   C     C_R   0.950147 0.366385 0.558388 -0.272937
C45   C     C_R   0.671745 0.214975 0.740862 -0.074664
C46   C     C_R   0.058856 0.417335 0.400511 -0.279234
C47   C     C_R   0.955464 0.362088 0.477462 0.193007
C48   C     C_R   0.053707 0.404363 0.476394 0.167169
C49   C     C_R   0.572777 0.135345 0.666322 0.143403
C50   C     C_R   0.290955 0.902791 0.353639 0.151486
C51   C     C_R   0.431544 0.074107 0.427591 -0.238297
C52   C     C_R   0.408659 0.984533 0.602126 -0.230249
C53   C     C_R   0.349103 0.992152 0.349548 -0.177294
C54   C     C_R   0.502010 0.059736 0.677097 -0.169123
C55   C     C_R   0.301080 0.905400 0.438638 -0.263972
C56   C     C_R   0.238709 0.804011 0.271198 -0.082557
C57   C     C_R   0.549541 0.136586 0.581876 -0.290682
C58   C     C_R   0.385782 0.986734 0.517467 0.171462
C59   C     C_R   0.454879 0.067241 0.509554 0.175378
C60   C     C_R   0.804270 0.148668 0.102554 -0.274655
C61   C     C_R   0.175294 0.783807 0.788052 -0.271384
C62   C     C_R   0.872555 0.108740 0.080922 0.608837
C63   C     C_R   0.105390 0.820869 0.811197 0.598269
C64   C     C_R   0.304311 0.591122 0.007792 -0.133207
C65   C     C_R   0.744967 0.470340 0.054089 -0.119836
C66   C     C_R   0.844955 0.042931 0.988884 -0.025500
C67   C     C_R   0.361956 0.558139 0.063025 0.068668
C68   C     C_R   0.144081 0.914575 0.891222 -0.038262
C69   C     C_R   0.727038 0.310558 0.746958 0.495714
C70   C     C_R   0.219413 0.704966 0.264467 0.526213
C71   C     C_R   0.293568 0.497357 0.083695 -0.154870
C72   C     C_R   0.756546 0.569766 0.982431 -0.193050
C73   C     C_R   0.111466 0.536944 0.813052 -0.113374
C74   C     C_R   0.892494 0.403744 0.179180 -0.136907
C75   C     C_R   0.924697 0.200139 0.940514 -0.105400
C76   C     C_R   0.083243 0.794946 0.999807 -0.156155
C77   C     C_R   0.011899 0.182974 0.965580 0.031462
C78   C     C_R   0.720845 0.549364 0.044807 0.077370
C79   C     C_R   0.995980 0.800923 0.951068 0.099947
C80   C     C_3   0.412401 0.378937 0.401133 0.174242
C81   C     C_3   0.300088 0.351959 0.391117 -0.308878
C82   C     C_3   0.261627 0.265815 0.417660 -0.995575
C83   C     C_3   0.613746 0.683850 0.733350 0.147251
C84   C     C_3   0.584905 0.601103 0.638325 -0.258866
C85   C     C_3   0.670478 0.630391 0.605883 -1.008933
C86   C     C_3   0.969487 0.071920 0.184938 0.169884
C87   C     C_3   0.942007 0.100838 0.267311 -0.316978
C88   C     C_3   0.957807 0.035867 0.317020 -0.993469
C89   C     C_R   0.916145 0.917342 0.951375 -0.325542
C90   C     C_3   0.967658 0.766582 0.675780 0.158934
C91   C     C_3   0.932992 0.853536 0.685026 -0.300649
C92   C     C_3   0.884667 0.851465 0.592401 -1.001141
C93   C     C_3   0.618968 0.393244 0.742811 0.209048
C94   C     C_3   0.504936 0.336900 0.671424 -0.322596
C95   C     C_3   0.435764 0.380783 0.705643 -1.024142
C96   C     C_3   0.350772 0.696001 0.363433 0.142845
C97   C     C_3   0.390817 0.701915 0.458798 -0.229827
C98   C     C_3   0.508589 0.737623 0.499712 -1.000822
H1    H     H_    0.174535 0.294081 0.066803 0.118520
H2    H     H_    0.708697 0.861142 0.123160 0.132833
H3    H     H_    0.312018 0.206978 0.071822 0.135222
H4    H     H_    0.658074 0.941958 0.028973 0.165947
H5    H     H_    0.657994 0.508354 0.168423 0.129367
H6    H     H_    0.501463 0.712681 0.061362 0.136064
H7    H     H_    0.134719 0.452062 0.401591 0.114038
H8    H     H_    0.873990 0.336133 0.558092 0.116931
H9    H     H_    0.798246 0.333195 0.276035 0.117921
H10   H     H_    0.210513 0.496904 0.699652 0.130170
H11   H     H_    0.221259 0.474540 0.554970 0.139119
H12   H     H_    0.832283 0.684950 0.874133 0.088533
H13   H     H_    0.788068 0.296974 0.401787 0.129703
H14   H     H_    0.858808 0.402551 0.683858 0.128507
H15   H     H_    0.143582 0.501117 0.296535 0.128373
H16   H     H_    0.606643 0.036109 0.890669 0.111629
H17   H     H_    0.404432 0.978920 0.960564 0.116191
H18   H     H_    0.605347 0.191753 0.571702 0.166430
H19   H     H_    0.250843 0.840080 0.442708 0.168010
H20   H     H_    0.518937 0.057957 0.742387 0.115156
H21   H     H_    0.340060 0.995643 0.285741 0.117602
H22   H     H_    0.481806 0.138585 0.422350 0.126572
H23   H     H_    0.725427 0.964002 0.849989 0.129557
H24   H     H_    0.356110 0.923775 0.609621 0.127211
H25   H     H_    0.658137 0.156787 0.051717 0.126908
H26   H     H_    0.336074 0.812431 0.822770 0.134885
H27   H     H_    0.825041 0.198851 0.172636 0.142223
H28   H     H_    0.146026 0.710222 0.728781 0.141562
H29   H     H_    0.695057 0.159537 0.844939 0.142842
H30   H     H_    0.226685 0.855407 0.163523 0.129591
H31   H     H_    0.334616 0.649719 0.987368 0.095307
H32   H     H_    0.728519 0.432689 0.095247 0.090779
H33   H     H_    0.310625 0.475618 0.137991 0.118406
H34   H     H_    0.283381 0.041628 0.006447 0.132564
H35   H     H_    0.758101 0.629823 0.962697 0.123364
H36   H     H_    0.194363 0.566212 0.831985 0.098328
H37   H     H_    0.812347 0.349539 0.153760 0.093917
H38   H     H_    0.849806 0.144934 0.886017 0.122920
H39   H     H_    0.163607 0.847518 0.023028 0.106710
H40   H     H_    0.855835 0.868423 0.962717 0.138904
H41   H     H_    0.138475 0.099392 0.921852 0.139109
H42   H     H_    0.463439 0.411911 0.474895 0.129648
H43   H     H_    0.424542 0.309528 0.368061 0.082046
H44   H     H_    0.297312 0.422237 0.436372 0.192408
H45   H     H_    0.321491 0.255859 0.225217 0.131584
H46   H     H_    0.246802 0.327209 0.319521 0.208052
H47   H     H_    0.259028 0.193218 0.370419 0.265923
H48   H     H_    0.181933 0.251163 0.413317 0.278380
H49   H     H_    0.313921 0.288727 0.489011 0.272684
H50   H     H_    0.692877 0.699449 0.779703 0.095796
H51   H     H_    0.616850 0.756284 0.729256 0.101150
H52   H     H_    0.573569 0.526537 0.640651 0.203214
H53   H     H_    0.510436 0.590279 0.588866 0.216448
H54   H     H_    0.686512 0.706583 0.605756 0.273942
H55   H     H_    0.645615 0.570939 0.535266 0.286291
H56   H     H_    0.573201 0.842623 0.857915 0.129896
H57   H     H_    0.743144 0.634450 0.651825 0.278338
H58   H     H_    0.049479 0.076656 0.208504 0.146415
H59   H     H_    0.916181 0.989661 0.133427 0.083897
H60   H     H_    0.991890 0.184184 0.315903 0.225740
H61   H     H_    0.859135 0.087756 0.243769 0.188479
H62   H     H_    0.907349 0.952207 0.269852 0.265714
H63   H     H_    0.936728 0.058248 0.375873 0.274078
H64   H     H_    0.040732 0.049177 0.343402 0.272298
H65   H     H_    0.900301 0.691410 0.623907 0.148069
H66   H     H_    0.028509 0.776335 0.648666 0.083800
H67   H     H_    0.532512 0.571548 0.308088 0.141835
H68   H     H_    0.874992 0.845165 0.714912 0.216416
H69   H     H_    0.001510 0.929681 0.731845 0.197297
H70   H     H_    0.942573 0.862757 0.562686 0.270400
H71   H     H_    0.859833 0.914885 0.601486 0.271640
H72   H     H_    0.815248 0.776403 0.544144 0.271255
H73   H     H_    0.646903 0.477833 0.764898 0.125289
H74   H     H_    0.621603 0.381688 0.804638 0.090163
H75   H     H_    0.500468 0.341534 0.606838 0.202837
H76   H     H_    0.472471 0.254471 0.656442 0.220325
H77   H     H_    0.443313 0.381545 0.772590 0.267965
H78   H     H_    0.565076 0.569476 0.880337 0.147457
H79   H     H_    0.352939 0.331897 0.655478 0.275957
H80   H     H_    0.456981 0.460090 0.712656 0.310592
H81   H     H_    0.402225 0.769465 0.366812 0.110455
H82   H     H_    0.355452 0.629605 0.314170 0.107397
H83   H     H_    0.372363 0.757907 0.504992 0.200082
H84   H     H_    0.351071 0.624601 0.454765 0.191354
H85   H     H_    0.528986 0.679112 0.459039 0.294026
H86   H     H_    0.535513 0.748239 0.571168 0.265981
H87   H     H_    0.549569 0.813188 0.501392 0.263701
H88   H     H_    0.408562 0.334390 0.031352 0.126147
N1    N     N_R   0.055660 0.348550 0.045620 -0.046566
N2    N     N_R   0.185200 0.638170 0.176300 -0.098974
N3    N     N_R   0.201680 0.494570 0.045620 -0.046905
N4    N     N_R   0.798320 0.505430 0.954380 -0.053364
N5    N     N_R   0.068420 0.560530 0.871650 -0.036929
N6    N     N_R   0.931580 0.439470 0.128350 -0.040796
N7    N     N_R   0.948070 0.295860 0.997670 -0.033325
N8    N     N_R   0.051930 0.704140 0.002330 -0.035889
N9    N     N_R   0.944340 0.651450 0.954380 -0.041640
N10   N     N_R   0.960830 0.507850 0.823700 -0.035506
N11   N     N_R   0.039170 0.492150 0.176300 -0.050898
N12   N     N_R   0.811290 0.303410 0.871650 -0.061564
N13   N     N_R   0.188710 0.696590 0.128350 -0.063434
N14   N     N_R   0.205200 0.552990 0.997670 -0.041646
N15   N     N_R   0.794800 0.447010 0.002330 -0.042071
N16   N     N_R   0.814800 0.361830 0.823700 -0.092395
Ni1   Ni    Ni4+2 0.119340 0.493420 0.109960 0.212931
Ni2   Ni    Ni4+2 0.880660 0.506580 0.890040 0.232998
Ni3   Ni    Ni4+2 0.872590 0.372590 0.000000 0.216806
Ni4   Ni    Ni4+2 0.127410 0.627410 0.000000 0.212669
O1    O     O_3   0.444856 0.456083 0.372679 -0.687669
O2    O     O_3   0.537238 0.648078 0.763961 -0.688986
O3    O     O_3   0.970426 0.143215 0.148391 -0.673854
O4    O     O_3   0.998935 0.761478 0.759974 -0.677112
O5    O     O_3   0.683481 0.360435 0.703853 -0.695031
O6    O     O_3   0.246061 0.681374 0.336451 -0.699800

loop_
_geom_bond_atom_site_label_1
_geom_bond_atom_site_label_2
_ccdc_geom_bond_type
C87   C88   S    
C46   H7    S    
C93   H74   S    
C93   C94   S    
C96   O6    S    
C27   C29   A    
C1    C77   A    
N6    Ni3   S    
C14   C18   A    
C91   H68   S    
C86   O3    S    
C41   N13   A    
C19   C31   S    
C1    H1    S    
C12   H12   S    
C81   C82   S    
C72   H35   S    
C17   H15   S    
C97   H84   S    
C76   H39   S    
N3    Ni1   S    
C15   C19   A    
C33   H16   S    
C22   H3    S    
N16   Ni2   S    
C15   H78   S    
C2    H41   S    
C91   H69   S    
C60   H27   S    
C19   C21   A    
C7    H23   S    
C38   C42   A    
C98   H87   S    
C10   H26   S    
C11   C14   A    
C57   C59   A    
C11   C25   A    
C88   H63   S    
C12   C79   A    
N1    Ni1   S    
C37   C42   A    
C49   C57   A    
C18   C20   A    
C60   C62   A    
C85   H57   S    
C27   H5    S    
C98   H85   S    
C61   C63   A    
C95   H77   S    
N5    N10   A    
C72   C78   A    
C52   H24   S    
C95   H79   S    
C81   H46   S    
C29   C78   S    
C83   C84   S    
C92   H72   S    
C22   C25   A    
C93   O5    S    
C76   C79   A    
C35   H17   S    
C61   H28   S    
C69   O5    S    
N10   Ni2   S    
C34   C36   S    
C30   C67   S    
C44   C47   A    
C70   N2    A    
C8    C35   A    
C86   H58   S    
C39   H13   S    
N8    N9    A    
C3    C79   S    
C69   N16   A    
C96   C97   S    
N12   Ni3   S    
C9    C33   A    
C7    C33   A    
C41   H30   S    
C25   H45   S    
C11   O1    S    
C23   C73   A    
C5    C68   S    
C72   N4    A    
C82   H48   S    
C52   C54   A    
C97   C98   S    
C57   H18   S    
C1    N1    A    
C51   C59   A    
C82   H49   S    
C40   C45   A    
N8    Ni4   S    
C46   C48   A    
C50   C53   A    
N7    Ni3   S    
C62   C66   A    
C45   C69   A    
C64   C67   A    
C70   O6    S    
C83   H51   S    
C84   C85   S    
C4    C6    A    
C91   C92   S    
C90   O4    S    
C21   H2    S    
C75   H38   S    
C43   H9    S    
N9    Ni2   S    
N2    N13   A    
C58   C59   A    
C80   H42   S    
C40   H29   S    
C20   H88   S    
N13   Ni4   S    
C50   C56   S    
C90   H66   S    
C38   H11   S    
N5    Ni4   S    
C2    C4    A    
C41   C56   A    
C8    H34   S    
C83   O2    S    
C16   N10   A    
C24   H4    S    
C28   H6    S    
C95   H80   S    
C47   C48   A    
C45   C49   S    
C92   H71   S    
C74   H37   S    
C51   H22   S    
C13   O2    S    
C85   H55   S    
N6    N11   A    
C71   N3    A    
C14   H67   S    
C17   N11   A    
C75   C77   A    
C10   C35   A    
C52   C58   A    
C94   H76   S    
C74   N6    A    
N12   N16   A    
C75   N7    A    
N3    N14   A    
C81   H44   S    
C34   C74   A    
C8    C68   A    
C16   C23   A    
C56   C70   A    
C13   C15   A    
C12   N9    A    
C13   C26   A    
C26   H56   S    
C2    C5    A    
C18   C32   S    
C17   C34   A    
C21   C24   A    
C63   O4    S    
C54   H20   S    
C82   H47   S    
C16   H14   S    
C39   C47   A    
C55   H19   S    
C63   C68   A    
C93   H73   S    
N14   Ni4   S    
C65   C78   A    
C27   C32   A    
C86   C87   S    
C38   C48   A    
C28   C31   A    
C24   C26   A    
C20   C22   A    
C80   C81   S    
C3    C5    A    
C39   C43   A    
C53   H21   S    
N4    N15   A    
C97   H83   S    
C44   H8    S    
C64   H31   S    
C6    C89   A    
N2    Ni1   S    
C50   C55   A    
C87   H60   S    
C65   H32   S    
C90   H65   S    
C3    C89   A    
C9    C60   A    
C96   H82   S    
C37   C44   A    
C64   N14   A    
C85   H54   S    
C4    C77   S    
C29   C31   A    
C23   C37   S    
C7    C66   A    
C30   C32   A    
C36   C46   A    
N4    Ni2   S    
C90   C91   S    
C40   N12   A    
C88   H64   S    
C28   C30   A    
C9    H25   S    
C62   O3    S    
C87   H61   S    
N11   Ni1   S    
C67   C71   A    
C88   H62   S    
C96   H81   S    
C98   H86   S    
C94   C95   S    
C86   H59   S    
C92   H70   S    
C94   H75   S    
C71   H33   S    
C83   H50   S    
C10   C61   A    
C84   H53   S    
C76   N8    A    
C80   O1    S    
C65   N15   A    
C73   H36   S    
C89   H40   S    
C55   C58   A    
N15   Ni3   S    
C36   C43   A    
C51   C53   A    
C42   H10   S    
C80   H43   S    
N1    N7    A    
C49   C54   A    
C6    C66   S    
C73   N5    A    
C84   H52   S    
