data_mof_unit_66873.cif
_audit_creation_date              2013-03-05T15:57:22-0500
_audit_creation_method            fapswitch 2.2
_symmetry_space_group_name_H-M    P1
_symmetry_Int_Tables_number       1
_space_group_crystal_system       triclinic
_cell_length_a                    17.264243
_cell_length_b                    18.723928
_cell_length_c                    8.598615
_cell_angle_alpha                 90.168846
_cell_angle_beta                  101.91455
_cell_angle_gamma                 90.100526
_cell_volume                      2719.63997838

loop_
_atom_site_label
_atom_site_type_symbol
_atom_site_description
_atom_site_fract_x
_atom_site_fract_y
_atom_site_fract_z
_atom_type_partial_charge
P1    P     P_3+3 0.834140 0.419320 0.003900 0.402868
P2    P     P_3+3 0.834140 0.580680 0.503900 0.415447
P3    P     P_3+3 0.334140 0.919320 0.003900 0.402954
P4    P     P_3+3 0.334140 0.080680 0.503900 0.415428
O1    O     O_2   0.841960 0.394640 0.833410 -0.378576
O2    O     O_2   0.841960 0.605360 0.333410 -0.377126
O3    O     O_2   0.341960 0.894640 0.833410 -0.378581
O4    O     O_2   0.341960 0.105360 0.333410 -0.377100
O5    O     O_3   0.907950 0.463080 0.102990 -0.457916
O6    O     O_3   0.907950 0.536920 0.602990 -0.445986
O7    O     O_3   0.407950 0.963080 0.102990 -0.457944
O8    O     O_3   0.407950 0.036920 0.602990 -0.445965
O9    O     O_3   0.972780 0.329600 0.629720 -0.417862
O10   O     O_3   0.972780 0.670400 0.129720 -0.432200
O11   O     O_3   0.472780 0.829600 0.629720 -0.417854
O12   O     O_3   0.472780 0.170400 0.129720 -0.432065
O13   O     O_2   0.844118 0.272075 0.714639 -0.392338
O14   O     O_2   0.834289 0.720178 0.181126 -0.386325
O15   O     O_2   0.344117 0.772076 0.714643 -0.392377
O16   O     O_2   0.334274 0.220137 0.181095 -0.386298
O17   O     O_3   0.760998 0.484152 0.940148 -0.586020
O18   O     O_3   0.754075 0.522015 0.442467 -0.582969
O19   O     O_3   0.260989 0.984140 0.940108 -0.585960
O20   O     O_3   0.254089 0.021999 0.442446 -0.582970
O21   O     O_3   0.931215 0.181202 0.605841 -0.520985
O22   O     O_3   0.931825 0.819540 0.141881 -0.518903
O23   O     O_3   0.431217 0.681211 0.605842 -0.520979
O24   O     O_3   0.431793 0.319529 0.142009 -0.518783
H1    H     H_    0.019978 0.222144 0.786601 0.153931
H2    H     H_    0.035096 0.776631 0.274828 0.154768
H3    H     H_    0.520019 0.722164 0.786503 0.154028
H4    H     H_    0.535303 0.276665 0.274143 0.154786
C1    C     C_3   0.037697 0.112082 0.746517 -0.879073
C2    C     C_3   0.044895 0.888941 0.245902 -0.880876
C3    C     C_3   0.537759 0.612122 0.746356 -0.878024
C4    C     C_3   0.544867 0.389009 0.245542 -0.881254
H5    H     H_    0.501883 0.594390 0.831628 0.253771
H6    H     H_    0.609931 0.386634 0.289544 0.211951
H7    H     H_    0.001774 0.094364 0.831715 0.253769
H8    H     H_    0.016668 0.904099 0.345027 0.261290
H9    H     H_    0.029389 0.072509 0.648683 0.304958
H10   H     H_    0.028853 0.930233 0.152953 0.304328
H11   H     H_    0.529430 0.572552 0.648518 0.305140
H12   H     H_    0.516761 0.404060 0.344914 0.261612
P5    P     P_3+3 0.165830 0.418670 0.685610 0.459267
P6    P     P_3+3 0.165830 0.581330 0.185610 0.448182
P7    P     P_3+3 0.665830 0.918670 0.685610 0.459156
P8    P     P_3+3 0.665830 0.081330 0.185610 0.448142
P9    P     P_3+3 0.100004 0.264116 0.118428 0.435012
P10   P     P_3+3 0.100112 0.735836 0.619778 0.434605
P11   P     P_3+3 0.600012 0.764121 0.118420 0.435055
P12   P     P_3+3 0.600075 0.235871 0.619766 0.434595
O25   O     O_2   0.157990 0.394030 0.856030 -0.379970
O26   O     O_2   0.157990 0.605970 0.356030 -0.372865
O27   O     O_2   0.657990 0.894030 0.856030 -0.379859
O28   O     O_2   0.657990 0.105970 0.356030 -0.372949
O29   O     O_3   0.027110 0.329490 0.059550 -0.418029
O30   O     O_3   0.027110 0.670510 0.559550 -0.415542
O31   O     O_3   0.527110 0.829490 0.059550 -0.418034
O32   O     O_3   0.527110 0.170510 0.559550 -0.415493
O33   O     O_2   0.154264 0.264749 0.995759 -0.391539
O34   O     O_2   0.156634 0.733034 0.501732 -0.391723
O35   O     O_2   0.654277 0.764769 0.995762 -0.391447
O36   O     O_2   0.656571 0.233123 0.501661 -0.391605
O37   O     O_3   0.248679 0.474957 0.722534 -0.530991
O38   O     O_3   0.249925 0.526936 0.221404 -0.533971
O39   O     O_3   0.748680 0.974958 0.722554 -0.531238
O40   O     O_3   0.749927 0.026938 0.221394 -0.533991
O41   O     O_3   0.051610 0.181338 0.087697 -0.526001
O42   O     O_3   0.053297 0.818996 0.583843 -0.530768
O43   O     O_3   0.551630 0.681339 0.087660 -0.526024
O44   O     O_3   0.553170 0.318999 0.583898 -0.530707
C5    C     C_3   0.973351 0.189327 0.110120 0.231773
C6    C     C_3   0.973369 0.811435 0.595498 0.235544
C7    C     C_3   0.473375 0.689312 0.110112 0.231803
C8    C     C_3   0.473251 0.311310 0.595507 0.235326
H13   H     H_    0.936385 0.213508 0.001931 0.095393
H14   H     H_    0.938910 0.788212 0.483087 0.105822
H15   H     H_    0.436403 0.713514 0.001954 0.095410
H16   H     H_    0.438879 0.287900 0.483217 0.106403
H17   H     H_    0.970055 0.223442 0.214815 0.050472
H18   H     H_    0.967078 0.776815 0.696550 0.061757
H19   H     H_    0.470086 0.723405 0.214848 0.050435
H20   H     H_    0.467060 0.276794 0.696786 0.061246
C9    C     C_3   0.938656 0.116195 0.136310 -0.087856
C10   C     C_3   0.938147 0.884105 0.623433 -0.104123
C11   C     C_3   0.438684 0.616170 0.136228 -0.087904
C12   C     C_3   0.437775 0.383922 0.622934 -0.103790
H21   H     H_    0.373087 0.620181 0.114963 0.089296
H22   H     H_    0.372109 0.379949 0.593197 0.089305
H23   H     H_    0.873058 0.120207 0.115027 0.089302
H24   H     H_    0.872467 0.880333 0.593678 0.089698
H25   H     H_    0.953920 0.076411 0.052023 0.138209
H26   H     H_    0.956621 0.925408 0.546552 0.148689
H27   H     H_    0.453945 0.576409 0.051888 0.138122
H28   H     H_    0.456099 0.425183 0.545768 0.148891
C13   C     C_3   0.230753 0.458031 0.263185 0.383012
C14   C     C_3   0.228468 0.542639 0.770669 0.406008
C15   C     C_3   0.730761 0.958049 0.263284 0.383388
C16   C     C_3   0.728460 0.042644 0.770652 0.405991
H29   H     H_    0.224458 0.458397 0.388884 0.093110
H30   H     H_    0.220628 0.539741 0.895131 0.094273
H31   H     H_    0.724354 0.958472 0.388914 0.093127
H32   H     H_    0.720602 0.039754 0.895104 0.094306
H33   H     H_    0.176229 0.437077 0.184283 0.121305
H34   H     H_    0.174257 0.564110 0.692274 0.116599
H35   H     H_    0.676296 0.937050 0.184264 0.121228
H36   H     H_    0.674256 0.064111 0.692226 0.116660
C17   C     C_3   0.298008 0.408510 0.245309 -0.827378
C18   C     C_3   0.295996 0.593629 0.761342 -0.855108
C19   C     C_3   0.798090 0.908540 0.245780 -0.827823
C20   C     C_3   0.795990 0.093633 0.761345 -0.855299
H37   H     H_    0.355235 0.430366 0.310602 0.268137
H38   H     H_    0.353162 0.570030 0.821147 0.263706
H39   H     H_    0.855264 0.930426 0.311266 0.268069
H40   H     H_    0.853149 0.070048 0.821230 0.263699
H41   H     H_    0.289028 0.354774 0.292413 0.209873
H42   H     H_    0.287913 0.645139 0.819579 0.207498
H43   H     H_    0.789083 0.854815 0.292909 0.209817
H44   H     H_    0.787884 0.145155 0.819517 0.207615
H45   H     H_    0.300526 0.403707 0.117784 0.285214
H46   H     H_    0.297975 0.603525 0.635008 0.287419
H47   H     H_    0.800739 0.903697 0.118324 0.285326
H48   H     H_    0.798000 0.103505 0.635017 0.287451
Ba1   Ba    Ba6+2 0.000000 0.447380 0.844850 1.483502
Ba2   Ba    Ba6+2 0.000000 0.552620 0.344850 1.486403
Ba3   Ba    Ba6+2 0.500000 0.947380 0.844850 1.483493
Ba4   Ba    Ba6+2 0.500000 0.052620 0.344850 1.486384
C21   C     C_3   0.738958 0.519826 0.067289 0.312587
C22   C     C_3   0.741696 0.478027 0.566157 0.300845
C23   C     C_3   0.238933 0.019830 0.067207 0.312316
C24   C     C_3   0.241652 0.978066 0.566183 0.301703
H49   H     H_    0.738402 0.578190 0.044554 0.112714
H50   H     H_    0.745232 0.421321 0.530291 0.096163
H51   H     H_    0.238279 0.078184 0.044328 0.112666
H52   H     H_    0.245136 0.921344 0.530381 0.096118
H53   H     H_    0.779007 0.509853 0.180078 0.161164
H54   H     H_    0.784605 0.487406 0.676028 0.166239
H55   H     H_    0.279033 0.009942 0.179981 0.161296
H56   H     H_    0.284572 0.987431 0.676046 0.166139
C25   C     C_3   0.656961 0.496844 0.080183 -0.869416
C26   C     C_3   0.660443 0.491925 0.598624 -0.810928
C27   C     C_3   0.156983 0.996759 0.080242 -0.869248
C28   C     C_3   0.160405 0.992053 0.598607 -0.812379
H57   H     H_    0.613496 0.515327 0.975283 0.288096
H58   H     H_    0.614702 0.481651 0.490619 0.281099
H59   H     H_    0.113485 0.014918 0.975051 0.288010
H60   H     H_    0.114665 0.981768 0.490605 0.281221
H61   H     H_    0.641292 0.520181 0.188221 0.280353
H62   H     H_    0.649114 0.456539 0.694701 0.275014
H63   H     H_    0.141212 0.020309 0.187973 0.280281
H64   H     H_    0.149021 0.956720 0.694733 0.274893
H65   H     H_    0.655879 0.437789 0.085653 0.259982
H66   H     H_    0.658192 0.548473 0.634774 0.244680
H67   H     H_    0.156095 0.937721 0.086449 0.259880
H68   H     H_    0.158194 0.048622 0.634650 0.244843
O45   O     O_3   0.092100 0.536880 0.086720 -0.451991
O46   O     O_3   0.092100 0.463120 0.586720 -0.430557
O47   O     O_3   0.592100 0.036880 0.086720 -0.451979
O48   O     O_3   0.592100 0.963120 0.586720 -0.430580
P13   P     P_3+3 0.895704 0.735204 0.077646 0.429579
P14   P     P_3+3 0.892340 0.267471 0.582191 0.421680
P15   P     P_3+3 0.395697 0.235198 0.077658 0.429617
P16   P     P_3+3 0.392336 0.767476 0.582191 0.421693
C29   C     C_3   0.010992 0.185215 0.683174 0.512966
C30   C     C_3   0.014605 0.816778 0.180731 0.482007
C31   C     C_3   0.511008 0.685244 0.683058 0.512284
C32   C     C_3   0.514587 0.316861 0.180257 0.481426
H69   H     H_    0.047803 0.202613 0.598070 0.068657
H70   H     H_    0.039245 0.804275 0.073947 0.078811
H71   H     H_    0.547775 0.702659 0.597887 0.068640
H72   H     H_    0.539026 0.304513 0.073139 0.078144
H73   H     H_    0.600915 0.614974 0.807527 0.212413
H74   H     H_    0.528696 0.430347 0.152723 0.304194
H75   H     H_    0.100841 0.114903 0.807792 0.212699
H76   H     H_    0.109937 0.886532 0.290169 0.212041
C33   C     C_R   0.143593 0.673068 0.922297 -0.561407
C34   C     C_R   0.149140 0.328487 0.418198 -0.556913
C35   C     C_R   0.643584 0.173080 0.922284 -0.561248
C36   C     C_R   0.649137 0.828488 0.418198 -0.556883
C37   C     C_R   0.829883 0.339489 0.290513 -0.252547
C38   C     C_R   0.863434 0.682470 0.758588 -0.200377
C39   C     C_R   0.329878 0.839487 0.290509 -0.252580
C40   C     C_R   0.363421 0.182463 0.758599 -0.200371
C41   C     C_R   0.780665 0.219314 0.306924 -0.182233
C42   C     C_R   0.785440 0.784379 0.801798 -0.170191
C43   C     C_R   0.280673 0.719308 0.306924 -0.182146
C44   C     C_R   0.285412 0.284358 0.801820 -0.169642
C45   C     C_R   0.825918 0.277152 0.379101 0.244489
C46   C     C_R   0.843875 0.734582 0.861473 0.212852
C47   C     C_R   0.325917 0.777151 0.379100 0.244474
C48   C     C_R   0.343863 0.234574 0.861485 0.212619
C49   C     C_R   0.800637 0.341366 0.122701 0.193217
C50   C     C_R   0.815162 0.667817 0.608372 0.241241
C51   C     C_R   0.300640 0.841360 0.122695 0.193282
C52   C     C_R   0.315150 0.167810 0.608381 0.241077
C53   C     C_R   0.748195 0.284477 0.054189 -0.094556
C54   C     C_R   0.754470 0.719052 0.547513 -0.123356
C55   C     C_R   0.248205 0.784468 0.054186 -0.094768
C56   C     C_R   0.254458 0.219043 0.547522 -0.123426
C57   C     C_R   0.236881 0.723159 0.148843 -0.095383
C58   C     C_R   0.241700 0.279743 0.643884 -0.096042
C59   C     C_R   0.736873 0.223166 0.148840 -0.095278
C60   C     C_R   0.741718 0.779757 0.643869 -0.095903
C61   C     C_R   0.183238 0.666951 0.080841 0.300671
C62   C     C_R   0.185880 0.334076 0.578367 0.301631
C63   C     C_R   0.683232 0.166956 0.080833 0.300650
C64   C     C_R   0.685887 0.834082 0.578361 0.301577
C65   C     C_R   0.155161 0.731327 0.828905 0.265755
C66   C     C_R   0.157801 0.269107 0.325900 0.269301
C67   C     C_R   0.655143 0.231347 0.828896 0.265374
C68   C     C_R   0.657803 0.769109 0.325897 0.269272
C69   C     C_R   0.206308 0.786942 0.894837 -0.128813
C70   C     C_R   0.208424 0.213551 0.391675 -0.111627
C71   C     C_R   0.706291 0.286959 0.894841 -0.129936
C72   C     C_R   0.708431 0.713557 0.391670 -0.111668
H77   H     H_    0.281016 0.671276 0.375823 0.203509
H78   H     H_    0.276589 0.327214 0.879767 0.204966
H79   H     H_    0.781006 0.171282 0.375823 0.203506
H80   H     H_    0.776629 0.827245 0.879738 0.204921
H81   H     H_    0.711446 0.332598 0.821109 0.182303
H82   H     H_    0.713069 0.667606 0.318024 0.189997
H83   H     H_    0.211464 0.832577 0.821094 0.182350
H84   H     H_    0.213061 0.167599 0.318029 0.189972
H85   H     H_    0.105162 0.630277 0.868569 0.150969
H86   H     H_    0.115846 0.372644 0.361197 0.140291
H87   H     H_    0.605154 0.130288 0.868552 0.150967
H88   H     H_    0.615834 0.872642 0.361199 0.140303
N1    N     N_R   0.469162 0.591259 0.297329 0.267190
O49   O     O_R   0.420884 0.566076 0.381530 -0.385003
O50   O     O_R   0.545084 0.588520 0.352437 -0.433353
N2    N     N_R   0.463504 0.405951 0.787894 0.263771
O51   O     O_R   0.411925 0.423565 0.872060 -0.388625
O52   O     O_R   0.538569 0.409306 0.850704 -0.446454
N3    N     N_R   0.969127 0.091318 0.297439 0.267217
O53   O     O_R   0.920852 0.066103 0.381609 -0.385066
O54   O     O_R   0.045047 0.088626 0.352593 -0.433401
N4    N     N_R   0.963953 0.905898 0.788538 0.263679
O55   O     O_R   0.912455 0.923952 0.872526 -0.388647
O56   O     O_R   0.038977 0.908255 0.851886 -0.446909
C73   C     C_3   0.883620 0.396585 0.370991 -0.240328
C74   C     C_3   0.965207 0.377204 0.343158 -0.566875
H89   H     H_    0.990341 0.325351 0.387341 0.175001
H90   H     H_    0.958539 0.365660 0.220596 0.241764
H91   H     H_    0.006076 0.420989 0.372917 0.259106
H92   H     H_    0.864962 0.449785 0.329124 0.202897
H93   H     H_    0.880249 0.404057 0.496582 0.218316
C75   C     C_3   0.934519 0.639775 0.821547 -0.383520
C76   C     C_3   0.909320 0.579428 0.917672 -0.427645
H94   H     H_    0.867637 0.596057 0.992774 0.203606
H95   H     H_    0.878031 0.537184 0.843811 0.226742
H96   H     H_    0.962144 0.558431 0.994385 0.292824
H97   H     H_    0.968733 0.621577 0.738625 0.242880
H98   H     H_    0.981763 0.675616 0.882153 0.159275
C77   C     C_3   0.383603 0.896589 0.370984 -0.240235
C78   C     C_3   0.465196 0.877209 0.343165 -0.566868
H99   H     H_    0.490325 0.825353 0.387333 0.174957
H100  H     H_    0.458541 0.865669 0.220603 0.241753
H101  H     H_    0.506065 0.920991 0.372950 0.259121
H102  H     H_    0.364930 0.949785 0.329094 0.202913
H103  H     H_    0.380229 0.904059 0.496576 0.218308
C79   C     C_3   0.434511 0.139772 0.821551 -0.383543
C80   C     C_3   0.409318 0.079423 0.917677 -0.427583
H104  H     H_    0.367633 0.096049 0.992782 0.203612
H105  H     H_    0.378033 0.037179 0.843813 0.226737
H106  H     H_    0.462145 0.058431 0.994388 0.292812
H107  H     H_    0.468724 0.121580 0.738623 0.242877
H108  H     H_    0.481754 0.175614 0.882155 0.159157

loop_
_geom_bond_atom_site_label_1
_geom_bond_atom_site_label_2
_geom_bond_distance
_ccdc_geom_bond_type
C24   C28   1.508702 S    
C80   H106  1.084320 S    
C15   H31   1.108387 S    
C12   H28   1.107269 S    
P1    O17   1.758429 S    
P5    C62   1.898442 S    
C14   C18   1.520607 S    
P6    C61   1.894888 S    
C69   H83   1.079973 S    
C26   H58   1.103943 S    
P3    O19   1.758428 S    
C2    H10   1.107355 S    
C4    C32   1.511693 S    
C28   H60   1.103939 S    
O24   P15   1.742640 S    
C7    H19   1.113383 S    
C3    H11   1.106058 S    
C18   H42   1.107666 S    
C9    H23   1.111973 S    
C54   C60   1.448282 A    
C25   H61   1.108559 S    
O9    P14   1.790545 S    
O8    Ba3   2.885570 S    
C22   H50   1.110065 S    
C4    H74   1.107437 S    
O26   Ba2   2.885890 S    
C76   H94   1.106038 S    
C1    H7    1.104394 S    
C7    H15   1.111783 S    
P7    C64   1.898419 S    
P1    O1    1.568059 D    
O38   C13   1.397674 S    
P7    O27   1.569763 D    
C3    H5    1.104401 S    
C39   C77   1.486408 S    
O37   C14   1.398977 S    
C20   H48   1.109964 S    
P3    O3    1.568059 D    
C79   H108  1.098948 S    
P4    O20   1.756734 S    
O14   P13   1.544353 D    
P3    Ba3   3.458562 S    
Ba2   O45   2.999421 S    
C20   H40   1.107698 S    
C21   C25   1.504797 S    
C67   C71   1.404307 A    
H1    C29   1.110005 S    
C78   H101  1.075907 S    
C35   C67   1.394798 A    
C16   H32   1.107574 S    
P9    O29   1.756237 S    
C34   C66   1.390244 A    
C19   H43   1.108240 S    
C73   C74   1.521006 S    
C14   H34   1.111017 S    
C33   C65   1.394739 A    
C44   C58   1.413203 A    
C36   C68   1.390244 A    
P4    C52   1.921192 S    
N2    O51   1.300462 A    
C40   C52   1.410959 A    
C10   H26   1.107253 S    
P12   O32   1.753332 S    
N4    O55   1.300398 A    
C80   H105  1.083821 S    
C9    H25   1.107233 S    
P11   C68   1.857584 S    
O4    Ba4   2.885902 S    
C77   H103  1.101948 S    
P10   C65   1.854564 S    
P5    Ba1   3.461191 S    
C28   H68   1.105660 S    
C14   H30   1.107576 S    
C78   H100  1.057873 S    
P9    C66   1.857580 S    
P2    O18   1.756702 S    
P12   C67   1.854709 S    
C39   C51   1.427512 A    
N3    O53   1.300390 A    
C40   C48   1.402905 A    
Ba3   Ba4   4.734645 S    
O41   C5    1.411764 S    
P15   C48   1.889193 S    
C38   C50   1.410957 A    
P4    O8    1.606414 S    
O6    Ba1   2.885570 S    
C37   C49   1.427525 A    
C18   H38   1.107710 S    
C43   C47   1.400417 A    
C53   C71   1.412129 A    
P4    O4    1.570465 D    
O9    Ba1   2.849462 S    
C33   H85   1.079347 S    
C27   H63   1.108526 S    
C80   H104  1.106055 S    
C54   C72   1.413205 A    
P9    O41   1.752712 S    
O18   C22   1.397721 S    
N3    O54   1.299649 A    
C8    H20   1.108607 S    
P2    O2    1.570465 D    
P11   O43   1.752707 S    
C6    H18   1.108611 S    
C1    H75   1.109613 S    
C71   H81   1.079970 S    
C5    H17   1.113374 S    
C37   C73   1.486447 S    
C51   C55   1.440131 A    
P7    O48   1.611510 S    
Ba2   O46   2.885532 S    
O12   P15   1.790604 S    
C29   H69   1.112747 S    
P8    O47   1.606607 S    
C35   C63   1.398620 A    
C76   H95   1.083815 S    
C74   H91   1.075922 S    
C16   H36   1.111017 S    
P4    Ba4   3.458864 S    
C19   H47   1.109745 S    
C73   H92   1.086712 S    
P10   O30   1.753312 S    
P1    O5    1.601564 S    
C60   C64   1.436540 A    
O11   P16   1.790542 S    
O32   Ba4   2.848730 S    
P11   O35   1.548619 D    
O2    Ba2   2.885902 S    
P12   O36   1.547307 D    
N4    O56   1.297924 A    
C52   C56   1.439460 A    
C37   C45   1.404902 A    
C23   H55   1.085445 S    
C68   C72   1.402963 A    
C75   H97   1.070770 S    
C31   H71   1.112746 S    
O21   C29   1.402114 S    
C11   N1    1.455006 S    
O16   P15   1.544334 D    
C42   H80   1.075097 S    
C36   H88   1.068627 S    
P3    C51   1.938664 S    
O19   C23   1.397977 S    
C11   H27   1.107248 S    
P2    C50   1.921210 S    
C3    H73   1.109592 S    
C42   C46   1.393844 A    
C27   H59   1.104500 S    
C2    H76   1.109787 S    
O42   C6    1.410932 S    
N1    O49   1.300392 A    
P12   O44   1.754309 S    
C38   C75   1.473066 S    
O23   P16   1.746483 S    
P8    Ba4   3.460884 S    
C13   C17   1.519280 S    
O20   C24   1.397736 S    
C74   H90   1.057869 S    
O21   P14   1.746522 S    
C24   H52   1.110078 S    
C15   C19   1.519318 S    
C78   H99   1.100373 S    
P6    O26   1.567363 D    
N2    O52   1.298309 A    
C74   H89   1.100370 S    
C42   C60   1.413213 A    
O44   C8    1.410902 S    
P7    O39   1.750049 S    
C26   H66   1.105608 S    
P14   C45   1.890270 S    
C41   C45   1.400429 A    
O12   Ba4   2.859159 S    
O17   C21   1.398020 S    
O25   Ba1   2.889399 S    
O39   C16   1.398988 S    
C21   H49   1.110434 S    
P2    Ba2   3.458864 S    
C7    C11   1.529417 S    
C12   N2    1.454357 S    
H3    C31   1.110012 S    
O30   Ba2   2.848730 S    
C44   H78   1.075053 S    
H4    C32   1.109673 S    
P5    O37   1.750028 S    
Ba1   Ba2   4.734645 S    
P10   O34   1.547283 D    
C2    H8    1.102303 S    
C4    H12   1.102367 S    
P11   O31   1.756248 S    
C77   C78   1.521040 S    
P2    O6    1.606414 S    
Ba3   O47   2.875154 S    
C41   C59   1.414541 A    
C79   H107  1.070771 S    
C23   C27   1.504812 S    
C75   C76   1.517046 S    
Ba4   O48   2.885532 S    
C20   H44   1.107665 S    
C43   H77   1.077753 S    
H2    C30   1.109598 S    
C58   C62   1.436546 A    
P8    O28   1.567363 D    
C8    C12   1.529656 S    
C77   H102  1.086754 S    
O22   C30   1.399973 S    
C76   H96   1.084318 S    
C57   C61   1.441026 A    
C41   H79   1.077752 S    
P16   C47   1.890242 S    
C9    N3    1.454993 S    
Ba1   O45   2.875154 S    
C56   C70   1.413199 A    
P6    Ba2   3.460884 S    
C1    C29   1.512347 S    
P5    O46   1.611510 S    
C8    H16   1.112006 S    
C12   H22   1.111771 S    
P13   C46   1.889163 S    
P8    O40   1.749974 S    
C39   C47   1.404898 A    
C6    C10   1.529764 S    
O27   Ba3   2.889399 S    
C19   H39   1.107719 S    
C17   H41   1.108246 S    
P6    O38   1.749962 S    
C16   C20   1.520600 S    
C79   C80   1.517032 S    
C17   H37   1.107687 S    
C24   H56   1.087080 S    
C15   H35   1.110745 S    
C43   C57   1.414519 A    
O22   P13   1.742621 S    
C23   H51   1.110432 S    
O5    Ba2   2.875190 S    
O10   Ba2   2.859159 S    
C44   C48   1.393833 A    
C27   H67   1.107085 S    
P1    Ba1   3.458562 S    
C1    H9    1.106076 S    
C26   H62   1.108707 S    
O10   P13   1.790612 S    
C55   C69   1.412098 A    
O7    Ba4   2.875190 S    
P10   O42   1.754239 S    
O40   C15   1.397656 S    
C13   H33   1.110729 S    
C5    C9    1.529420 S    
N1    O50   1.299653 A    
C10   H24   1.111763 S    
C18   H46   1.109962 S    
O29   Ba1   2.858418 S    
O43   C7    1.411755 S    
P6    O45   1.606607 S    
P9    O33   1.548619 D    
C25   H65   1.107172 S    
C50   C54   1.439473 A    
C59   C63   1.441039 A    
P7    Ba3   3.461191 S    
C49   C53   1.440142 A    
C34   C62   1.395802 A    
P8    C63   1.894986 S    
C4    H6    1.109805 S    
C25   H57   1.104410 S    
C10   N4    1.454388 S    
C30   H70   1.113196 S    
C33   C61   1.398564 A    
C53   C59   1.445302 A    
C75   H98   1.098957 S    
O15   P16   1.545533 D    
O28   Ba4   2.885890 S    
C35   H87   1.079347 S    
C22   C26   1.508634 S    
C65   C69   1.404297 A    
C34   H86   1.068616 S    
C72   H82   1.079660 S    
P3    O7    1.601564 S    
O13   P14   1.545537 D    
O24   C32   1.400018 S    
P5    O25   1.569763 D    
C32   H72   1.113264 S    
C21   H53   1.085416 S    
C36   C64   1.395809 A    
C28   H64   1.108756 S    
C3    C31   1.512243 S    
C6    H14   1.111953 S    
O1    Ba1   2.882426 S    
C40   C79   1.473058 S    
C55   C57   1.445298 A    
C11   H21   1.111977 S    
C5    H13   1.111779 S    
P1    C49   1.938639 S    
C73   H93   1.101928 S    
O11   Ba3   2.849462 S    
C17   H45   1.109725 S    
C38   C46   1.402904 A    
O3    Ba3   2.882426 S    
C66   C70   1.402961 A    
C2    C30   1.511701 S    
O31   Ba3   2.858418 S    
Ba3   O48   3.000157 S    
C56   C58   1.448274 A    
C13   H29   1.108393 S    
C70   H84   1.079662 S    
Ba4   O47   2.999421 S    
O23   C31   1.402079 S    
Ba1   O46   3.000157 S    
C22   H54   1.087073 S    
