data_mof_unit_21661.cif
_audit_creation_date              2012-12-10T20:57:48-0500
_audit_creation_method            fapswitch 2.2
_symmetry_space_group_name_H-M    P1
_symmetry_Int_Tables_number       1
_space_group_crystal_system       triclinic
_cell_length_a                    15.078903
_cell_length_b                    15.560446
_cell_length_c                    15.840705
_cell_angle_alpha                 89.987385
_cell_angle_beta                  90.112677
_cell_angle_gamma                 67.675405
_cell_volume                      3438.18227639

loop_
_atom_site_label
_atom_site_type_symbol
_atom_type_description
_atom_site_fract_x
_atom_site_fract_y
_atom_site_fract_z
_atom_type_partial_charge
C1    C     C_R   0.499859 0.500070 0.338885 0.871602
C2    C     C_R   0.496047 0.505601 0.086946 0.172302
C3    C     C_R   0.443713 0.462415 0.956153 -0.185284
C4    C     C_R   0.547983 0.549429 0.044011 -0.191898
C5    C     C_1   0.497889 0.503856 0.824391 -0.076389
C6    C     C_1   0.497557 0.503781 0.175709 -0.078749
C7    C     C_1   0.498825 0.501917 0.250530 -0.182963
C8    C     C_1   0.499195 0.502022 0.749544 -0.177281
C9    C     C_R   0.970021 0.459228 0.434665 0.521350
C10   C     C_R   0.031732 0.539000 0.571008 0.486825
C11   C     C_R   0.905132 0.500678 0.500705 -0.088918
C12   C     C_R   0.499999 0.500165 0.661138 0.912007
C13   C     C_R   0.094453 0.502345 0.502005 -0.087912
C14   C     C_R   0.937820 0.538762 0.569106 -0.336892
C15   C     C_R   0.062035 0.464131 0.434132 -0.360903
C16   C     C_R   0.559218 0.323178 0.497758 0.914170
C17   C     C_R   0.440263 0.676614 0.498457 0.930354
C18   C     C_1   0.807137 0.500257 0.500463 0.156854
C19   C     C_1   0.192836 0.500424 0.500949 0.079517
C20   C     C_R   0.595415 0.221065 0.499454 -0.319151
C21   C     C_R   0.401198 0.778273 0.501439 -0.286498
C22   C     C_R   0.721453 0.069918 0.523019 -0.273500
C23   C     C_R   0.610934 0.894576 0.535215 -0.261280
C24   C     C_R   0.277558 0.925552 0.540552 -0.250200
C25   C     C_R   0.693725 0.165047 0.507765 0.426851
C26   C     C_R   0.305494 0.830610 0.524151 0.392249
C27   C     C_R   0.527825 0.178911 0.496330 0.376152
C28   C     C_R   0.463931 0.823384 0.486483 0.384082
C29   C     C_R   0.554045 0.086193 0.521298 -0.067450
C30   C     C_R   0.441572 0.913469 0.517790 -0.083272
C31   C     C_R   0.652644 0.029666 0.528945 -0.072092
C32   C     C_R   0.345093 0.967803 0.538979 -0.051960
C33   C     C_R   0.484293 0.047129 0.533308 0.025226
C34   C     C_R   0.388673 0.101038 0.555977 -0.286271
C35   C     C_R   0.512684 0.950827 0.526653 0.012234
C36   C     C_3   0.791447 0.842442 0.635608 0.066090
C37   C     C_3   0.843058 0.893590 0.685708 -0.355894
C38   C     C_3   0.864711 0.856378 0.775683 -0.957678
C39   C     C_3   0.192217 0.208063 0.590681 0.074830
C40   C     C_3   0.208726 0.235781 0.680535 -0.394191
C41   C     C_3   0.176549 0.340734 0.688891 -0.852323
C42   C     C_3   0.533181 0.809856 0.355734 0.099310
C43   C     C_3   0.501435 0.744943 0.301677 -0.347893
C44   C     C_3   0.493859 0.772073 0.208626 -0.968951
C45   C     C_R   0.680130 0.933795 0.541262 0.485072
C46   C     C_3   0.434877 0.216590 0.377931 0.105806
C47   C     C_3   0.336544 0.279369 0.344196 -0.309901
C48   C     C_3   0.329626 0.268888 0.248935 -0.986991
C49   C     C_3   0.176472 0.807612 0.466130 0.096735
C50   C     C_3   0.073463 0.856411 0.497418 -0.370180
C51   C     C_3   0.001095 0.868341 0.426541 -0.940470
C52   C     C_3   0.779503 0.214719 0.414301 0.141138
C53   C     C_3   0.861832 0.129807 0.379433 -0.404143
C54   C     C_3   0.876792 0.140681 0.285398 -0.963170
C55   C     C_3   0.001231 0.317325 0.372217 0.065806
C56   C     C_R   0.317740 0.062344 0.559670 0.495651
C57   C     C_3   0.052046 0.287785 0.287463 -0.326988
C58   C     C_3   0.118750 0.185422 0.288251 -0.967432
C59   C     C_3   0.074559 0.645027 0.643970 0.068527
C60   C     C_3   0.120002 0.658266 0.726859 -0.312878
C61   C     C_3   0.137269 0.748663 0.727983 -0.938419
C62   C     C_R   0.548056 0.549456 0.956468 -0.181072
C63   C     C_R   0.443644 0.462378 0.043674 -0.187793
C64   C     C_R   0.496218 0.505633 0.913187 0.173807
H1    H     H_    0.797085 0.027827 0.529548 0.194845
H2    H     H_    0.891351 0.565694 0.622961 0.170478
H3    H     H_    0.837422 0.767447 0.632621 0.160685
H4    H     H_    0.725251 0.847040 0.670210 0.124542
H5    H     H_    0.911066 0.885470 0.653356 0.219788
H6    H     H_    0.797325 0.968840 0.688186 0.228897
H7    H     H_    0.796930 0.868819 0.810248 0.266320
H8    H     H_    0.905162 0.892528 0.809370 0.270891
H9    H     H_    0.908545 0.780732 0.775136 0.266622
H10   H     H_    0.222918 0.238977 0.540885 0.134279
H11   H     H_    0.113726 0.237812 0.578614 0.162184
H12   H     H_    0.203794 0.964610 0.558112 0.206397
H13   H     H_    0.167355 0.210910 0.725696 0.236379
H14   H     H_    0.285542 0.202808 0.698268 0.218110
H15   H     H_    0.217281 0.367200 0.644574 0.277376
H16   H     H_    0.189798 0.358669 0.754290 0.260111
H17   H     H_    0.098659 0.374511 0.675264 0.279233
H18   H     H_    0.603190 0.807646 0.331729 0.171204
H19   H     H_    0.481687 0.883324 0.348491 0.118477
H20   H     H_    0.554218 0.672511 0.308692 0.248491
H21   H     H_    0.430411 0.747718 0.323421 0.194415
H22   H     H_    0.441008 0.844214 0.199958 0.264608
H23   H     H_    0.635006 0.820150 0.542953 0.206306
H24   H     H_    0.469673 0.724360 0.171616 0.271224
H25   H     H_    0.564755 0.766939 0.184351 0.264727
H26   H     H_    0.447520 0.143005 0.362463 0.136021
H27   H     H_    0.490515 0.236477 0.346577 0.117113
H28   H     H_    0.279959 0.261584 0.375768 0.212029
H29   H     H_    0.323844 0.352955 0.358935 0.236999
H30   H     H_    0.385503 0.286658 0.216171 0.264453
H31   H     H_    0.258193 0.316631 0.226248 0.265125
H32   H     H_    0.338736 0.196500 0.233002 0.268061
H33   H     H_    0.184005 0.740073 0.437313 0.166501
H34   H     H_    0.372290 0.171376 0.576312 0.197312
H35   H     H_    0.190560 0.850306 0.414936 0.115345
H36   H     H_    0.059158 0.815023 0.548837 0.226066
H37   H     H_    0.063746 0.925828 0.523101 0.218865
H38   H     H_    0.011873 0.912104 0.375270 0.260364
H39   H     H_    0.927325 0.902652 0.451626 0.285061
H40   H     H_    0.008802 0.799594 0.400492 0.269070
H41   H     H_    0.799524 0.276207 0.409490 0.167841
H42   H     H_    0.714199 0.230860 0.374043 0.106580
H43   H     H_    0.928969 0.120235 0.414326 0.228663
H44   H     H_    0.845483 0.066619 0.388243 0.230017
H45   H     H_    0.588571 0.582759 0.078085 0.146701
H46   H     H_    0.812212 0.144562 0.249195 0.268596
H47   H     H_    0.939046 0.079780 0.262810 0.267023
H48   H     H_    0.890872 0.204616 0.273449 0.269361
H49   H     H_    0.953747 0.278747 0.382620 0.158989
H50   H     H_    0.055530 0.295512 0.424250 0.117010
H51   H     H_    0.997784 0.299701 0.236596 0.227742
H52   H     H_    0.094748 0.330531 0.273454 0.219754
H53   H     H_    0.175257 0.172573 0.337151 0.266460
H54   H     H_    0.153854 0.166031 0.225739 0.267995
H55   H     H_    0.077716 0.140919 0.301519 0.271979
H56   H     H_    0.403648 0.428528 0.922100 0.140644
H57   H     H_    0.002748 0.701377 0.637042 0.137171
H58   H     H_    0.120757 0.649567 0.590985 0.156541
H59   H     H_    0.072386 0.658209 0.780292 0.220015
H60   H     H_    0.189776 0.599230 0.735997 0.238327
H61   H     H_    0.069623 0.808980 0.715943 0.263721
H62   H     H_    0.190913 0.746549 0.679483 0.312188
H63   H     H_    0.165501 0.757595 0.790754 0.264007
H64   H     H_    0.588669 0.582843 0.922655 0.141468
H65   H     H_    0.403557 0.428431 0.077493 0.139672
H66   H     H_    0.109809 0.434567 0.381636 0.165461
N1    N     N_1   0.270550 0.499970 0.500020 -0.092133
N2    N     N_1   0.729450 0.500030 0.499980 -0.086259
O1    O     O_R   0.573650 0.500000 0.378020 -0.618265
O2    O     O_3   0.222455 0.110460 0.584579 -0.661266
O3    O     O_3   0.547090 0.778729 0.440567 -0.630699
O4    O     O_3   0.436045 0.228192 0.466196 -0.632074
O5    O     O_3   0.240514 0.788483 0.535563 -0.635116
O6    O     O_3   0.763757 0.201824 0.500824 -0.622732
O7    O     O_3   0.943293 0.413686 0.370375 -0.645801
O8    O     O_3   0.066208 0.557841 0.646899 -0.652416
O9    O     O_R   0.426350 0.500000 0.621980 -0.606079
O10   O     O_R   0.426300 0.500040 0.378020 -0.622588
O11   O     O_R   0.573700 0.499960 0.621980 -0.611552
O12   O     O_R   0.615760 0.367720 0.500000 -0.591368
O13   O     O_R   0.384240 0.632280 0.500000 -0.587696
O14   O     O_R   0.468410 0.367760 0.500000 -0.557156
O15   O     O_R   0.531590 0.632240 0.500000 -0.565497
O16   O     O_3   0.775571 0.876990 0.551848 -0.657076
Zn1   Zn    Zn3+2 0.598380 0.499970 0.500000 0.995214
Zn2   Zn    Zn3+2 0.401620 0.500030 0.500000 0.982344

loop_
_geom_bond_atom_site_label_1
_geom_bond_atom_site_label_2
_ccdc_geom_bond_type
C59   H57   S    
C62   H64   S    
C4    H45   S    
C11   C18   S    
C34   C56   A    
C23   C45   A    
C48   H31   S    
C37   H5    S    
C27   C29   A    
C28   O3    S    
C47   H28   S    
C18   N2    T    
C42   H18   S    
C21   C26   A    
C26   O5    S    
C41   H16   S    
C36   H3    S    
C57   H51   S    
C3    C64   A    
C52   C53   S    
C51   H38   S    
C37   C38   S    
C48   H30   S    
C30   C35   A    
C27   O4    S    
C36   C37   S    
C16   O12   A    
C24   C26   A    
C49   O5    S    
C11   C14   A    
C44   H22   S    
C20   C25   A    
C51   H39   S    
C45   O16   S    
C4    C62   A    
C58   H54   S    
C55   O7    S    
C12   O9    A    
C54   H46   S    
C16   O14   A    
C39   H10   S    
C60   H60   S    
C62   C64   A    
C1    O10   A    
C34   H34   S    
O14   Zn2   S    
C36   O16   S    
C29   C33   A    
C22   C25   A    
C52   O6    S    
C61   H62   S    
C39   H11   S    
O13   Zn2   S    
C8    C12   S    
C59   H58   S    
C52   H42   S    
C59   C60   S    
C23   H23   S    
C37   H6    S    
N2    Zn1   S    
C2    C6    S    
C10   O8    S    
C1    O1    A    
O9    Zn2   S    
C50   C51   S    
C57   H52   S    
C19   N1    T    
C38   H8    S    
C22   C31   A    
C13   C19   S    
C43   H21   S    
O1    Zn1   S    
C10   C14   A    
C43   H20   S    
C39   C40   S    
C24   H12   S    
C46   H27   S    
C55   H49   S    
C51   H40   S    
C53   C54   S    
C46   O4    S    
C58   H53   S    
C17   C21   S    
C5    C64   S    
C42   O3    S    
C60   H59   S    
C2    C4    A    
C43   C44   S    
C24   C32   A    
C22   H1    S    
O12   Zn1   S    
C49   H35   S    
C53   H43   S    
C47   C48   S    
C16   C20   S    
C41   H17   S    
C33   C34   A    
C14   H2    S    
C54   H48   S    
C61   H63   S    
C17   O15   A    
C9    C11   A    
C40   C41   S    
C20   C27   A    
C21   C28   A    
C52   H41   S    
C23   C35   A    
C55   C57   S    
C17   O13   A    
C40   H14   S    
C42   C43   S    
C39   O2    S    
C2    C63   A    
C46   C47   S    
C48   H32   S    
O15   Zn1   S    
C1    C7    S    
C42   H19   S    
C10   C13   A    
C41   H15   S    
C5    C8    T    
C56   O2    S    
C36   H4    S    
C6    C7    T    
C46   H26   S    
C55   H50   S    
C3    C63   A    
C50   H36   S    
C12   O11   A    
O10   Zn2   S    
C13   C15   A    
C25   O6    S    
C9    C15   A    
C29   C31   A    
C30   C32   A    
C9    O7    S    
C53   H44   S    
C57   C58   S    
C15   H66   S    
C59   O8    S    
C28   C30   A    
C58   H55   S    
C33   C35   A    
C54   H47   S    
C63   H65   S    
C47   H29   S    
C3    H56   S    
C49   H33   S    
O11   Zn1   S    
C50   H37   S    
C49   C50   S    
C31   C45   A    
C40   H13   S    
C60   C61   S    
N1    Zn2   S    
C61   H61   S    
C44   H24   S    
C32   C56   A    
C44   H25   S    
C38   H7    S    
C38   H9    S    
