data_mof_unit_22383.cif
_audit_creation_date              2012-10-26T18:52:45-0400
_audit_creation_method            fapswitch 2.2
_symmetry_space_group_name_H-M    P1
_symmetry_Int_Tables_number       1
_space_group_crystal_system       triclinic
_cell_length_a                    10.756624
_cell_length_b                    14.724992
_cell_length_c                    14.685144
_cell_angle_alpha                 65.026773
_cell_angle_beta                  103.738613
_cell_angle_gamma                 102.968227
_cell_volume                      2027.74588165

loop_
_atom_site_label
_atom_site_type_symbol
_atom_type_description
_atom_site_fract_x
_atom_site_fract_y
_atom_site_fract_z
_atom_type_partial_charge
C1    C     C_R   0.476085 0.119728 0.312018 0.595208
C2    C     C_R   0.438551 0.359994 0.077378 0.038243
C3    C     C_R   0.403659 0.321101 0.000069 0.045959
C4    C     C_R   0.259942 0.000193 0.500529 0.583360
C5    C     C_R   0.449660 0.465992 0.050846 0.043053
C6    C     C_R   0.441458 0.532768 0.946537 0.052236
C7    C     C_R   0.402326 0.490817 0.871671 -0.089722
C8    C     C_R   0.382923 0.386887 0.898289 -0.099566
C9    C     C_R   0.467101 0.507308 0.125009 -0.115251
C10   C     C_R   0.487662 0.611012 0.098678 -0.119950
C11   C     C_R   0.493992 0.677218 0.998150 0.008120
C12   C     C_3   0.876912 0.998995 0.500056 -0.021038
C13   C     C_R   0.471588 0.639173 0.920960 0.026278
C14   C     C_R   0.523027 0.781414 0.974426 -0.080672
C15   C     C_R   0.532980 0.849737 0.874905 0.236904
C16   C     C_R   0.517851 0.880429 0.688334 0.555763
C17   C     C_R   0.484654 0.708747 0.821395 -0.151472
C18   C     C_R   0.715270 0.280813 0.672530 -0.119294
C19   C     C_R   0.682409 0.201461 0.639761 0.101417
C20   C     C_R   0.520454 0.285893 0.509586 0.083965
C21   C     C_R   0.549618 0.369901 0.538996 0.000992
C22   C     C_R   0.647845 0.364421 0.623444 -0.004814
C23   C     C_3   0.957568 0.994875 0.604049 -0.238528
C24   C     C_R   0.483463 0.456965 0.489634 -0.001771
C25   C     C_R   0.515103 0.537165 0.526899 0.038576
C26   C     C_R   0.606002 0.521878 0.618845 0.204163
C27   C     C_R   0.674079 0.439436 0.662011 -0.069116
C28   C     C_R   0.739721 0.998911 0.501021 0.581766
C29   C     C_R   0.384543 0.464874 0.405247 -0.109144
C30   C     C_R   0.315639 0.545765 0.359571 -0.112821
C31   C     C_R   0.347187 0.625705 0.391369 -0.013582
C32   C     C_R   0.450440 0.625899 0.471880 0.005763
C33   C     C_R   0.277857 0.707496 0.339756 -0.113527
C34   C     C_3   0.928276 0.097718 0.414391 0.120195
C35   C     C_R   0.311522 0.791332 0.365254 0.378818
C36   C     C_R   0.486277 0.717450 0.488733 0.032359
C37   C     C_3   0.038101 0.905648 0.486548 -0.315475
C38   C     C_3   0.894722 0.905304 0.484013 -0.262865
C39   C     C_3   0.102118 0.996809 0.605213 0.117150
C40   C     C_3   0.069570 0.095339 0.409249 0.142942
C41   C     C_3   0.121942 0.001581 0.500768 0.012202
C42   C     C_R   0.452839 0.187518 0.204016 0.029126
C43   C     C_R   0.514513 0.813346 0.796807 0.004304
C44   C     C_R   0.390510 0.216563 0.025445 -0.100969
C45   C     C_R   0.414120 0.150056 0.126900 -0.078558
C46   C     C_R   0.466029 0.291716 0.178642 -0.100793
Cl1   Cl    Cl    0.196982 0.096247 0.642779 -0.502928
Cl2   Cl    Cl    0.567759 0.979098 0.854516 -0.554842
Cl3   Cl    Cl    0.222106 0.892417 0.294805 -0.605745
Cl4   Cl    Cl    0.627054 0.589000 0.697681 -0.704221
Cl5   Cl    Cl    0.165054 0.215428 0.397494 -0.585625
Cl6   Cl    Cl    0.828787 0.117854 0.292205 -0.590789
Cu1   Cu    Cu3+1 0.465900 0.918260 0.475680 1.035142
Cu2   Cu    Cu3+1 0.534100 0.081740 0.524320 1.061890
H1    H     H_    0.070368 0.835754 0.549631 0.143073
H2    H     H_    0.356187 0.408996 0.372411 0.146554
H3    H     H_    0.198329 0.706906 0.278610 0.142215
H4    H     H_    0.133012 0.925312 0.666127 0.131467
H5    H     H_    0.943863 0.059521 0.619407 0.180826
H6    H     H_    0.501257 0.639508 0.157978 0.119239
H7    H     H_    0.402989 0.069690 0.144811 0.182289
H8    H     H_    0.501408 0.318326 0.239253 0.124878
H9    H     H_    0.382348 0.536273 0.791453 0.145388
H10   H     H_    0.538544 0.810023 0.033840 0.155862
H11   H     H_    0.744277 0.430901 0.730714 0.166698
H12   H     H_    0.924233 0.163142 0.432391 0.202146
H13   H     H_    0.574567 0.731388 0.536007 0.194759
H14   H     H_    0.791058 0.275797 0.737329 0.123386
H15   H     H_    0.445342 0.281579 0.448070 0.160475
H16   H     H_    0.838714 0.905292 0.409813 0.199709
H17   H     H_    0.857660 0.834400 0.544767 0.153444
H18   H     H_    0.922346 0.924625 0.666352 0.116034
H19   H     H_    0.072620 0.086898 0.338000 0.189383
H20   H     H_    0.353733 0.357947 0.838513 0.142001
H21   H     H_    0.474452 0.682760 0.761460 0.182687
H22   H     H_    0.362518 0.186318 0.966677 0.150296
H23   H     H_    0.049000 0.903184 0.414221 0.204667
H24   H     H_    0.461998 0.461423 0.204160 0.102705
H25   H     H_    0.238631 0.547000 0.296297 0.137261
H26   H     H_    0.732683 0.136006 0.678763 0.156376
N1    N     N_R   0.585360 0.204570 0.560800 -0.234078
N2    N     N_R   0.414550 0.795430 0.439160 -0.238810
O1    O     O_R   0.455060 0.022100 0.338110 -0.445102
O2    O     O_R   0.512640 0.160150 0.379180 -0.519338
O3    O     O_R   0.288900 0.930980 0.479450 -0.487986
O4    O     O_R   0.346480 0.069030 0.520520 -0.406280
O5    O     O_R   0.487360 0.839850 0.620820 -0.521235
O6    O     O_R   0.544940 0.977900 0.661890 -0.447517
O7    O     O_R   0.653520 0.930970 0.479480 -0.500919
O8    O     O_R   0.711100 0.069020 0.520550 -0.525374

loop_
_geom_bond_atom_site_label_1
_geom_bond_atom_site_label_2
_ccdc_geom_bond_type
C38   H16   S    
C34   H12   S    
Cu2   O2    S    
C36   H13   S    
C7    C8    A    
C39   C41   S    
Cu1   Cu2   S    
C2    C46   A    
C1    O2    A    
C23   H5    S    
C12   C23   S    
C26   C27   A    
C29   C30   A    
C12   C28   S    
C34   C40   S    
C32   C36   A    
Cu2   O8    S    
C26   Cl4   S    
C5    C6    A    
C11   C14   A    
C4    O4    A    
C4    C41   S    
C18   H14   S    
C40   H19   S    
C18   C19   A    
C42   C46   A    
C44   H22   S    
C24   C29   A    
C36   N2    A    
C35   Cl3   S    
C16   O5    A    
C31   C33   A    
C28   O7    A    
C9    C10   A    
C25   C32   A    
C21   C22   A    
C37   C41   S    
C15   Cl2   S    
C35   N2    A    
C16   O6    A    
C3    C44   A    
C24   C25   A    
C3    C8    A    
Cu2   O4    S    
C4    O3    A    
C25   C26   A    
C39   H4    S    
C37   H23   S    
Cu1   N2    S    
C42   C45   A    
C10   H6    S    
C17   C43   A    
C5    C9    A    
C37   C38   S    
C27   H11   S    
C31   C32   A    
C14   H10   S    
C8    H20   S    
Cu1   O5    S    
C16   C43   S    
C7    H9    S    
C30   H25   S    
C40   C41   S    
C46   H8    S    
C22   C27   A    
Cu1   O7    S    
C20   H15   S    
C2    C5    A    
C12   C34   S    
C44   C45   A    
C39   Cl1   S    
C38   H17   S    
C33   H3    S    
C18   C22   A    
C23   H18   S    
Cu1   O3    S    
C6    C7    A    
C29   H2    S    
C1    O1    A    
C40   Cl5   S    
C34   Cl6   S    
C13   C17   A    
Cu1   O1    S    
C2    C3    A    
C15   C43   A    
C19   N1    A    
C6    C13   A    
Cu2   O6    S    
C11   C13   A    
C30   C31   A    
C23   C39   S    
C45   H7    S    
C33   C35   A    
C9    H24   S    
C12   C38   S    
C19   H26   S    
C10   C11   A    
C37   H1    S    
C1    C42   S    
C20   C21   A    
C21   C24   A    
C17   H21   S    
C14   C15   A    
C28   O8    A    
C20   N1    A    
Cu2   N1    S    
