data_mof_unit_15728.cif
_audit_creation_date              2012-12-11T14:40:22-0500
_audit_creation_method            fapswitch 2.2
_symmetry_space_group_name_H-M    P1
_symmetry_Int_Tables_number       1
_space_group_crystal_system       triclinic
_cell_length_a                    19.595949
_cell_length_b                    11.202836
_cell_length_c                    19.371267
_cell_angle_alpha                 89.952741
_cell_angle_beta                  96.823773
_cell_angle_gamma                 89.754696
_cell_volume                      4222.41165804

loop_
_atom_site_label
_atom_site_type_symbol
_atom_type_description
_atom_site_fract_x
_atom_site_fract_y
_atom_site_fract_z
_atom_type_partial_charge
C1    C     C_R   0.724565 0.953969 0.360978 0.546316
C2    C     C_3   0.251269 0.405617 0.568222 0.012513
C3    C     C_R   0.742759 0.164647 0.943060 -0.101877
C4    C     C_R   0.733951 0.164428 0.013667 -0.108193
C5    C     C_R   0.668070 0.168142 0.034789 -0.080769
C6    C     C_R   0.329699 0.167808 0.019380 0.020500
C7    C     C_R   0.315349 0.166533 0.088958 -0.103343
C8    C     C_R   0.247304 0.163132 0.104412 -0.109412
C9    C     C_R   0.192908 0.161434 0.050542 -0.095506
C10   C     C_R   0.206862 0.162071 0.981369 -0.098674
C11   C     C_R   0.275343 0.164516 0.966182 -0.082786
C12   C     C_R   0.110852 0.673370 0.984926 0.019900
C13   C     C_3   0.237537 0.858985 0.439964 0.003516
C14   C     C_R   0.120130 0.674349 0.913812 -0.094302
C15   C     C_R   0.185660 0.669540 0.893031 -0.113528
C16   C     C_R   0.242755 0.664659 0.943049 -0.101377
C17   C     C_R   0.233950 0.664440 0.013657 -0.108064
C18   C     C_R   0.168070 0.668156 0.034782 -0.081384
C19   C     C_R   0.829702 0.667794 0.019394 0.020939
C20   C     C_R   0.815364 0.666513 0.088977 -0.103396
C21   C     C_R   0.747324 0.663112 0.104444 -0.110134
C22   C     C_R   0.692920 0.661421 0.050582 -0.094729
C23   C     C_R   0.706862 0.662063 0.981405 -0.098380
C24   C     C_3   0.752914 0.902570 0.567777 0.036268
C25   C     C_R   0.775338 0.664508 0.966205 -0.083137
C26   C     C_3   0.733130 0.532543 0.459008 -0.153912
C27   C     C_3   0.284616 0.504376 0.529554 -0.129014
C28   C     C_3   0.198599 0.960948 0.469123 -0.073597
C29   C     C_3   0.811600 0.930781 0.524255 -0.090921
C30   C     C_3   0.805686 0.539632 0.501345 -0.193177
C31   C     C_3   0.215207 0.516511 0.481665 -0.152035
C32   C     C_3   0.267405 0.026179 0.490167 -0.148176
C33   C     C_R   0.292416 0.997108 0.632610 0.559749
C34   C     C_3   0.764362 0.026791 0.486014 -0.114755
C35   C     C_3   0.826412 0.420677 0.469380 -0.080842
C36   C     C_3   0.182708 0.417866 0.521857 -0.079280
C37   C     C_3   0.306254 0.922794 0.460390 -0.069493
C38   C     C_3   0.706111 0.998006 0.531191 -0.106991
C39   C     C_3   0.799326 0.351404 0.528597 0.257762
C40   C     C_3   0.207360 0.324971 0.472707 0.251953
C41   C     C_3   0.313055 0.857357 0.529982 0.259132
C42   C     C_3   0.678668 0.902970 0.478212 0.248374
C43   C     C_3   0.778480 0.469026 0.560056 0.050554
C44   C     C_R   0.226115 0.450433 0.359962 0.555612
C45   C     C_3   0.240276 0.422320 0.433257 0.063430
C46   C     C_3   0.275048 0.959839 0.560469 0.041805
C47   C     C_3   0.736451 0.930564 0.434056 0.034407
C48   C     C_3   0.490110 0.272447 0.974077 -0.108593
C49   C     C_3   0.450946 0.268472 0.038330 -0.128039
C50   C     C_3   0.990104 0.772451 0.974077 -0.108652
C51   C     C_3   0.950944 0.768468 0.038332 -0.128054
C52   C     C_3   0.539130 0.174263 0.004357 -0.006873
C53   C     C_3   0.403022 0.171356 0.003804 -0.022557
C54   C     C_3   0.039129 0.674272 0.004355 -0.006878
C55   C     C_R   0.793065 0.498431 0.633397 0.566339
C56   C     C_3   0.903022 0.671348 0.003807 -0.022606
C57   C     C_3   0.500620 0.170849 0.068943 0.033312
C58   C     C_3   0.442718 0.175298 0.938625 0.014152
C59   C     C_3   0.000622 0.670850 0.068942 0.032653
C60   C     C_3   0.942715 0.675299 0.938625 0.013929
C61   C     C_R   0.563957 0.183611 0.347523 0.553953
C62   C     C_R   0.465741 0.180239 0.663204 0.537237
C63   C     C_R   0.063639 0.683517 0.347520 0.525747
C64   C     C_R   0.965744 0.680226 0.663222 0.533558
C65   C     C_3   0.452639 0.073436 0.036363 -0.131620
C66   C     C_3   0.727263 0.343214 0.487948 -0.106736
C67   C     C_3   0.491285 0.076795 0.971199 -0.113076
C68   C     C_3   0.952644 0.573433 0.036363 -0.131600
C69   C     C_3   0.991288 0.576800 0.971197 -0.112755
C70   C     C_1   0.763224 0.424216 0.903858 -0.015577
C71   C     C_1   0.238720 0.427320 0.095983 -0.007928
C72   C     C_1   0.263226 0.924219 0.903861 -0.015152
C73   C     C_1   0.738724 0.927309 0.095986 -0.007188
C74   C     C_1   0.752504 0.410509 0.036479 -0.016315
C75   C     C_1   0.251480 0.413471 0.963728 -0.022458
C76   C     C_1   0.252508 0.910518 0.036485 -0.017147
C77   C     C_3   0.276445 0.310978 0.519710 -0.110659
C78   C     C_1   0.751484 0.913458 0.963731 -0.022883
C79   C     C_1   0.757392 0.415002 0.964660 -0.022661
C80   C     C_1   0.246828 0.417721 0.035707 -0.019461
C81   C     C_1   0.257395 0.915008 0.964665 -0.021934
C82   C     C_1   0.746833 0.917708 0.035710 -0.019122
C83   C     C_1   0.746504 0.397167 0.096955 -0.006685
C84   C     C_1   0.254989 0.400730 0.902625 -0.012756
C85   C     C_1   0.246508 0.897179 0.096962 -0.009747
C86   C     C_1   0.754991 0.900721 0.902627 -0.012919
C87   C     C_R   0.740933 0.366633 0.359618 0.539175
C88   C     C_3   0.245021 0.792518 0.509977 -0.150984
C89   C     C_R   0.259171 0.367467 0.640210 0.539235
C90   C     C_R   0.225537 0.814383 0.368855 0.532855
C91   C     C_R   0.760207 0.864517 0.639204 0.557807
C92   C     C_R   0.722571 0.953165 0.164102 0.522838
C93   C     C_R   0.277392 0.951700 0.835441 0.526906
C94   C     C_R   0.222570 0.453169 0.164100 0.525757
C95   C     C_R   0.777392 0.451701 0.835441 0.532267
C96   C     C_R   0.532847 0.179269 0.140080 0.535237
C97   C     C_R   0.431911 0.183186 0.861426 0.538433
C98   C     C_R   0.032849 0.679269 0.140079 0.535546
C99   C     C_3   0.724858 0.806998 0.515046 -0.100717
C100  C     C_R   0.931910 0.683186 0.861425 0.538372
C101  C     C_R   0.737049 0.361318 0.165492 0.525713
C102  C     C_R   0.262787 0.362879 0.833912 0.518562
C103  C     C_R   0.237053 0.861333 0.165502 0.538439
C104  C     C_R   0.762787 0.862878 0.833912 0.523287
C105  C     C_1   0.496748 0.172595 0.600418 0.017225
C106  C     C_1   0.547143 0.176834 0.417041 0.029358
C107  C     C_1   0.996670 0.672462 0.600418 -0.005572
C108  C     C_1   0.046633 0.676395 0.416938 -0.009679
C109  C     C_1   0.533858 0.172761 0.475907 -0.007335
C110  C     C_3   0.754139 0.414277 0.428998 0.022463
C111  C     C_1   0.516297 0.170687 0.544026 -0.012799
C112  C     C_1   0.033461 0.672099 0.475819 -0.047286
C113  C     C_1   0.016093 0.670265 0.543987 -0.046973
C114  C     C_3   0.706298 0.462539 0.519312 -0.133130
C115  C     C_3   0.309040 0.410720 0.479565 -0.144624
C116  C     C_3   0.206296 0.896566 0.539901 -0.150996
C117  C     C_3   0.783125 0.835955 0.470635 -0.198477
C118  C     C_R   0.610853 0.173353 0.984930 0.019551
C119  C     C_R   0.620134 0.174327 0.913817 -0.094110
C120  C     C_R   0.685666 0.169520 0.893039 -0.112648
Cl1   Cl    Cl    0.847860 0.233346 0.573357 -0.604267
Cl2   Cl    Cl    0.147733 0.222185 0.430644 -0.619745
Cl3   Cl    Cl    0.392929 0.788054 0.561759 -0.550822
Cl4   Cl    Cl    0.589715 0.876512 0.451623 -0.544841
Cr1   Cr    Cr6+3 0.765830 0.160660 0.268180 1.027184
Cr2   Cr    Cr6+3 0.384070 0.324050 0.751550 1.026332
Cr3   Cr    Cr6+3 0.115930 0.824050 0.248450 1.035404
Cr4   Cr    Cr6+3 0.884070 0.824050 0.751550 1.032674
Cr5   Cr    Cr6+3 0.234170 0.160660 0.731820 1.031807
Cr6   Cr    Cr6+3 0.265830 0.660660 0.268180 1.033729
Cr7   Cr    Cr6+3 0.734170 0.660660 0.731820 1.032198
Cr8   Cr    Cr6+3 0.612110 0.009150 0.248770 1.061111
Cr9   Cr    Cr6+3 0.387890 0.009150 0.751230 1.058140
Cr10  Cr    Cr6+3 0.112110 0.509150 0.248770 1.050607
Cr11  Cr    Cr6+3 0.887890 0.509150 0.751230 1.050955
Cr12  Cr    Cr6+3 0.615930 0.324050 0.248450 1.022628
H1    H     H_    0.693875 0.263304 0.481131 0.096785
H2    H     H_    0.317261 0.574686 0.556251 0.192184
H3    H     H_    0.147812 0.991406 0.444146 0.210426
H4    H     H_    0.866256 0.943684 0.545358 0.181213
H5    H     H_    0.280350 0.110802 0.466774 0.147657
H6    H     H_    0.780383 0.114432 0.467420 0.185953
H7    H     H_    0.840703 0.616606 0.511410 0.111091
H8    H     H_    0.185231 0.593835 0.458567 0.091881
H9    H     H_    0.875356 0.403545 0.447424 0.159401
H10   H     H_    0.131323 0.423076 0.540462 0.153360
H11   H     H_    0.349014 0.934776 0.428140 0.177632
H12   H     H_    0.306732 0.235431 0.544612 0.098301
H13   H     H_    0.675479 0.064168 0.557192 0.135514
H14   H     H_    0.506808 0.357442 0.951829 0.143803
H15   H     H_    0.434388 0.348151 0.066230 0.129730
H16   H     H_    0.006798 0.857450 0.951830 0.143769
H17   H     H_    0.934384 0.848144 0.066234 0.130011
H18   H     H_    0.437986 0.991014 0.062777 0.125032
H19   H     H_    0.508282 0.995635 0.944945 0.138281
H20   H     H_    0.937996 0.491008 0.062777 0.124677
H21   H     H_    0.008287 0.495642 0.944943 0.138031
H22   H     H_    0.576557 0.177604 0.874096 0.154280
H23   H     H_    0.231065 0.711436 0.535787 0.118101
H24   H     H_    0.692240 0.169737 0.838346 0.123596
H25   H     H_    0.793957 0.161270 0.927367 0.123791
H26   H     H_    0.778696 0.160861 0.052254 0.128947
H27   H     H_    0.662081 0.166667 0.089527 0.131432
H28   H     H_    0.356787 0.168243 0.131234 0.116387
H29   H     H_    0.236766 0.162179 0.158005 0.130652
H30   H     H_    0.140339 0.159159 0.062381 0.123962
H31   H     H_    0.165064 0.160062 0.939518 0.129597
H32   H     H_    0.286193 0.163830 0.912927 0.122781
H33   H     H_    0.076551 0.677630 0.874092 0.153481
H34   H     H_    0.705590 0.719196 0.529970 0.159842
H35   H     H_    0.192232 0.669760 0.838337 0.117974
H36   H     H_    0.293952 0.661279 0.927355 0.122502
H37   H     H_    0.278696 0.660870 0.052243 0.128263
H38   H     H_    0.162083 0.666686 0.089521 0.130278
H39   H     H_    0.856809 0.668216 0.131247 0.114244
H40   H     H_    0.736797 0.662148 0.158040 0.121242
H41   H     H_    0.640354 0.659145 0.062431 0.122469
H42   H     H_    0.665057 0.660060 0.939560 0.129794
H43   H     H_    0.786177 0.663827 0.912946 0.121685
H44   H     H_    0.657218 0.479812 0.540950 0.154345
H45   H     H_    0.360244 0.405757 0.460598 0.142831
H46   H     H_    0.164224 0.886566 0.573181 0.147899
H47   H     H_    0.813533 0.774397 0.441418 0.120085
H48   H     H_    0.705686 0.603685 0.426695 0.152062
O1    O     O_R   0.783230 0.287800 0.346510 -0.515144
O2    O     O_R   0.454570 0.285140 0.836900 -0.523947
O3    O     O_R   0.045430 0.785140 0.163100 -0.514550
O4    O     O_R   0.954570 0.785140 0.836900 -0.523787
O5    O     O_R   0.677850 0.374730 0.185500 -0.499755
O6    O     O_R   0.322150 0.374730 0.814500 -0.511337
O7    O     O_R   0.177850 0.874730 0.185500 -0.491766
O8    O     O_R   0.822150 0.874730 0.814500 -0.508623
O9    O     O_3   0.664630 0.164620 0.255130 -0.296327
O10   O     O_3   0.335370 0.164620 0.744870 -0.315602
O11   O     O_3   0.164630 0.664620 0.255130 -0.315786
O12   O     O_R   0.216770 0.287800 0.653490 -0.503891
O13   O     O_3   0.835370 0.664620 0.744870 -0.319303
O14   O     O_R   0.760130 0.037060 0.338610 -0.512177
O15   O     O_R   0.239870 0.037060 0.661390 -0.497410
O16   O     O_R   0.260130 0.537060 0.338610 -0.519550
O17   O     O_R   0.739870 0.537060 0.661390 -0.507368
O18   O     O_R   0.666620 0.921370 0.332440 -0.468020
O19   O     O_R   0.333380 0.921370 0.667560 -0.450103
O20   O     O_R   0.166620 0.421370 0.332440 -0.457684
O21   O     O_R   0.833380 0.421370 0.667560 -0.433239
O22   O     O_R   0.557170 0.082420 0.312350 -0.455254
O23   O     O_R   0.283230 0.787800 0.346510 -0.490678
O24   O     O_R   0.442830 0.082420 0.687650 -0.483930
O25   O     O_R   0.057170 0.582420 0.312350 -0.479169
O26   O     O_R   0.942830 0.582420 0.687650 -0.500557
O27   O     O_R   0.548310 0.285980 0.316250 -0.506219
O28   O     O_R   0.451690 0.285980 0.683750 -0.498093
O29   O     O_R   0.048310 0.785980 0.316250 -0.499757
O30   O     O_R   0.951690 0.785980 0.683750 -0.498243
O31   O     O_R   0.680520 0.375500 0.327470 -0.507821
O32   O     O_R   0.319480 0.375500 0.672530 -0.490849
O33   O     O_R   0.180520 0.875500 0.327470 -0.491713
O34   O     O_R   0.716770 0.787800 0.653490 -0.513070
O35   O     O_R   0.819480 0.875500 0.672530 -0.486734
O36   O     O_R   0.780350 0.286970 0.193350 -0.515648
O37   O     O_R   0.219650 0.286970 0.806650 -0.517430
O38   O     O_R   0.280350 0.786970 0.193350 -0.510869
O39   O     O_R   0.719650 0.786970 0.806650 -0.514144
O40   O     O_R   0.757460 0.036290 0.196640 -0.504712
O41   O     O_R   0.242540 0.036290 0.803360 -0.505067
O42   O     O_R   0.257460 0.536290 0.196640 -0.507036
O43   O     O_R   0.742540 0.536290 0.803360 -0.503504
O44   O     O_R   0.663740 0.920540 0.179290 -0.512239
O45   O     O_R   0.554500 0.081650 0.170370 -0.503522
O46   O     O_R   0.336260 0.920540 0.820710 -0.511375
O47   O     O_R   0.163740 0.420540 0.179290 -0.506230
O48   O     O_R   0.836260 0.420540 0.820710 -0.508138
O49   O     O_R   0.445500 0.081650 0.829630 -0.511247
O50   O     O_R   0.054500 0.581650 0.170370 -0.501829
O51   O     O_R   0.945500 0.581650 0.829630 -0.512023
O52   O     O_R   0.545430 0.285140 0.163100 -0.515370

loop_
_geom_bond_atom_site_label_1
_geom_bond_atom_site_label_2
_ccdc_geom_bond_type
C19   C56   S    
Cr9   O19   S    
Cr8   O22   S    
C48   H14   S    
C13   C90   S    
C24   C99   S    
C84   C102  S    
C35   C39   S    
C1    O14   A    
C74   C83   T    
C86   C104  S    
Cr8   O45   S    
Cr5   O10   S    
C42   Cl4   S    
C7    C8    A    
C87   O1    A    
C71   C94   S    
Cr9   O24   S    
Cr2   O2    S    
C58   C97   S    
C65   H18   S    
C30   C35   S    
Cr7   O34   S    
C5    H27   S    
C64   O30   A    
C9    H30   S    
C100  O4    A    
C38   C42   S    
C101  O5    A    
Cr8   O44   S    
C43   C114  S    
C61   O27   A    
C75   C84   T    
C20   H39   S    
C96   O45   A    
Cr8   O9    S    
C33   O15   A    
C15   C16   A    
C55   O17   A    
C49   C57   S    
C37   H11   S    
C8    C9    A    
Cr1   O1    S    
C51   C56   S    
C35   H9    S    
C88   H23   S    
C31   H8    S    
Cr2   O6    S    
C83   C101  S    
C45   C115  S    
Cr9   O46   S    
C71   C80   T    
C36   C40   S    
Cr6   O23   S    
C28   C116  S    
C24   C29   S    
C47   C117  S    
C107  C113  T    
C19   C20   A    
C10   H31   S    
C23   H42   S    
C57   C96   S    
C116  H46   S    
C69   H21   S    
C41   C46   S    
C13   C28   S    
C2    C27   S    
C50   H16   S    
C53   C65   S    
C9    C10   A    
C26   C110  S    
C104  O39   A    
C13   C37   S    
C72   C81   T    
C85   C103  S    
C61   O22   A    
Cr11  O21   S    
Cr12  O31   S    
C78   C86   T    
C23   C25   A    
C105  C111  T    
Cr3   O3    S    
Cr10  O25   S    
Cr4   O4    S    
C21   C22   A    
C118  C119  A    
C91   O35   A    
C33   C46   S    
C64   O26   A    
C40   C45   S    
C28   H3    S    
C63   O25   A    
C14   H33   S    
Cr6   O16   S    
C1    O18   A    
C28   C32   S    
C62   O24   A    
C112  C113  S    
C115  H45   S    
C17   H37   S    
C94   O47   A    
C50   C51   S    
C54   C59   S    
C22   C23   A    
C60   C100  S    
Cr10  O50   S    
C97   O2    A    
C55   O21   A    
C27   H2    S    
C49   H15   S    
C27   C31   S    
C92   O40   A    
Cr6   O38   S    
C95   O48   A    
Cr5   O37   S    
Cr6   O11   S    
C8    H29   S    
Cr4   O35   S    
C6    C11   A    
C62   C105  S    
C93   O46   A    
C3    H25   S    
C1    C47   S    
C39   C43   S    
C65   C67   S    
C56   C68   S    
C89   O12   A    
C29   C117  S    
C29   C34   S    
C90   O33   A    
Cr3   O7    S    
C30   H7    S    
C108  C112  T    
Cr4   O8    S    
C44   O16   A    
C88   C116  S    
C2    C89   S    
C66   C114  S    
C26   C114  S    
C98   O3    A    
Cr11  O51   S    
Cr3   O11   S    
C59   C68   S    
C99   C117  S    
Cr12  O27   S    
C34   H6    S    
Cr2   O10   S    
C24   C38   S    
C98   O50   A    
Cr1   O9    S    
C119  C120  A    
C21   H40   S    
C97   O49   A    
C25   H43   S    
C17   C18   A    
C96   O52   A    
C15   H35   S    
Cr7   O43   S    
Cr9   O49   S    
C32   C37   S    
C63   O29   A    
C48   C58   S    
C61   C106  S    
C35   C110  S    
C77   H12   S    
C92   O44   A    
C32   H5    S    
Cr5   O15   S    
C52   C67   S    
Cr2   O32   S    
C89   O32   A    
C72   C93   S    
C18   H38   S    
C36   H10   S    
C48   C49   S    
C29   H4    S    
C12   C14   A    
Cr1   O14   S    
C26   C30   S    
Cr7   O17   S    
C114  H44   S    
C74   C79   S    
C11   H32   S    
C39   C66   S    
C87   C110  S    
C30   C43   S    
C103  O7    A    
C6    C53   S    
Cr5   O41   S    
C3    C4    A    
C24   C91   S    
Cr4   O30   S    
C73   C82   T    
Cr5   O12   S    
C44   C45   S    
Cr3   O33   S    
C64   C107  S    
C120  H24   S    
C75   C80   S    
Cr1   O40   S    
C2    C36   S    
C3    C120  A    
C41   C88   S    
C51   H17   S    
C104  O8    A    
C78   C82   S    
C38   H13   S    
Cr7   O13   S    
C70   C79   T    
C34   C38   S    
C5    C118  A    
C32   C46   S    
C68   C69   S    
Cr3   O29   S    
C73   C92   S    
C57   C65   S    
C4    C5    A    
C68   H20   S    
C76   C81   S    
Cr11  O13   S    
C52   C57   S    
Cr7   O39   S    
C53   C58   S    
C117  H47   S    
Cr10  O20   S    
C6    C7    A    
C43   C55   S    
C67   H19   S    
Cr10  O47   S    
C40   Cl2   S    
C7    H28   S    
Cr9   O10   S    
Cr8   O18   S    
C39   Cl1   S    
C87   O31   A    
C46   C116  S    
Cr12  O5    S    
Cr11  O48   S    
C99   H34   S    
C41   Cl3   S    
C91   O34   A    
C109  C111  S    
C70   C95   S    
C63   C108  S    
C50   C60   S    
Cr12  O9    S    
C50   C54   S    
C2    C77   S    
Cr2   O28   S    
C42   C99   S    
C26   H48   S    
C103  O38   A    
C101  O36   A    
C16   C17   A    
C66   H1    S    
C60   C69   S    
C119  H22   S    
C49   C53   S    
Cr12  O52   S    
C13   C88   S    
C102  O6    A    
C33   O19   A    
C4    H26   S    
C42   C47   S    
C40   C77   S    
C37   C41   S    
C19   C25   A    
C95   O43   A    
C54   C69   S    
C10   C11   A    
C94   O42   A    
C90   O23   A    
Cr1   O36   S    
C56   C60   S    
C58   C67   S    
C48   C52   S    
Cr11  O26   S    
C51   C59   S    
C20   C21   A    
Cr6   O42   S    
Cr10  O11   S    
C31   C45   S    
C12   C18   A    
C44   O20   A    
C59   C98   S    
C62   O28   A    
C14   C15   A    
C66   C110  S    
C100  O51   A    
C31   C36   S    
C34   C47   S    
C22   H41   S    
C93   O41   A    
C77   C115  S    
C76   C85   T    
C12   C54   S    
Cr4   O13   S    
C102  O37   A    
C52   C118  S    
C16   H36   S    
C106  C109  T    
C27   C115  S    
