data_mof_unit_42622.cif
_audit_creation_date              2013-03-05T16:14:48-0500
_audit_creation_method            fapswitch 2.2
_symmetry_space_group_name_H-M    P1
_symmetry_Int_Tables_number       1
_space_group_crystal_system       triclinic
_cell_length_a                    9.399662
_cell_length_b                    10.647124
_cell_length_c                    17.353622
_cell_angle_alpha                 89.975872
_cell_angle_beta                  84.832256
_cell_angle_gamma                 90.008881
_cell_volume                      1729.67993021

loop_
_atom_site_label
_atom_site_type_symbol
_atom_site_description
_atom_site_fract_x
_atom_site_fract_y
_atom_site_fract_z
_atom_type_partial_charge
O1    O     O_R   0.379130 0.683150 0.499960 -0.580936
O2    O     O_R   0.620870 0.316850 0.500040 -0.580941
O3    O     O_R   0.620910 0.683140 0.500000 -0.592749
O4    O     O_R   0.379090 0.316860 0.500000 -0.592779
C1    C     C_R   0.499835 0.740426 0.500037 0.859943
C2    C     C_R   0.500164 0.259574 0.499964 0.859958
O5    O     O_R   0.365090 0.500030 0.613580 -0.556774
O6    O     O_R   0.634910 0.499970 0.386420 -0.556755
O7    O     O_R   0.606870 0.500020 0.613610 -0.597474
O8    O     O_R   0.393130 0.499980 0.386390 -0.597449
C3    C     C_R   0.479576 0.495375 0.650044 0.861844
C4    C     C_R   0.520424 0.504597 0.349953 0.861786
Cu1   Cu    Cu3+1 0.356850 0.500010 0.499980 0.970455
Cu2   Cu    Cu3+1 0.643150 0.499990 0.500020 0.970477
C5    C     C_R   0.465677 0.483430 0.734883 -0.151947
C6    C     C_R   0.534325 0.516432 0.265107 -0.152083
C7    C     C_R   0.590889 0.472236 0.772418 -0.223158
C8    C     C_R   0.409118 0.527565 0.227564 -0.223123
C9    C     C_R   0.584611 0.465525 0.852108 -0.153911
C10   C     C_R   0.415402 0.534144 0.147869 -0.153900
C11   C     C_R   0.453416 0.475161 0.896707 -0.026276
C12   C     C_R   0.546599 0.524435 0.103279 -0.026286
C13   C     C_R   0.325278 0.484763 0.860619 0.270507
C14   C     C_R   0.674731 0.514862 0.139373 0.270509
C15   C     C_R   0.330922 0.481923 0.779107 0.390088
C16   C     C_R   0.669083 0.517849 0.220884 0.390030
C17   C     C_2   0.450472 0.470398 0.981244 -0.096638
C18   C     C_2   0.549558 0.529151 0.018741 -0.096662
H1    H     H_    0.695013 0.468272 0.740210 0.186708
H2    H     H_    0.304995 0.531586 0.259770 0.186740
H3    H     H_    0.636382 0.579763 0.986886 0.188239
H4    H     H_    0.363645 0.419790 0.013100 0.188286
H5    H     H_    0.316635 0.546216 0.121027 0.209070
H6    H     H_    0.683384 0.453422 0.878942 0.209045
C19   C     C_3   0.362824 0.958964 0.507656 -0.226782
C20   C     C_3   0.637171 0.041037 0.492347 -0.226781
C21   C     C_3   0.430003 0.042193 0.440101 -0.265601
C22   C     C_3   0.569992 0.957809 0.559903 -0.265626
H7    H     H_    0.375528 0.078440 0.390463 0.181762
H8    H     H_    0.624465 0.921563 0.609541 0.181750
H9    H     H_    0.251138 0.924006 0.515195 0.184923
H10   H     H_    0.748856 0.075996 0.484808 0.184923
C23   C     C_3   0.501157 0.123100 0.499519 -0.147920
C24   C     C_3   0.498838 0.876902 0.500484 -0.147923
C25   C     C_3   0.435928 0.040988 0.565347 0.415789
C26   C     C_3   0.564066 0.959015 0.434656 0.415782
C27   C     C_3   0.959371 0.442998 0.439567 -0.024284
C28   C     C_3   0.040629 0.557002 0.560433 -0.024333
C29   C     C_3   0.050361 0.386508 0.500196 -0.048635
C30   C     C_3   0.949639 0.613492 0.499804 -0.048552
H11   H     H_    0.096976 0.290735 0.500526 0.141113
H12   H     H_    0.903024 0.709265 0.499474 0.141124
H13   H     H_    0.920104 0.394788 0.388864 0.169214
H14   H     H_    0.079897 0.605210 0.611137 0.169185
N1    N     N_3   0.141720 0.500030 0.499940 -0.167055
N2    N     N_3   0.858280 0.499970 0.500060 -0.167038
C31   C     C_3   0.060640 0.556508 0.439334 -0.035873
C32   C     C_3   0.939361 0.443492 0.560666 -0.035891
H15   H     H_    0.116986 0.604495 0.388600 0.124133
H16   H     H_    0.883021 0.395506 0.611403 0.124112
O9    O     O_3   0.794985 0.510686 0.256257 -0.569438
C33   C     C_3   0.841389 0.633857 0.271400 -0.110477
H17   H     H_    0.781309 0.672735 0.323965 0.197380
H18   H     H_    0.832692 0.699509 0.221985 0.193422
H19   H     H_    0.955652 0.629910 0.282420 0.155247
O10   O     O_3   0.205014 0.489152 0.743740 -0.569496
C34   C     C_3   0.158561 0.366013 0.728547 -0.110289
H20   H     H_    0.167636 0.300180 0.777838 0.193456
H21   H     H_    0.218324 0.327328 0.675820 0.197270
H22   H     H_    0.044175 0.369970 0.717760 0.155334
N3    N     N_R   0.191312 0.505433 0.906148 0.150053
O11   O     O_R   0.182546 0.588451 0.961402 -0.305120
O12   O     O_R   0.075818 0.447454 0.890104 -0.297913
N4    N     N_R   0.808689 0.494080 0.093857 0.150059
O13   O     O_R   0.817391 0.411025 0.038623 -0.305079
O14   O     O_R   0.924239 0.551971 0.109900 -0.297845
N5    N     N_R   0.367199 0.089454 0.637789 0.106911
O15   O     O_R   0.234252 0.062888 0.658634 -0.382226
O16   O     O_R   0.440019 0.156570 0.682977 -0.395696
N6    N     N_R   0.632786 0.910556 0.362211 0.106909
O17   O     O_R   0.765738 0.937096 0.341373 -0.382165
O18   O     O_R   0.559937 0.843497 0.317006 -0.395654

loop_
_geom_bond_atom_site_label_1
_geom_bond_atom_site_label_2
_geom_bond_distance
_ccdc_geom_bond_type
C28   N1    1.481180 S    
Cu2   N2    2.022212 S    
C7    H1    1.083317 S    
C20   H10   1.110332 S    
C27   C29   1.536854 S    
N5    O15   1.300337 A    
O5    C3    1.297534 A    
N4    O14   1.300586 A    
O1    C1    1.288118 A    
C9    C11   1.399443 A    
C16   O9    1.383470 S    
C14   C16   1.411092 A    
C5    C15   1.420743 A    
C32   H16   1.110059 S    
O4    Cu1   1.961230 S    
C22   C25   1.536296 S    
C33   H18   1.114796 S    
C3    C5    1.471724 S    
C4    C6    1.471750 S    
C29   H11   1.110131 S    
C30   H12   1.110133 S    
C20   C26   1.536756 S    
C8    H2    1.083319 S    
C27   H13   1.110295 S    
C28   C30   1.536854 S    
O10   C34   1.414190 S    
C11   C17   1.465654 S    
C12   C18   1.465641 S    
Cu1   Cu2   2.691185 S    
O2    C2    1.288120 A    
O2    Cu2   1.961093 S    
C24   C26   1.522508 S    
N5    O16   1.300421 A    
C11   C13   1.410404 A    
C6    C16   1.420744 A    
N4    O13   1.301553 A    
C34   H20   1.114855 S    
C13   N3    1.441994 S    
O4    C2    1.291222 A    
N3    O12   1.300594 A    
C29   N1    1.482356 S    
C9    H6    1.083191 S    
C30   N2    1.482356 S    
C29   C32   1.536689 S    
C34   H21   1.109162 S    
C21   C23   1.541877 S    
C28   H14   1.110298 S    
O7    Cu2   1.969980 S    
C22   C24   1.541892 S    
C33   H17   1.109039 S    
C27   C31   1.538073 S    
C23   C25   1.522515 S    
O6    C4    1.297543 A    
C19   C24   1.544409 S    
O7    C3    1.302896 A    
O3    Cu2   1.961229 S    
O8    C4    1.302902 A    
C10   H5    1.083171 S    
N6    O18   1.300433 A    
C1    C24   1.453127 S    
C10   C12   1.399441 A    
C2    C23   1.453115 S    
N1    C31   1.480738 S    
C12   C14   1.410383 A    
O1    Cu1   1.961093 S    
C19   C25   1.536764 S    
C5    C7    1.400645 A    
O6    Cu2   1.979851 S    
C33   H19   1.108559 S    
C19   C21   1.556897 S    
C17   H4    1.086446 S    
C30   C31   1.536690 S    
C18   H3    1.086440 S    
C15   O10   1.383505 S    
N6    O17   1.300298 A    
O3    C1    1.291232 A    
O8    Cu1   1.969978 S    
C28   C32   1.538069 S    
C34   H22   1.108660 S    
C20   C22   1.556909 S    
N3    O11   1.301524 A    
C21   H7    1.110126 S    
C22   H8    1.110117 S    
C14   N4    1.442010 S    
C7    C9    1.380662 A    
N2    C32   1.480746 S    
C8    C10   1.380692 A    
C13   C15   1.411073 A    
O9    C33   1.414179 S    
C19   H9    1.110338 S    
C31   H15   1.110059 S    
O5    Cu1   1.979851 S    
C6    C8    1.400616 A    
C17   C18   1.338480 D    
C20   C23   1.544403 S    
C25   N5    1.455455 S    
C26   N6    1.455451 S    
C21   C26   1.536283 S    
C27   N2    1.481184 S    
Cu1   N1    2.022212 S    
