data_mof_unit_34042.cif
_audit_creation_date              2012-12-10T20:44:41-0500
_audit_creation_method            fapswitch 2.2
_symmetry_space_group_name_H-M    P1
_symmetry_Int_Tables_number       1
_space_group_crystal_system       triclinic
_cell_length_a                    9.854415
_cell_length_b                    10.682513
_cell_length_c                    16.921756
_cell_angle_alpha                 89.489122
_cell_angle_beta                  94.329882
_cell_angle_gamma                 89.715732
_cell_volume                      1776.16870122

loop_
_atom_site_label
_atom_site_type_symbol
_atom_type_description
_atom_site_fract_x
_atom_site_fract_y
_atom_site_fract_z
_atom_type_partial_charge
C1    C     C_R   0.499864 0.259859 0.497361 0.885632
C2    C     C_R   0.648380 0.482555 0.783100 -0.219646
C3    C     C_R   0.585573 0.551526 0.141891 -0.180535
C4    C     C_R   0.592326 0.529046 0.222285 -0.233186
C5    C     C_R   0.458435 0.565224 0.098552 0.277106
C6    C     C_R   0.472853 0.522297 0.261536 -0.042223
C7    C     C_R   0.346073 0.541447 0.219795 -0.267881
C8    C     C_R   0.337572 0.563452 0.138109 -0.000809
C9    C     C_R   0.619919 0.063161 0.480040 0.141700
C10   C     C_R   0.498145 0.128663 0.483892 -0.107298
C11   C     C_R   0.373697 0.065705 0.471624 -0.225674
C12   C     C_R   0.517342 0.500112 0.653059 0.869635
C13   C     C_R   0.373295 0.936234 0.471409 -0.227033
C14   C     C_R   0.497330 0.871451 0.483489 -0.106090
C15   C     C_R   0.619433 0.935390 0.479877 0.133715
C16   C     C_3   0.748173 0.925970 0.532252 -0.468478
C17   C     C_3   0.748727 0.067746 0.532526 -0.501931
C18   C     C_R   0.080472 0.477504 0.568382 0.218468
C19   C     C_R   0.063255 0.533970 0.434175 -0.142327
C20   C     C_R   0.919313 0.533998 0.434171 -0.137484
C21   C     C_R   0.937877 0.477762 0.568499 0.222087
C22   C     C_3   0.940462 0.361734 0.618255 -0.523945
C23   C     C_R   0.499299 0.740089 0.497137 0.881619
C24   C     C_3   0.094393 0.361802 0.617999 -0.501091
C25   C     C_R   0.482495 0.504432 0.346867 0.876983
C26   C     C_R   0.526340 0.510086 0.738537 -0.025165
C27   C     C_R   0.412062 0.550230 0.775956 -0.240137
C28   C     C_R   0.419466 0.562166 0.857335 -0.168557
C29   C     C_R   0.541758 0.532852 0.902383 0.324126
C30   C     C_R   0.655302 0.492875 0.864865 -0.202261
H1    H     H_    0.691656 0.517355 0.253565 0.160723
H2    H     H_    0.276602 0.888008 0.467797 0.171836
H3    H     H_    0.732902 0.883745 0.591229 0.206205
H4    H     H_    0.832964 0.884803 0.501113 0.204699
H5    H     H_    0.733627 0.107704 0.591720 0.202211
H6    H     H_    0.834000 0.108137 0.501427 0.203901
H7    H     H_    0.110246 0.559580 0.380686 0.145261
H8    H     H_    0.858356 0.559766 0.380676 0.147208
H9    H     H_    0.904903 0.378616 0.677877 0.193056
H10   H     H_    0.892135 0.281548 0.586359 0.214032
H11   H     H_    0.146744 0.379798 0.677283 0.201427
H12   H     H_    0.680267 0.556454 0.113426 0.157717
H13   H     H_    0.135453 0.281329 0.585837 0.215398
H14   H     H_    0.748599 0.467785 0.899294 0.129943
H15   H     H_    0.737307 0.451343 0.755065 0.147213
H16   H     H_    0.253543 0.538547 0.250550 0.157272
H17   H     H_    0.329036 0.592205 0.884638 0.154510
H18   H     H_    0.317025 0.573113 0.742406 0.160420
H19   H     H_    0.277147 0.115159 0.468110 0.171154
N1    N     N_2   0.552323 0.533860 0.985662 -0.213445
N2    N     N_2   0.449729 0.575675 0.015251 -0.208470
N3    N     N_R   0.142860 0.499130 0.500540 -0.107652
N4    N     N_R   0.857210 0.499170 0.500530 -0.106801
O1    O     O_R   0.614690 0.316790 0.499990 -0.613118
O2    O     O_R   0.385350 0.316760 0.500000 -0.621465
O3    O     O_R   0.627460 0.498860 0.616130 -0.619913
O4    O     O_R   0.398120 0.498820 0.616130 -0.620679
O5    O     O_R   0.614650 0.683240 0.500000 -0.616272
O6    O     O_R   0.385310 0.683210 0.500010 -0.622843
O7    O     O_R   0.601880 0.501180 0.383870 -0.630273
O8    O     O_R   0.372540 0.501140 0.383870 -0.629455
Zn1   Zn    Zn3+2 0.653130 0.500020 0.499990 0.943963
Zn2   Zn    Zn3+2 0.346870 0.499980 0.500010 0.941047
C31   C     C_R   0.201639 0.583216 0.095618 0.124652
C32   C     C_R   0.111868 0.673092 0.122912 -0.165047
C33   C     C_R   0.983277 0.691839 0.083714 -0.139489
C34   C     C_R   0.943048 0.621153 0.017069 -0.114282
C35   C     C_R   0.030920 0.530787 0.989864 -0.150787
C36   C     C_R   0.159366 0.511211 0.029137 -0.137674
H20   H     H_    0.141852 0.729313 0.174193 0.126622
H21   H     H_    0.914897 0.761426 0.104911 0.132171
H22   H     H_    0.843699 0.636450 0.986713 0.134728
H23   H     H_    0.999510 0.475533 0.938469 0.123568
H24   H     H_    0.225070 0.439219 0.008073 0.137405

loop_
_geom_bond_atom_site_label_1
_geom_bond_atom_site_label_2
_ccdc_geom_bond_type
C27   H18   S    
O5    Zn1   S    
C23   O5    A    
C28   H17   S    
C18   C21   A    
C13   H2    S    
C19   C20   A    
C18   N3    A    
C7    C8    A    
C3    H12   S    
C23   O6    A    
C26   C27   A    
C18   C24   S    
C28   C29   A    
C6    C25   S    
C32   H20   S    
O7    Zn1   S    
C34   H22   S    
O8    Zn2   S    
C19   H7    S    
C16   H4    S    
C19   N3    A    
C35   C36   A    
O2    Zn2   S    
C17   H6    S    
C9    C10   A    
C33   C34   A    
C13   C14   A    
C24   H11   S    
C30   H14   S    
O4    Zn2   S    
C29   N1    S    
C2    H15   S    
C34   C35   A    
C7    H16   S    
C4    C6    A    
C16   C17   S    
O1    Zn1   S    
C35   H23   S    
C12   C26   S    
C14   C23   S    
C1    O1    A    
C29   C30   A    
C11   H19   S    
C16   H3    S    
C20   H8    S    
N4    Zn1   S    
C33   H21   S    
C22   H10   S    
N1    N2    D    
C36   H24   S    
C2    C26   A    
C25   O8    A    
C31   C36   A    
C12   O3    A    
C8    C31   S    
C12   O4    A    
C9    C17   S    
C25   O7    A    
C22   C24   S    
C3    C4    A    
C1    C10   S    
C20   N4    A    
C3    C5    A    
N3    Zn2   S    
C5    C8    A    
C6    C7    A    
O6    Zn2   S    
C2    C30   A    
C31   C32   A    
C1    O2    A    
C21   N4    A    
C11   C13   A    
C22   H9    S    
O3    Zn1   S    
C9    C15   A    
C4    H1    S    
C10   C11   A    
C32   C33   A    
C27   C28   A    
C24   H13   S    
C14   C15   A    
C5    N2    S    
C17   H5    S    
C21   C22   S    
C15   C16   S    
