data_mof_unit_46070.cif
_audit_creation_date              2012-12-10T17:41:46-0500
_audit_creation_method            fapswitch 2.2
_symmetry_space_group_name_H-M    P1
_symmetry_Int_Tables_number       1
_space_group_crystal_system       triclinic
_cell_length_a                    13.80675
_cell_length_b                    13.878016
_cell_length_c                    14.942437
_cell_angle_alpha                 88.767524
_cell_angle_beta                  88.992917
_cell_angle_gamma                 85.857934
_cell_volume                      2854.6171511

loop_
_atom_site_label
_atom_site_type_symbol
_atom_type_description
_atom_site_fract_x
_atom_site_fract_y
_atom_site_fract_z
_atom_type_partial_charge
C1    C     C_R   0.500771 0.502927 0.328846 0.815730
C2    C     C_R   0.546990 0.316127 0.963164 0.142418
C3    C     C_R   0.792145 0.558675 0.441128 0.403740
C4    C     C_R   0.207803 0.437170 0.555020 0.400371
C5    C     C_R   0.794939 0.446895 0.562896 -0.032181
C6    C     C_R   0.203267 0.566337 0.449074 -0.034097
C7    C     C_R   0.898120 0.446846 0.567751 -0.038682
C8    C     C_R   0.099471 0.571520 0.449297 -0.036397
C9    C     C_R   0.947333 0.509336 0.509029 -0.033192
C10   C     C_R   0.050367 0.509648 0.508773 -0.032419
C11   C     C_R   0.892922 0.572007 0.450625 -0.076113
C12   C     C_R   0.499928 0.497953 0.671272 0.791778
C13   C     C_R   0.104703 0.447458 0.567592 -0.074644
C14   C     C_R   0.951906 0.390798 0.633294 0.129066
C15   C     C_R   0.043840 0.640427 0.395574 0.126586
C16   C     C_R   0.515030 0.317202 0.500425 0.804407
C17   C     C_R   0.484955 0.682812 0.499399 0.812890
C18   C     C_R   0.054884 0.396944 0.637255 0.131134
C19   C     C_R   0.940274 0.646168 0.402857 0.126834
C20   C     C_1   0.476628 0.785712 0.497570 -0.186422
C21   C     C_1   0.523205 0.214331 0.502327 -0.186415
C22   C     C_2   0.460509 0.975819 0.494016 -0.168687
C23   C     C_R   0.531181 0.492197 0.952859 0.004749
C24   C     C_2   0.538904 0.024261 0.506163 -0.164144
C25   C     C_1   0.530741 0.127668 0.504166 -0.005913
C26   C     C_1   0.468829 0.872388 0.495854 -0.002316
C27   C     C_R   0.506368 0.402915 0.816282 0.086233
C28   C     C_R   0.512933 0.591870 0.182487 0.076754
C29   C     C_R   0.503000 0.492722 0.768498 -0.078899
C30   C     C_R   0.504995 0.504469 0.231822 -0.052321
C31   C     C_R   0.520393 0.578062 0.810835 -0.265979
C32   C     C_R   0.512920 0.415528 0.190084 -0.281892
C33   C     C_R   0.533042 0.578798 0.902577 0.076687
C34   C     C_R   0.531149 0.496550 0.046858 0.013635
C35   C     C_R   0.523224 0.411183 0.097686 0.075212
C36   C     C_3   0.474841 0.313763 0.769121 -0.411166
C37   C     C_3   0.380373 0.279959 0.809284 -0.841549
C38   C     C_3   0.479304 0.687197 0.226581 -0.438406
C39   C     C_3   0.369249 0.696584 0.239236 -0.825981
C40   C     C_3   0.629600 0.741432 0.073140 -0.434307
C41   C     C_3   0.729283 0.740475 0.026654 -0.832411
C42   C     C_3   0.595948 0.223523 0.925175 -0.397026
C43   C     C_3   0.668472 0.168789 0.987915 -0.862989
C44   C     C_3   0.765232 0.542250 0.282742 -0.650785
C45   C     C_R   0.528511 0.401952 0.909673 0.043301
C46   C     C_3   0.251757 0.266764 0.538275 -0.663695
C47   C     C_3   0.898563 0.327087 0.700117 -0.412216
C48   C     C_3   0.869255 0.234716 0.656759 -0.844629
C49   C     C_3   0.094315 0.705398 0.328380 -0.411854
C50   C     C_3   0.125575 0.649387 0.244520 -0.839747
C51   C     C_3   0.106815 0.368757 0.724576 -0.353554
C52   C     C_3   0.129460 0.259491 0.738038 -0.826574
C53   C     C_3   0.882706 0.740949 0.377288 -0.355330
C54   C     C_3   0.862698 0.753692 0.276700 -0.801639
C55   C     C_R   0.537531 0.586293 0.089729 0.034966
C56   C     C_R   0.554351 0.663991 0.944031 -0.200935
C57   C     C_R   0.532768 0.321882 0.056186 -0.204387
C58   C     C_R   0.567784 0.665236 0.036706 0.142643
Cu1   Cu    Cu3+1 0.597420 0.500010 0.499990 0.923056
Cu2   Cu    Cu3+1 0.402580 0.499990 0.500010 0.924681
H1    H     H_    0.609521 0.986583 0.517525 0.153254
H2    H     H_    0.360815 0.214741 0.773982 0.237041
H3    H     H_    0.387185 0.261124 0.881422 0.253829
H4    H     H_    0.461910 0.328014 0.697244 0.185728
H5    H     H_    0.531597 0.253960 0.767243 0.185831
H6    H     H_    0.343576 0.635942 0.279895 0.265695
H7    H     H_    0.346889 0.764968 0.273656 0.237632
H8    H     H_    0.334066 0.697750 0.172910 0.251878
H9    H     H_    0.515354 0.693029 0.291909 0.184612
H10   H     H_    0.495004 0.751681 0.186293 0.209320
H11   H     H_    0.766597 0.666879 0.030852 0.254826
H12   H     H_    0.389884 0.013495 0.482657 0.150719
H13   H     H_    0.722544 0.763626 0.955344 0.247796
H14   H     H_    0.774652 0.791357 0.060289 0.240405
H15   H     H_    0.591289 0.814186 0.064714 0.200820
H16   H     H_    0.645149 0.727700 0.145044 0.200469
H17   H     H_    0.718610 0.218936 0.016200 0.260218
H18   H     H_    0.630161 0.131268 0.042880 0.244189
H19   H     H_    0.712294 0.112762 0.949799 0.241832
H20   H     H_    0.540531 0.173851 0.906379 0.212718
H21   H     H_    0.640428 0.242755 0.865719 0.203340
H22   H     H_    0.677268 0.631186 0.370274 0.275216
H23   H     H_    0.523722 0.644575 0.771628 0.136436
H24   H     H_    0.726632 0.578653 0.225415 0.216441
H25   H     H_    0.741122 0.467988 0.291468 0.243787
H26   H     H_    0.844262 0.536854 0.266828 0.222107
H27   H     H_    0.322717 0.360919 0.620950 0.286917
H28   H     H_    0.296337 0.205555 0.569335 0.212970
H29   H     H_    0.278231 0.278630 0.468573 0.242649
H30   H     H_    0.175274 0.247087 0.536301 0.227700
H31   H     H_    0.831379 0.190370 0.707211 0.238458
H32   H     H_    0.819885 0.250617 0.599823 0.250811
H33   H     H_    0.934391 0.191503 0.631516 0.248263
H34   H     H_    0.510149 0.349499 0.230067 0.134343
H35   H     H_    0.941431 0.304550 0.759539 0.223238
H36   H     H_    0.834034 0.368051 0.729327 0.183698
H37   H     H_    0.158317 0.698543 0.194883 0.241740
H38   H     H_    0.179333 0.588497 0.260634 0.253062
H39   H     H_    0.061837 0.619691 0.213635 0.249777
H40   H     H_    0.047910 0.769199 0.306277 0.223263
H41   H     H_    0.156945 0.737544 0.358587 0.181759
H42   H     H_    0.078714 0.216688 0.701816 0.256640
H43   H     H_    0.203716 0.237228 0.714352 0.265987
H44   H     H_    0.125233 0.240332 0.810470 0.230692
H45   H     H_    0.567453 0.727613 0.903472 0.144771
H46   H     H_    0.174382 0.406512 0.730956 0.196559
H47   H     H_    0.061550 0.397303 0.781636 0.171581
H48   H     H_    0.883946 0.825513 0.252499 0.222101
H49   H     H_    0.903335 0.697371 0.236649 0.258072
H50   H     H_    0.784026 0.750921 0.263909 0.251617
H51   H     H_    0.813033 0.749348 0.415585 0.195455
H52   H     H_    0.922425 0.802435 0.400455 0.169243
H53   H     H_    0.535085 0.256662 0.097387 0.153528
H54   H     H_    0.753411 0.404330 0.608416 0.162380
H55   H     H_    0.243629 0.614204 0.407851 0.153125
H56   H     H_    0.321300 0.337903 0.801366 0.259220
N1    N     N_R   0.743820 0.499960 0.499930 -0.210559
N2    N     N_R   0.256180 0.500040 0.500070 -0.208458
N3    N     N_2   0.745476 0.597482 0.363141 -0.423803
N4    N     N_2   0.258104 0.352809 0.590558 -0.425953
O1    O     O_R   0.582280 0.500030 0.370250 -0.584714
O2    O     O_R   0.417720 0.499970 0.629750 -0.593398
O3    O     O_R   0.417740 0.500020 0.370270 -0.581197
O4    O     O_R   0.582260 0.499980 0.629730 -0.582216
O5    O     O_R   0.593900 0.362160 0.500010 -0.573956
O6    O     O_R   0.406100 0.637840 0.499990 -0.573223
O7    O     O_R   0.429360 0.362150 0.500030 -0.578667
O8    O     O_R   0.570640 0.637850 0.499970 -0.596594

loop_
_geom_bond_atom_site_label_1
_geom_bond_atom_site_label_2
_ccdc_geom_bond_type
Cu1   O1    S    
C32   H34   S    
C38   H10   S    
C52   H43   S    
C42   H20   S    
C16   C21   S    
C23   C45   A    
C5    H54   S    
C27   C29   A    
C39   H8    S    
C14   C18   A    
C37   H2    S    
C2    C57   A    
C46   H29   S    
C53   C54   S    
C43   H18   S    
C15   C19   A    
C52   H42   S    
C50   H39   S    
C24   H1    S    
C13   C18   A    
C36   C37   S    
C49   H41   S    
C38   C39   S    
C12   C29   S    
C17   O6    A    
C27   C45   A    
C43   H19   S    
C17   C20   S    
C31   H23   S    
C54   H50   S    
C34   C35   A    
C4    C13   A    
C3    N1    A    
C41   H14   S    
C7    C14   A    
C23   C33   A    
C48   H31   S    
C47   H36   S    
C31   C33   A    
Cu2   N2    S    
C16   O5    A    
C41   H11   S    
C19   C53   S    
C33   C56   A    
C38   H9    S    
Cu1   Cu2   S    
Cu1   N1    S    
C4    N2    A    
C42   H21   S    
H22   N3    S    
C44   H26   S    
C22   H12   S    
C37   H3    S    
C28   C55   A    
C18   C51   S    
C46   H28   S    
C2    C45   A    
C6    H55   S    
C50   H38   S    
C40   C58   S    
C48   H33   S    
C51   C52   S    
C32   C35   A    
C24   C25   S    
C37   H56   S    
C36   H5    S    
C6    C8    A    
C44   N3    S    
Cu1   O8    S    
C40   H16   S    
C54   H49   S    
C5    N1    A    
Cu2   O3    S    
C1    O3    A    
C47   C48   S    
C12   O4    A    
C28   C38   S    
C23   C34   A    
C11   C19   A    
C46   N4    S    
Cu2   O2    S    
C9    C11   A    
C3    N3    S    
C53   H52   S    
C8    C10   A    
C40   C41   S    
C8    C15   A    
C22   C26   S    
C39   H6    S    
C22   C24   D    
Cu1   O5    S    
C42   C43   S    
C44   H25   S    
C5    C7    A    
C9    C10   A    
Cu1   O4    S    
C7    C9    A    
C21   C25   T    
C52   H44   S    
C50   H37   S    
C39   H7    S    
Cu2   O7    S    
C44   H24   S    
C10   C13   A    
C57   H53   S    
C17   O8    A    
C14   C47   S    
C46   H30   S    
C27   C36   S    
C43   H17   S    
C40   H15   S    
C54   H48   S    
C35   C57   A    
Cu2   O6    S    
H27   N4    S    
C29   C31   A    
C49   H40   S    
C30   C32   A    
C53   H51   S    
C20   C26   T    
C2    C42   S    
C51   H46   S    
C28   C30   A    
C1    C30   S    
C56   C58   A    
C15   C49   S    
C16   O7    A    
C1    O1    A    
C56   H45   S    
C3    C11   A    
C41   H13   S    
C34   C55   A    
C12   O2    A    
C51   H47   S    
C49   C50   S    
C48   H32   S    
C55   C58   A    
C47   H35   S    
C4    N4    S    
C36   H4    S    
C6    N2    A    
