data_mof_unit_63870.cif
_audit_creation_date              2012-12-10T17:07:41-0500
_audit_creation_method            fapswitch 2.2
_symmetry_space_group_name_H-M    P1
_symmetry_Int_Tables_number       1
_space_group_crystal_system       monoclinic
_cell_length_a                    30.239333
_cell_length_b                    30.239333
_cell_length_c                    23.667161
_cell_angle_alpha                 90.000115
_cell_angle_beta                  90.0
_cell_angle_gamma                 90.0
_cell_volume                      21641.6605203

loop_
_atom_site_label
_atom_site_type_symbol
_atom_type_description
_atom_site_fract_x
_atom_site_fract_y
_atom_site_fract_z
_atom_type_partial_charge
C1    C     C_R   0.585351 0.000000 0.500000 0.776599
C2    C     C_R   0.000000 0.585351 0.500000 0.776599
C3    C     C_R   0.414649 1.000000 0.500000 0.776599
C4    C     C_R   1.000000 0.414649 0.500000 0.776600
C5    C     C_R   0.085351 0.500000 1.000000 0.776599
C6    C     C_R   0.500000 0.085351 1.000000 0.776600
C7    C     C_R   0.914649 0.500000 0.000000 0.776600
C8    C     C_R   0.500000 0.914649 0.000000 0.776600
C9    C     C_R   0.726969 0.014052 0.601354 -0.115220
C10   C     C_R   0.985945 0.726969 0.601353 -0.115221
C11   C     C_R   0.273031 0.985929 0.601350 -0.115221
C12   C     C_R   0.014059 0.273031 0.601352 -0.115222
C13   C     C_R   0.726969 0.985947 0.398646 -0.115221
C14   C     C_R   0.985940 0.273031 0.398648 -0.115221
C15   C     C_R   0.273031 0.014071 0.398650 -0.115222
C16   C     C_R   0.014055 0.726968 0.398647 -0.115221
C17   C     C_R   0.226969 0.514051 0.101354 -0.115221
C18   C     C_R   0.485954 0.226969 0.101355 -0.115220
C19   C     C_R   0.773031 0.485942 0.101352 -0.115221
C20   C     C_R   0.514058 0.773031 0.101352 -0.115221
C21   C     C_R   0.226969 0.485949 0.898646 -0.115220
C22   C     C_R   0.485941 0.773031 0.898647 -0.115221
C23   C     C_R   0.773031 0.514058 0.898647 -0.115221
C24   C     C_R   0.514046 0.226968 0.898645 -0.115221
C25   C     C_R   0.703059 0.007159 0.551057 0.072446
C26   C     C_R   0.992839 0.703059 0.551057 0.072446
C27   C     C_R   0.296941 0.992831 0.551055 0.072445
C28   C     C_R   0.007163 0.296942 0.551057 0.072446
C29   C     C_R   0.703059 0.992841 0.448943 0.072446
C30   C     C_R   0.992837 0.296941 0.448943 0.072446
C31   C     C_R   0.296941 0.007169 0.448945 0.072445
C32   C     C_R   0.007161 0.703058 0.448943 0.072446
C33   C     C_R   0.203059 0.507159 0.051058 0.072446
C34   C     C_R   0.492844 0.203059 0.051058 0.072446
C35   C     C_R   0.796941 0.492838 0.051057 0.072446
C36   C     C_R   0.507162 0.796941 0.051057 0.072446
C37   C     C_R   0.203059 0.492841 0.948942 0.072446
C38   C     C_R   0.492837 0.796941 0.948943 0.072446
C39   C     C_R   0.796941 0.507162 0.948943 0.072446
C40   C     C_R   0.507156 0.203058 0.948942 0.072446
C41   C     C_R   0.726198 0.000000 0.500000 -0.101987
C42   C     C_R   1.000000 0.726198 0.500000 -0.101987
C43   C     C_R   0.273802 0.000000 0.500000 -0.101987
C44   C     C_R   1.000000 0.273802 0.500000 -0.101987
C45   C     C_R   0.226198 0.500000 1.000000 -0.101987
C46   C     C_R   0.500000 0.226197 1.000000 -0.101988
C47   C     C_R   0.773802 0.500000 0.000000 -0.101987
C48   C     C_R   0.500000 0.773802 0.000000 -0.101987
C49   C     C_R   0.656649 0.007116 0.551389 0.322185
C50   C     C_R   0.992883 0.656649 0.551388 0.322185
C51   C     C_R   0.343350 0.992875 0.551386 0.322185
C52   C     C_R   0.007119 0.343351 0.551388 0.322185
C53   C     C_R   0.656649 0.992884 0.448611 0.322186
C54   C     C_R   0.992880 0.343350 0.448612 0.322185
C55   C     C_R   0.343350 0.007125 0.448613 0.322186
C56   C     C_R   0.007117 0.656649 0.448612 0.322185
C57   C     C_R   0.156649 0.507115 0.051389 0.322186
C58   C     C_R   0.492887 0.156649 0.051389 0.322185
C59   C     C_R   0.843350 0.492881 0.051388 0.322185
C60   C     C_R   0.507119 0.843351 0.051388 0.322184
C61   C     C_R   0.156649 0.492885 0.948611 0.322185
C62   C     C_R   0.492881 0.843350 0.948612 0.322185
C63   C     C_R   0.843350 0.507119 0.948612 0.322185
C64   C     C_R   0.507113 0.156649 0.948611 0.322185
C65   C     C_R   0.633497 1.000000 0.500000 -0.242537
C66   C     C_R   1.000000 0.633497 0.500000 -0.242537
C67   C     C_R   0.366503 1.000000 0.500000 -0.242540
C68   C     C_R   1.000000 0.366503 0.500000 -0.242538
C69   C     C_R   0.133497 0.500000 1.000000 -0.242537
C70   C     C_R   0.500000 0.133497 1.000000 -0.242535
C71   C     C_R   0.866503 0.500000 0.000000 -0.242537
C72   C     C_R   0.500000 0.866503 0.000000 -0.242537
C73   C     C_R   1.000000 0.914073 0.500000 0.826525
C74   C     C_R   0.085927 0.000000 0.500000 0.826523
C75   C     C_R   1.000000 0.085927 0.500000 0.826524
C76   C     C_R   0.914073 0.000000 0.500000 0.826526
C77   C     C_R   0.500000 0.414073 1.000000 0.826526
C78   C     C_R   0.585927 0.500000 0.000000 0.826525
C79   C     C_R   0.500000 0.585927 0.000000 0.826524
C80   C     C_R   0.414073 0.500000 1.000000 0.826526
C81   C     C_R   0.500000 0.000000 0.608083 0.785595
C82   C     C_R   0.000000 0.500000 0.608083 0.785595
C83   C     C_R   0.500000 1.000000 0.391917 0.785595
C84   C     C_R   1.000000 0.500000 0.391917 0.785595
C85   C     C_R   1.000000 0.500000 0.108083 0.785594
C86   C     C_R   0.500000 1.000000 0.108083 0.785595
C87   C     C_R   1.000000 0.500000 0.891917 0.785595
C88   C     C_R   0.500000 1.000000 0.891917 0.785595
C89   C     C_1   0.500000 0.000000 0.668962 -0.140090
C90   C     C_1   0.000000 0.500000 0.668962 -0.140090
C91   C     C_1   0.500000 1.000000 0.331038 -0.140090
C92   C     C_1   1.000000 0.500000 0.331038 -0.140090
C93   C     C_1   1.000000 0.500000 0.168962 -0.140089
C94   C     C_1   0.500000 1.000000 0.168962 -0.140089
C95   C     C_1   1.000000 0.500000 0.831038 -0.140089
C96   C     C_1   0.500000 0.000000 0.831038 -0.140089
C97   C     C_1   0.500000 0.000000 0.720050 0.032220
C98   C     C_1   1.000000 0.500000 0.720050 0.032221
C99   C     C_1   0.500000 1.000000 0.279950 0.032220
C100  C     C_1   1.000000 0.500000 0.279950 0.032220
C101  C     C_1   1.000000 0.500000 0.220050 0.032221
C102  C     C_1   0.500000 1.000000 0.220050 0.032221
C103  C     C_1   0.000000 0.500000 0.779950 0.032221
C104  C     C_1   0.500000 0.000000 0.779950 0.032221
C105  C     C_R   0.842343 0.993322 0.449415 -0.238667
C106  C     C_R   0.006679 0.842343 0.449415 -0.238666
C107  C     C_R   0.157657 0.006687 0.449416 -0.238667
C108  C     C_R   0.993319 0.157657 0.449415 -0.238668
C109  C     C_R   0.842343 0.006678 0.550585 -0.238667
C110  C     C_R   0.006681 0.157657 0.550585 -0.238666
C111  C     C_R   0.157657 0.993313 0.550583 -0.238667
C112  C     C_R   0.993321 0.842343 0.550585 -0.238667
C113  C     C_R   0.342343 0.493323 0.949414 -0.238667
C114  C     C_R   0.506675 0.342343 0.949414 -0.238667
C115  C     C_R   0.657657 0.506681 0.949415 -0.238667
C116  C     C_R   0.493319 0.657657 0.949415 -0.238667
C117  C     C_R   0.342343 0.506677 0.050585 -0.238667
C118  C     C_R   0.506680 0.657657 0.050585 -0.238667
C119  C     C_R   0.657657 0.493319 0.050585 -0.238668
C120  C     C_R   0.493325 0.342343 0.050586 -0.238667
C121  C     C_R   0.865578 0.000000 0.500000 -0.079560
C122  C     C_R   1.000000 0.865578 0.500000 -0.079560
C123  C     C_R   0.134422 0.000000 0.500000 -0.079559
C124  C     C_R   1.000000 0.134422 0.500000 -0.079560
C125  C     C_R   0.365578 0.500000 1.000000 -0.079561
C126  C     C_R   0.500000 0.365578 1.000000 -0.079561
C127  C     C_R   0.634422 0.500000 0.000000 -0.079560
C128  C     C_R   0.500000 0.634422 0.000000 -0.079560
C129  C     C_R   0.796166 0.006869 0.550864 0.116037
C130  C     C_R   0.993130 0.796166 0.550864 0.116037
C131  C     C_R   0.203834 0.993122 0.550862 0.116038
C132  C     C_R   0.006872 0.203834 0.550864 0.116037
C133  C     C_R   0.796166 0.993131 0.449136 0.116037
C134  C     C_R   0.993128 0.203833 0.449136 0.116037
C135  C     C_R   0.203833 0.006878 0.449138 0.116038
C136  C     C_R   0.006870 0.796166 0.449136 0.116037
C137  C     C_R   0.296166 0.506868 0.050864 0.116037
C138  C     C_R   0.493134 0.296166 0.050865 0.116037
C139  C     C_R   0.703834 0.493128 0.050864 0.116037
C140  C     C_R   0.506872 0.703834 0.050864 0.116038
C141  C     C_R   0.296166 0.493132 0.949136 0.116037
C142  C     C_R   0.493128 0.703834 0.949136 0.116037
C143  C     C_R   0.703834 0.506872 0.949136 0.116037
C144  C     C_R   0.506866 0.296166 0.949135 0.116037
C145  C     C_R   0.772827 0.000000 0.500000 0.113103
C146  C     C_R   1.000000 0.772827 0.500000 0.113103
C147  C     C_R   0.227173 0.000000 0.500000 0.113102
C148  C     C_R   1.000000 0.227173 0.500000 0.113103
C149  C     C_R   0.272827 0.500000 1.000000 0.113103
C150  C     C_R   0.500000 0.272827 1.000000 0.113104
C151  C     C_R   0.727173 0.500000 0.000000 0.113103
C152  C     C_R   0.500000 0.727173 0.000000 0.113103
C153  C     C_R   0.773016 0.013852 0.601208 -0.246726
C154  C     C_R   0.986145 0.773016 0.601207 -0.246726
C155  C     C_R   0.226984 0.986130 0.601203 -0.246726
C156  C     C_R   0.013859 0.226984 0.601206 -0.246726
C157  C     C_R   0.773016 0.986148 0.398792 -0.246726
C158  C     C_R   0.986141 0.226984 0.398794 -0.246726
C159  C     C_R   0.226984 0.013870 0.398796 -0.246725
C160  C     C_R   0.013854 0.773016 0.398793 -0.246726
C161  C     C_R   0.273016 0.513851 0.101208 -0.246726
C162  C     C_R   0.486154 0.273016 0.101209 -0.246727
C163  C     C_R   0.726984 0.486142 0.101206 -0.246726
C164  C     C_R   0.513858 0.726984 0.101206 -0.246726
C165  C     C_R   0.273016 0.486149 0.898792 -0.246727
C166  C     C_R   0.486142 0.726984 0.898794 -0.246726
C167  C     C_R   0.726984 0.513858 0.898794 -0.246726
C168  C     C_R   0.513846 0.273016 0.898791 -0.246727
Cu1   Cu    Cu3+1 0.500000 0.044510 0.500000 0.997279
Cu2   Cu    Cu3+1 0.955490 0.500000 0.500000 0.997278
Cu3   Cu    Cu3+1 0.500000 0.955490 0.500000 0.997279
Cu4   Cu    Cu3+1 0.044510 0.500000 0.500000 0.997278
Cu5   Cu    Cu3+1 0.000000 0.544510 0.000000 0.997278
Cu6   Cu    Cu3+1 0.455490 0.000000 0.000000 0.997278
Cu7   Cu    Cu3+1 0.000000 0.455490 0.000000 0.997278
Cu8   Cu    Cu3+1 0.544510 0.000000 0.000000 0.997278
Cu9   Cu    Cu3+1 0.000000 0.000000 0.555810 0.949280
Cu10  Cu    Cu3+1 0.000000 1.000000 0.444190 0.949281
Cu11  Cu    Cu3+1 0.500000 0.500000 0.055810 0.949280
Cu12  Cu    Cu3+1 0.500000 0.500000 0.944190 0.949280
H1    H     H_    0.860158 0.987988 0.410243 0.160381
H2    H     H_    0.012014 0.860158 0.410243 0.160381
H3    H     H_    0.139842 0.012028 0.410246 0.160379
H4    H     H_    0.987982 0.139842 0.410244 0.160380
H5    H     H_    0.860158 0.012012 0.589757 0.160381
H6    H     H_    0.012018 0.139842 0.589756 0.160380
H7    H     H_    0.139842 0.987972 0.589754 0.160379
H8    H     H_    0.987986 0.860158 0.589756 0.160381
H9    H     H_    0.360158 0.487989 0.910242 0.160381
H10   H     H_    0.512007 0.360158 0.910241 0.160382
H11   H     H_    0.639842 0.512017 0.910244 0.160380
H12   H     H_    0.487983 0.639842 0.910244 0.160380
H13   H     H_    0.360158 0.512011 0.089757 0.160381
H14   H     H_    0.512017 0.639842 0.089756 0.160380
H15   H     H_    0.639842 0.487983 0.089756 0.160380
H16   H     H_    0.487993 0.360158 0.089758 0.160382
H17   H     H_    0.790538 0.019198 0.640567 0.151865
H18   H     H_    0.980799 0.790539 0.640566 0.151865
H19   H     H_    0.209461 0.980777 0.640561 0.151865
H20   H     H_    0.019207 0.209462 0.640565 0.151865
H21   H     H_    0.790538 0.980802 0.359433 0.151865
H22   H     H_    0.980793 0.209461 0.359435 0.151865
H23   H     H_    0.209461 0.019223 0.359439 0.151865
H24   H     H_    0.019201 0.790538 0.359434 0.151865
H25   H     H_    0.290538 0.519195 0.140567 0.151865
H26   H     H_    0.480811 0.290538 0.140569 0.151865
H27   H     H_    0.709462 0.480795 0.140565 0.151865
H28   H     H_    0.519205 0.709462 0.140565 0.151865
H29   H     H_    0.290538 0.480805 0.859433 0.151865
H30   H     H_    0.480794 0.709461 0.859435 0.151865
H31   H     H_    0.709462 0.519205 0.859435 0.151865
H32   H     H_    0.519189 0.290538 0.859431 0.151865
H33   H     H_    0.710241 0.019589 0.641188 0.199917
H34   H     H_    0.980407 0.710242 0.641187 0.199917
H35   H     H_    0.289758 0.980385 0.641182 0.199917
H36   H     H_    0.019599 0.289759 0.641186 0.199917
H37   H     H_    0.710241 0.980411 0.358812 0.199917
H38   H     H_    0.980401 0.289758 0.358814 0.199917
H39   H     H_    0.289758 0.019615 0.358818 0.199917
H40   H     H_    0.019593 0.710241 0.358813 0.199917
H41   H     H_    0.210241 0.519587 0.141188 0.199917
H42   H     H_    0.480420 0.210242 0.141190 0.199917
H43   H     H_    0.789758 0.480403 0.141186 0.199917
H44   H     H_    0.519597 0.789759 0.141186 0.199917
H45   H     H_    0.210241 0.480413 0.858811 0.199917
H46   H     H_    0.480402 0.789758 0.858814 0.199917
H47   H     H_    0.789758 0.519597 0.858814 0.199917
H48   H     H_    0.519580 0.210241 0.858810 0.199917
O1    O     O_R   0.564850 0.037600 0.500050 -0.571476
O2    O     O_R   0.962400 0.564850 0.500050 -0.571475
O3    O     O_R   0.435150 0.962400 0.500050 -0.571474
O4    O     O_R   0.037600 0.435150 0.500050 -0.571475
O5    O     O_R   0.564850 0.962400 0.499950 -0.571476
O6    O     O_R   0.962400 0.435150 0.499950 -0.571475
O7    O     O_R   0.435150 0.037600 0.499950 -0.571474
O8    O     O_R   0.037600 0.564850 0.499950 -0.571476
O9    O     O_R   0.064850 0.537600 0.000050 -0.571476
O10   O     O_R   0.462400 0.064850 0.000050 -0.571476
O11   O     O_R   0.935150 0.462400 0.000050 -0.571475
O12   O     O_R   0.537600 0.935150 0.000050 -0.571475
O13   O     O_R   0.064850 0.462400 0.999950 -0.571476
O14   O     O_R   0.462400 0.935150 0.999950 -0.571475
O15   O     O_R   0.935150 0.537600 0.999950 -0.571475
O16   O     O_R   0.537600 0.064850 0.999950 -0.571476
O17   O     O_R   0.499980 0.037590 0.581430 -0.573141
O18   O     O_R   0.962410 0.499980 0.581430 -0.573141
O19   O     O_R   0.500020 0.962410 0.581430 -0.573141
O20   O     O_R   0.037590 0.500020 0.581430 -0.573141
O21   O     O_R   0.499980 0.962410 0.418570 -0.573141
O22   O     O_R   0.962410 0.500020 0.418570 -0.573141
O23   O     O_R   0.500020 0.037590 0.418570 -0.573140
O24   O     O_R   0.037590 0.499980 0.418570 -0.573141
O25   O     O_R   0.999980 0.537590 0.081430 -0.573141
O26   O     O_R   0.462410 0.999980 0.081430 -0.573141
O27   O     O_R   0.000020 0.462410 0.081430 -0.573141
O28   O     O_R   0.537590 0.000020 0.081430 -0.573141
O29   O     O_R   0.999980 0.462410 0.918570 -0.573141
O30   O     O_R   0.462410 0.000020 0.918570 -0.573141
O31   O     O_R   0.000020 0.537590 0.918570 -0.573141
O32   O     O_R   0.537590 0.999980 0.918570 -0.573141
O33   O     O_R   0.999990 0.935150 0.547130 -0.591160
O34   O     O_R   0.064850 0.999990 0.547130 -0.591159
O35   O     O_R   0.000010 0.064850 0.547130 -0.591158
O36   O     O_R   0.935150 0.000010 0.547130 -0.591159
O37   O     O_R   0.999990 0.064850 0.452870 -0.591160
O38   O     O_R   0.064850 0.000010 0.452870 -0.591158
O39   O     O_R   0.000010 0.935150 0.452870 -0.591158
O40   O     O_R   0.935150 0.999990 0.452870 -0.591159
O41   O     O_R   0.499990 0.435150 0.047130 -0.591160
O42   O     O_R   0.564850 0.499990 0.047130 -0.591160
O43   O     O_R   0.500010 0.564850 0.047130 -0.591159
O44   O     O_R   0.435150 0.500010 0.047130 -0.591159
O45   O     O_R   0.499990 0.564850 0.952870 -0.591159
O46   O     O_R   0.564850 0.500010 0.952870 -0.591158
O47   O     O_R   0.500010 0.435150 0.952870 -0.591159
O48   O     O_R   0.435150 0.499990 0.952870 -0.591160
O49   O     O_3   0.635380 0.013892 0.602611 -0.732572
H49   H     H_    0.603059 0.010346 0.598738 0.325236
O50   O     O_3   0.986105 0.635380 0.602611 -0.732572
H50   H     H_    0.989652 0.603059 0.598737 0.325236
O51   O     O_3   0.364620 0.986089 0.602607 -0.732570
H51   H     H_    0.396940 0.989640 0.598735 0.325238
O52   O     O_3   0.013899 0.364620 0.602610 -0.732572
H52   H     H_    0.010351 0.396941 0.598737 0.325237
O53   O     O_3   0.635380 0.986108 0.397388 -0.732571
H53   H     H_    0.603059 0.989653 0.401262 0.325236
O54   O     O_3   0.986101 0.364620 0.397390 -0.732571
H54   H     H_    0.989648 0.396940 0.401263 0.325237
O55   O     O_3   0.364620 0.013910 0.397393 -0.732570
H55   H     H_    0.396940 0.010359 0.401264 0.325238
O56   O     O_3   0.013895 0.635380 0.397389 -0.732572
H56   H     H_    0.010348 0.603059 0.401263 0.325237
O57   O     O_3   0.135380 0.513891 0.102612 -0.732572
H57   H     H_    0.103059 0.510346 0.098738 0.325236
O58   O     O_3   0.486114 0.135380 0.102613 -0.732572
H58   H     H_    0.489658 0.103059 0.098738 0.325235
O59   O     O_3   0.864620 0.486102 0.102610 -0.732571
H59   H     H_    0.896941 0.489649 0.098737 0.325237
O60   O     O_3   0.513898 0.864620 0.102610 -0.732572
H60   H     H_    0.510351 0.896941 0.098737 0.325237
O61   O     O_3   0.135380 0.486109 0.897388 -0.732572
H61   H     H_    0.103059 0.489654 0.901262 0.325236
O62   O     O_3   0.486102 0.864620 0.897390 -0.732571
H62   H     H_    0.489649 0.896941 0.901263 0.325237
O63   O     O_3   0.864620 0.513898 0.897390 -0.732571
H63   H     H_    0.896941 0.510350 0.901263 0.325237
O64   O     O_3   0.513886 0.135380 0.897387 -0.732573
H64   H     H_    0.510342 0.103059 0.901262 0.325236

loop_
_geom_bond_atom_site_label_1
_geom_bond_atom_site_label_2
_ccdc_geom_bond_type
C114  H10   S    
C130  C146  A    
C33   C45   A    
C81   O19   A    
O56   H56   S    
C35   C47   A    
C10   C154  A    
Cu4   O4    S    
Cu10  O37   S    
O61   H61   S    
C40   C46   A    
C6    O10   A    
C120  H16   S    
C14   C158  A    
C62   O62   S    
C4    O4    A    
C39   C47   A    
C26   C50   A    
C60   C72   A    
C22   C38   A    
C80   O48   A    
C61   O61   S    
Cu9   O33   S    
C3    O7    A    
C1    O5    A    
C5    O13   A    
C140  C152  A    
C129  C145  A    
C115  H11   S    
C8    O12   A    
C74   C123  S    
C116  H12   S    
C83   O21   A    
C161  H25   S    
Cu5   O25   S    
C108  C124  A    
C118  C140  A    
C78   C127  S    
Cu4   O8    S    
C75   O35   A    
C85   O27   A    
C135  C159  A    
C108  H4    S    
C87   O31   A    
C58   C70   A    
C109  H5    S    
C54   O54   S    
Cu11  O44   S    
C28   C44   A    
C79   O43   A    
Cu3   O19   S    
C80   O44   A    
Cu5   O15   S    
C53   O53   S    
O62   H62   S    
C11   C27   A    
C20   H44   S    
C138  C162  A    
Cu7   O29   S    
C23   C167  A    
C63   C71   A    
C21   H45   S    
C96   C104  T    
C133  C145  A    
C12   H36   S    
C37   C45   A    
C55   O55   S    
C105  C133  A    
C75   O37   A    
Cu11  O42   S    
C4    O6    A    
C83   C91   S    
Cu3   O21   S    
C82   O20   A    
Cu1   O23   S    
Cu9   O35   S    
C19   C35   A    
C166  H30   S    
C137  C161  A    
C56   O56   S    
C109  C121  A    
C56   C66   A    
C27   C51   A    
C119  H15   S    
C17   H41   S    
Cu9   Cu10  S    
C22   C166  A    
C94   C102  T    
C89   C97   T    
C34   C58   A    
Cu2   O18   S    
C136  C146  A    
C38   C62   A    
C16   C160  A    
C9    H33   S    
C77   O47   A    
C87   O29   A    
C30   C54   A    
O57   H57   S    
C31   C43   A    
Cu5   O31   S    
C154  H18   S    
Cu10  O40   S    
C54   C68   A    
C86   O28   A    
C144  C150  A    
C85   C93   S    
C87   C95   S    
C1    C65   S    
C131  C147  A    
C34   C46   A    
C53   C65   A    
C38   C48   A    
C11   C155  A    
C106  C136  A    
C76   O36   A    
C9    C153  A    
O49   H49   S    
Cu1   Cu3   S    
C6    O16   A    
C12   C156  A    
C118  H14   S    
C13   C157  A    
C73   O33   A    
C25   C49   A    
Cu5   Cu7   S    
Cu3   O3    S    
C82   O18   A    
C62   C72   A    
C75   C124  S    
C117  H13   S    
C164  H28   S    
C3    O3    A    
C4    C68   S    
C93   C101  T    
C51   C67   A    
Cu12  O45   S    
C142  C166  A    
C18   C34   A    
C49   O49   S    
C106  C122  A    
O55   H55   S    
C41   C145  A    
C130  C154  A    
C19   C163  A    
C143  C167  A    
C17   C161  A    
C31   C55   A    
C111  C131  A    
C134  C158  A    
C73   C122  S    
C135  C147  A    
C76   O40   A    
C109  C129  A    
C77   O41   A    
C157  H21   S    
C78   O46   A    
C15   H39   S    
C155  H19   S    
C26   C42   A    
Cu3   O5    S    
C2    O8    A    
C110  H6    S    
Cu1   O7    S    
C29   C41   A    
C14   H38   S    
C2    C66   S    
Cu6   O30   S    
Cu10  O38   S    
C15   C31   A    
C22   H46   S    
Cu11  O43   S    
C86   O26   A    
C141  C165  A    
Cu1   O17   S    
C139  C163  A    
C129  C153  A    
C58   O58   S    
Cu7   O11   S    
Cu2   O2    S    
C143  C151  A    
C100  C101  S    
C132  C156  A    
C113  C141  A    
C16   H40   S    
C133  C157  A    
C2    O2    A    
C136  C160  A    
O52   H52   S    
C84   C92   S    
C91   C99   T    
C117  C125  A    
C140  C164  A    
C11   H35   S    
C119  C127  A    
C88   C96   S    
C107  C123  A    
C9    C25   A    
C5    O9    A    
C12   C28   A    
C13   C29   A    
Cu12  O47   S    
C120  C126  A    
C98   C103  S    
C20   C164  A    
C21   C165  A    
Cu2   O22   S    
C35   C59   A    
C142  C152  A    
C5    C69   S    
C110  C124  A    
Cu6   O26   S    
O50   H50   S    
C110  C132  A    
C88   O30   A    
Cu8   O16   S    
C81   C89   S    
C79   O45   A    
C162  H26   S    
C30   C44   A    
C17   C33   A    
Cu11  O41   S    
C3    C67   S    
C8    C72   S    
C84   O22   A    
O64   H64   S    
C19   H43   S    
O58   H58   S    
C10   H34   S    
C60   O60   S    
C111  C123  A    
C114  C144  A    
Cu9   O34   S    
C108  C134  A    
O53   H53   S    
C23   H47   S    
O54   H54   S    
C74   O34   A    
Cu8   O12   S    
C47   C151  A    
C48   C152  A    
C16   C32   A    
C25   C41   A    
C42   C146  A    
C134  C148  A    
C37   C61   A    
C6    C70   S    
C107  C135  A    
Cu8   O32   S    
C160  H24   S    
Cu7   O27   S    
C113  H9    S    
C111  H7    S    
C82   C90   S    
C119  C139  A    
C131  C155  A    
C52   O52   S    
C18   C162  A    
C165  H29   S    
Cu2   Cu4   S    
C114  C126  A    
C163  H27   S    
Cu5   O9    S    
C78   O42   A    
C18   H42   S    
Cu6   Cu8   S    
C97   C104  S    
C88   O32   A    
Cu11  Cu12  S    
C20   C36   A    
C27   C43   A    
C99   C102  S    
C21   C37   A    
O63   H63   S    
C32   C42   A    
C13   H37   S    
C32   C56   A    
C77   C126  S    
C79   C128  S    
C84   O24   A    
C74   O38   A    
O59   H59   S    
C168  H32   S    
C63   O63   S    
O60   H60   S    
C141  C149  A    
C138  C150  A    
C15   C159  A    
Cu2   O6    S    
C49   C65   A    
C144  C168  A    
C76   C121  S    
C24   C168  A    
Cu9   O36   S    
Cu6   O10   S    
C7    C71   S    
C113  C125  A    
C80   C125  S    
Cu4   O20   S    
C115  C127  A    
C139  C151  A    
C64   O64   S    
C106  H2    S    
Cu12  O46   S    
C86   C94   S    
C24   C40   A    
C59   O59   S    
C95   C103  T    
C36   C48   A    
C64   C70   A    
C73   O39   A    
C52   C68   A    
C10   C26   A    
C137  C149  A    
C156  H20   S    
C118  C128  A    
C14   C30   A    
C115  C143  A    
C132  C148  A    
C81   O17   A    
C43   C147  A    
Cu6   O14   S    
Cu10  O39   S    
O51   H51   S    
C50   O50   S    
Cu4   O24   S    
C107  H3    S    
C112  C122  A    
Cu8   O28   S    
C159  H23   S    
C8    O14   A    
C105  C121  A    
C50   C66   A    
C46   C150  A    
C7    O11   A    
C158  H22   S    
C116  C142  A    
C92   C100  T    
C61   C69   A    
Cu7   O13   S    
C33   C57   A    
C83   O23   A    
C117  C137  A    
C36   C60   A    
C112  H8    S    
C55   C67   A    
C39   C63   A    
C85   O25   A    
C40   C64   A    
C105  H1    S    
C167  H31   S    
Cu12  O48   S    
C28   C52   A    
C29   C53   A    
C23   C39   A    
C44   C148  A    
Cu1   O1    S    
C45   C149  A    
C57   O57   S    
C1    O1    A    
C120  C138  A    
C116  C128  A    
C7    O15   A    
C112  C130  A    
C51   O51   S    
C57   C69   A    
C24   H48   S    
C90   C98   T    
C153  H17   S    
C59   C71   A    
