data_mof_unit_65736.cif
_audit_creation_date              2012-12-10T18:14:22-0500
_audit_creation_method            fapswitch 2.2
_symmetry_space_group_name_H-M    P1
_symmetry_Int_Tables_number       1
_space_group_crystal_system       triclinic
_cell_length_a                    42.268575
_cell_length_b                    29.204421
_cell_length_c                    30.602865
_cell_angle_alpha                 89.99601
_cell_angle_beta                  136.292472
_cell_angle_gamma                 90.002536
_cell_volume                      26103.1027057

loop_
_atom_site_label
_atom_site_type_symbol
_atom_type_description
_atom_site_fract_x
_atom_site_fract_y
_atom_site_fract_z
_atom_type_partial_charge
C1    C     C_R   0.586688 0.500000 0.587106 0.913086
C2    C     C_1   0.994253 0.000082 0.329522 0.068909
C3    C     C_3   0.523105 0.544630 0.245249 0.450792
C4    C     C_3   0.027283 0.959306 0.249477 0.449041
C5    C     C_3   0.015305 0.049143 0.237301 0.456987
C6    C     C_1   0.499491 0.500175 0.119976 -0.242226
C7    C     C_1   0.999526 0.000324 0.120008 -0.232785
C8    C     C_3   0.492363 0.500144 0.281434 -0.082578
C9    C     C_3   0.992737 0.000113 0.281794 -0.070151
C10   C     C_3   0.495878 0.500479 0.200631 0.015081
C11   C     C_3   0.996153 0.000855 0.200902 0.030978
C12   C     C_3   0.575127 0.546384 0.285303 -0.833454
C13   C     C_1   0.497031 0.500021 0.370287 -0.167802
C14   C     C_3   0.567741 0.442062 0.270573 -0.783727
C15   C     C_3   0.066106 0.060218 0.275901 -0.768290
C16   C     C_3   0.076600 0.955807 0.278776 -0.766972
C17   C     C_3   0.408664 0.531732 0.205026 -0.871581
C18   C     C_3   0.418908 0.449273 0.205164 -0.868484
C19   C     C_3   0.904940 0.016941 0.201304 -0.876638
C20   C     C_3   0.929062 0.937387 0.215249 -0.871419
C21   C     C_3   0.419690 0.549817 0.125442 -0.801346
C22   C     C_3   0.410546 0.467951 0.105609 -0.809058
C23   C     C_3   0.912551 0.036469 0.118283 -0.823436
C24   C     C_1   0.997156 0.000017 0.370410 -0.192374
C25   C     C_3   0.917478 0.954277 0.112528 -0.740048
C26   C     C_1   0.637271 0.499999 0.637617 -0.211284
C27   C     C_1   0.137271 1.000000 0.637616 -0.212454
C28   C     C_1   0.679409 0.500000 0.679705 0.011655
C29   C     C_1   0.179409 1.000000 0.679704 0.011354
C30   C     C_1   0.729145 0.500000 0.729390 0.012252
C31   C     C_1   0.229145 1.000000 0.729389 0.012174
C32   C     C_1   0.771282 0.500000 0.771488 0.010706
C33   C     C_R   0.086688 1.000000 0.587105 0.912535
C34   C     C_1   0.271282 1.000000 0.771487 0.010679
C35   C     C_1   0.821017 0.500000 0.821177 0.007783
C36   C     C_1   0.321017 1.000000 0.821176 0.007812
C37   C     C_R   0.500796 0.500003 0.418494 0.940873
C38   C     C_R   0.000755 0.000002 0.418457 0.946354
C39   C     C_1   0.863156 0.500000 0.863270 -0.211111
C40   C     C_1   0.363156 1.000000 0.863270 -0.211047
C41   C     C_1   0.500002 0.499996 0.636066 -0.219372
C42   C     C_1   0.000002 0.999996 0.636066 -0.219666
C43   C     C_1   0.500031 0.499996 0.677265 0.017556
C44   C     C_3   0.442092 0.503125 0.162044 0.357241
C45   C     C_1   0.000031 0.999996 0.677265 0.017583
C46   C     C_1   0.500066 0.499997 0.726304 0.004968
C47   C     C_1   0.000066 0.999997 0.726304 0.004978
C48   C     C_1   0.500093 0.499997 0.767501 0.004991
C49   C     C_1   0.000093 0.999997 0.767501 0.004994
C50   C     C_1   0.500116 0.499998 0.816527 0.017444
C51   C     C_1   0.000116 0.999998 0.816527 0.017408
C52   C     C_1   0.500116 0.499999 0.857696 -0.219141
C53   C     C_1   0.000116 0.999999 0.857696 -0.218907
C54   C     C_1   0.362677 0.500001 0.362923 -0.221469
C55   C     C_3   0.942659 0.994325 0.162600 0.338446
C56   C     C_1   0.862677 0.000000 0.362923 -0.222060
C57   C     C_1   0.320540 0.500001 0.320694 0.005136
C58   C     C_1   0.820540 0.000000 0.320693 0.005012
C59   C     C_1   0.270808 0.500001 0.270871 0.007932
C60   C     C_1   0.770808 0.000000 0.270871 0.007836
C61   C     C_R   0.413255 0.500000 0.413626 0.904976
C62   C     C_R   0.913255 0.000000 0.413627 0.906417
C63   C     C_1   0.228673 0.500001 0.228677 0.007728
C64   C     C_1   0.728673 1.000000 0.228677 0.007645
C65   C     C_1   0.178940 0.500000 0.178899 0.005872
C66   C     C_3   0.440553 0.496339 0.212891 0.268705
C67   C     C_1   0.678940 1.000000 0.178899 0.005851
C68   C     C_1   0.136803 0.500000 0.136754 -0.212375
C69   C     C_1   0.636803 1.000000 0.136754 -0.212345
C70   C     C_R   0.500030 0.586641 0.994586 0.907461
C71   C     C_R   0.500030 0.413359 0.994586 0.907078
C72   C     C_R   0.000030 0.086641 0.994587 0.906171
C73   C     C_R   0.000030 0.913359 0.994584 0.911550
C74   C     C_R   0.499952 0.499965 0.075871 0.954730
C75   C     C_R   0.999955 0.999936 0.075873 0.953358
C76   C     C_R   0.500061 0.500000 0.907530 0.892220
C77   C     C_3   0.942344 0.987469 0.214662 0.282094
C78   C     C_R   0.000061 1.000000 0.907530 0.891487
C79   C     C_R   0.000015 0.413728 0.999135 0.897111
C80   C     C_R   0.000015 0.586272 0.999132 0.896855
C81   C     C_R   0.500015 0.913728 0.999135 0.896876
C82   C     C_R   0.500015 0.086272 0.999132 0.896985
C83   C     C_R   0.913739 0.500000 0.913783 0.897318
C84   C     C_R   0.413739 0.000000 0.913783 0.897265
C85   C     C_R   0.086223 0.500000 0.086219 0.896966
C86   C     C_R   0.586223 1.000000 0.086219 0.896910
C87   C     C_1   0.500038 0.637228 0.995433 -0.220538
C88   C     C_1   0.498035 0.500333 0.156588 -0.053724
C89   C     C_1   0.500039 0.362772 0.995431 -0.220697
C90   C     C_1   0.000038 0.137228 0.995433 -0.220162
C91   C     C_1   0.000039 0.862772 0.995428 -0.217152
C92   C     C_R   0.499972 0.499999 0.586149 0.889420
C93   C     C_R   0.999972 0.999999 0.586149 0.890319
C94   C     C_1   0.500040 0.679367 0.996180 0.007111
C95   C     C_1   0.500041 0.320632 0.996177 0.006927
C96   C     C_1   0.000040 0.179367 0.996181 0.007568
C97   C     C_1   0.000041 0.820632 0.996173 0.008367
C98   C     C_1   0.500038 0.729107 0.997062 0.009600
C99   C     C_1   0.998180 0.000624 0.156733 0.011991
C100  C     C_1   0.500039 0.270893 0.997056 0.009680
C101  C     C_1   0.000038 0.229107 0.997062 0.010239
C102  C     C_1   0.000039 0.770893 0.997053 0.009767
C103  C     C_1   0.000035 0.271246 0.997768 0.009637
C104  C     C_1   0.000035 0.728753 0.997758 0.008833
C105  C     C_1   0.500035 0.771246 0.997767 0.008971
C106  C     C_1   0.500036 0.228754 0.997761 0.009231
C107  C     C_1   0.000029 0.320988 0.998500 0.007433
C108  C     C_1   0.000030 0.679011 0.998490 0.006604
C109  C     C_1   0.500029 0.820988 0.998500 0.006856
C110  C     C_1   0.493977 0.500083 0.329259 0.118291
C111  C     C_1   0.500030 0.179011 0.998492 0.007164
C112  C     C_1   0.000024 0.363133 0.998952 -0.211289
C113  C     C_1   0.000024 0.636867 0.998944 -0.211970
C114  C     C_1   0.500024 0.863133 0.998952 -0.211719
C115  C     C_1   0.500024 0.136867 0.998945 -0.211441
C116  C     C_3   0.514753 0.546246 0.287290 0.210440
C117  C     C_3   0.520593 0.457317 0.293718 0.233937
C118  C     C_3   0.006998 0.049404 0.279426 0.219760
C119  C     C_3   0.027799 0.962674 0.300991 0.160377
C120  C     C_3   0.519545 0.454181 0.241791 0.439579
H1    H     H_    0.503944 0.426163 0.290322 0.199202
H2    H     H_    0.575236 0.405382 0.284657 0.269303
H3    H     H_    0.091672 0.048014 0.325107 0.238965
H4    H     H_    0.074776 0.047911 0.251275 0.198009
H5    H     H_    0.071299 0.097942 0.280762 0.269025
H6    H     H_    0.075959 0.958415 0.241996 0.232880
H7    H     H_    0.101958 0.980058 0.316780 0.216088
H8    H     H_    0.091668 0.921821 0.301547 0.240345
H9    H     H_    0.560817 0.590489 0.352008 0.354864
H10   H     H_    0.581477 0.482930 0.367990 0.387226
H11   H     H_    0.033290 0.082837 0.355312 0.344406
H12   H     H_    0.490140 0.574267 0.269450 0.147161
H13   H     H_    0.083850 0.998138 0.368875 0.388226
H14   H     H_    0.492140 0.412319 0.171378 0.352438
H15   H     H_    0.511041 0.586061 0.183381 0.354558
H16   H     H_    0.022392 0.891768 0.246248 0.334367
H17   H     H_    0.995797 0.087430 0.167850 0.345840
H18   H     H_    0.405680 0.523638 0.237427 0.240919
H19   H     H_    0.420125 0.567675 0.214958 0.215517
H20   H     H_    0.373369 0.530254 0.156335 0.247810
H21   H     H_    0.433467 0.419168 0.202994 0.261244
H22   H     H_    0.422943 0.443333 0.244841 0.230179
H23   H     H_    0.016683 0.929347 0.303497 0.172061
H24   H     H_    0.381541 0.448614 0.161010 0.249153
H25   H     H_    0.910356 0.054288 0.205347 0.214043
H26   H     H_    0.870412 0.009656 0.153296 0.248571
H27   H     H_    0.903263 0.008332 0.234977 0.242882
H28   H     H_    0.892337 0.930381 0.171813 0.247833
H29   H     H_    0.948538 0.910283 0.217857 0.240903
H30   H     H_    0.934126 0.932141 0.255932 0.236068
H31   H     H_    0.430457 0.579584 0.155813 0.265008
H32   H     H_    0.426776 0.557365 0.097591 0.249614
H33   H     H_    0.381804 0.549211 0.091002 0.221240
H34   H     H_    0.978081 0.073188 0.256754 0.140592
H35   H     H_    0.411880 0.473464 0.071053 0.235497
H36   H     H_    0.417253 0.431428 0.117867 0.268020
H37   H     H_    0.374186 0.472530 0.079119 0.222340
H38   H     H_    0.917929 0.067633 0.143320 0.269888
H39   H     H_    0.918291 0.045142 0.089099 0.248502
H40   H     H_    0.875328 0.029339 0.084421 0.224379
H41   H     H_    0.880942 0.952486 0.086088 0.205819
H42   H     H_    0.917543 0.960104 0.076727 0.231437
H43   H     H_    0.930376 0.919392 0.130643 0.276615
H44   H     H_    0.597841 0.529795 0.331873 0.239503
H45   H     H_    0.581681 0.532589 0.258663 0.223142
H46   H     H_    0.587022 0.582554 0.296754 0.257616
H47   H     H_    0.568584 0.446317 0.235415 0.210586
H48   H     H_    0.597049 0.460426 0.313855 0.228161
O1    O     O_R   0.563110 0.535630 0.563620 -0.596042
O2    O     O_R   0.500010 0.063160 0.964010 -0.593015
O3    O     O_R   1.000000 0.436830 0.034310 -0.593314
O4    O     O_R   0.000000 0.563170 0.034310 -0.593712
O5    O     O_R   0.500000 0.936830 0.034310 -0.593524
O6    O     O_R   0.500000 0.063170 0.034310 -0.593378
O7    O     O_R   0.936840 0.500000 0.901700 -0.592275
O8    O     O_R   0.436840 0.000000 0.901700 -0.592255
O9    O     O_R   0.936840 0.500000 0.972000 -0.594039
O10   O     O_R   0.436840 1.000000 0.972000 -0.593990
O11   O     O_R   0.063130 0.500000 0.028000 -0.593453
O12   O     O_R   0.563110 0.464370 0.563620 -0.594570
O13   O     O_R   0.563130 1.000000 0.028000 -0.593479
O14   O     O_R   0.063120 0.500000 0.098300 -0.593456
O15   O     O_R   0.563120 0.000000 0.098300 -0.593388
O16   O     O_R   0.499970 0.535640 0.438200 -0.609323
O17   O     O_R   0.499970 0.464360 0.438200 -0.611341
O18   O     O_R   0.999970 0.035640 0.438200 -0.616109
O19   O     O_R   0.999970 0.964360 0.438200 -0.609813
O20   O     O_R   0.436830 0.535630 0.437320 -0.597259
O21   O     O_R   0.436830 0.464370 0.437320 -0.597001
O22   O     O_R   0.936830 0.035630 0.437320 -0.596613
O23   O     O_R   0.063110 0.035630 0.563620 -0.596349
O24   O     O_R   0.936830 0.964370 0.437320 -0.597376
O25   O     O_R   0.499970 0.535630 0.562740 -0.592629
O26   O     O_R   0.499970 0.464370 0.562740 -0.592236
O27   O     O_R   0.999970 0.035630 0.562740 -0.591932
O28   O     O_R   0.999970 0.964370 0.562740 -0.592342
O29   O     O_R   0.535670 0.563060 0.029670 -0.596492
O30   O     O_R   0.535670 0.436940 0.029670 -0.596543
O31   O     O_R   0.035670 0.063060 0.029670 -0.596897
O32   O     O_R   0.035670 0.936940 0.029670 -0.595971
O33   O     O_R   0.464380 0.563080 0.958370 -0.596575
O34   O     O_R   0.063110 0.964370 0.563620 -0.595192
O35   O     O_R   0.464380 0.436920 0.958370 -0.596760
O36   O     O_R   0.964380 0.063080 0.958370 -0.596629
O37   O     O_R   0.964380 0.936920 0.958370 -0.596636
O38   O     O_R   0.535670 0.500000 0.091080 -0.613245
O39   O     O_R   0.035670 0.000000 0.091080 -0.613023
O40   O     O_R   0.464370 0.500000 0.019780 -0.613361
O41   O     O_R   0.964370 0.000000 0.019780 -0.613568
O42   O     O_R   0.535670 0.500000 0.966540 -0.592698
O43   O     O_R   0.035670 0.000000 0.966540 -0.592996
O44   O     O_3   0.554622 0.557455 0.350832 -0.777964
O45   O     O_R   0.464380 0.500000 0.895240 -0.592517
O46   O     O_3   0.564820 0.454167 0.356244 -0.749907
O47   O     O_3   0.044933 0.067293 0.340288 -0.768389
O48   O     O_3   0.071978 0.967358 0.363236 -0.747905
O49   O     O_3   0.492188 0.416118 0.203707 -0.809599
O50   O     O_3   0.505020 0.585423 0.209307 -0.800891
O51   O     O_3   0.006288 0.917884 0.216104 -0.798814
O52   O     O_3   0.990278 0.086047 0.194340 -0.791059
O53   O     O_R   0.964380 1.000000 0.895240 -0.592794
O54   O     O_R   0.000010 0.436840 0.964010 -0.593013
O55   O     O_R   0.000010 0.563160 0.964010 -0.593055
O56   O     O_R   0.500010 0.936840 0.964010 -0.593061
Zn1   Zn    Zn3+2 0.499970 0.547590 0.500630 0.977648
Zn2   Zn    Zn3+2 0.499990 1.000000 0.953050 0.974146
Zn3   Zn    Zn3+2 0.999980 0.500000 0.046950 0.971636
Zn4   Zn    Zn3+2 0.499980 0.000000 0.046950 0.972031
Zn5   Zn    Zn3+2 0.499970 0.452410 0.500630 0.979691
Zn6   Zn    Zn3+2 0.999970 0.047590 0.500630 0.973285
Zn7   Zn    Zn3+2 0.999970 0.952410 0.500630 0.975920
Zn8   Zn    Zn3+2 0.547630 0.500000 0.040770 0.968815
Zn9   Zn    Zn3+2 0.047630 0.000000 0.040770 0.970560
Zn10  Zn    Zn3+2 0.452420 0.500000 0.945550 0.968151
Zn11  Zn    Zn3+2 0.952420 0.000000 0.945550 0.969792
Zn12  Zn    Zn3+2 0.999990 0.500000 0.953050 0.974034

loop_
_geom_bond_atom_site_label_1
_geom_bond_atom_site_label_2
_ccdc_geom_bond_type
O24   Zn7   S    
C63   C65   S    
C73   O37   A    
C8    C66   S    
C85   O14   A    
C14   H2    S    
C83   O7    A    
C27   C29   T    
C42   C93   S    
C119  H23   S    
C107  C112  T    
C40   C84   S    
C44   C66   S    
C116  H12   S    
C82   O2    A    
C47   C49   T    
H16   O51   S    
C74   O40   A    
C27   C33   S    
C71   O35   A    
O54   Zn12  S    
C17   C66   S    
C19   H25   S    
C98   C105  T    
C7    C99   T    
C20   C77   S    
C71   O30   A    
C3    O50   S    
C73   O32   A    
C82   C115  S    
C5    C11   S    
O36   Zn11  S    
C92   O26   A    
C3    C116  S    
O31   Zn9   S    
C12   H46   S    
C55   C77   S    
C1    O12   A    
O30   Zn8   S    
O14   Zn3   S    
C57   C59   S    
C5    O52   S    
O9    Zn3   S    
C94   C98   S    
C58   C60   S    
C38   O19   A    
C87   C94   T    
C33   O34   A    
C23   H38   S    
C6    C88   T    
C20   H29   S    
O25   Zn1   S    
C11   C99   S    
H9    O44   S    
C21   H32   S    
C79   O3    A    
C117  O46   S    
C19   C77   S    
C117  H1    S    
O6    Zn4   S    
C3    C12   S    
C75   O39   A    
C76   O45   A    
C22   C44   S    
C82   O6    A    
C25   H41   S    
C120  O49   S    
C49   C51   S    
C23   H39   S    
C81   C114  S    
C86   O13   A    
C24   C38   S    
C20   H28   S    
C4    C119  S    
C118  H34   S    
C17   H18   S    
C7    C75   S    
C13   C37   S    
C97   C102  S    
C72   O36   A    
C56   C62   S    
O19   Zn7   S    
C65   C68   T    
C70   O33   A    
C48   C50   S    
C119  O48   S    
C101  C103  T    
C96   C101  S    
O53   Zn11  S    
C61   O21   A    
C9    C118  S    
C41   C43   T    
O26   Zn5   S    
C93   O27   A    
O16   Zn1   S    
C70   C87   S    
C4    C16   S    
C16   H7    S    
C8    C117  S    
C6    C74   S    
C22   H35   S    
C45   C47   S    
C111  C115  T    
C46   C48   T    
O12   Zn5   S    
C19   H26   S    
C15   H4    S    
C83   O9    A    
H11   O47   S    
C64   C67   S    
C36   C40   T    
O32   Zn9   S    
C73   C91   S    
O35   Zn10  S    
C62   O22   A    
O20   Zn1   S    
C117  C120  S    
C33   O23   A    
C12   H45   S    
C95   C100  S    
C22   H36   S    
C1    O1    A    
C38   O18   A    
C37   O16   A    
C10   C44   S    
C61   O20   A    
C19   H27   S    
O43   Zn9   S    
O27   Zn6   S    
C37   O17   A    
C51   C53   T    
C42   C45   T    
C81   O5    A    
C108  C113  T    
C89   C95   T    
C35   C39   T    
O41   Zn11  S    
C13   C110  T    
O8    Zn2   S    
C8    C110  S    
C12   H44   S    
C21   C44   S    
C72   C90   S    
C50   C52   T    
C71   C89   S    
O28   Zn7   S    
C18   H22   S    
C25   H42   S    
C85   O11   A    
C4    O51   S    
C10   C88   S    
C23   H40   S    
C31   C34   T    
C17   H19   S    
C9    C77   S    
C91   C97   T    
C4    C11   S    
C84   O10   A    
C16   H8    S    
C118  O47   S    
C15   H3    S    
C109  C114  T    
C79   C112  S    
C54   C61   S    
O3    Zn3   S    
C92   O25   A    
C70   O29   A    
C14   C120  S    
O2    Zn2   S    
C2    C24   T    
C1    C26   S    
C9    C119  S    
O1    Zn1   S    
C93   O28   A    
C80   O4    A    
C14   H48   S    
C106  C111  S    
O40   Zn10  S    
C104  C108  S    
C11   C55   S    
O39   Zn9   S    
C79   O54   A    
C74   O38   A    
O29   Zn8   S    
C76   O42   A    
C81   O56   A    
C105  C109  S    
C75   O41   A    
C21   H33   S    
H13   O48   S    
C59   C63   T    
C18   H21   S    
C32   C35   S    
C25   C55   S    
O37   Zn11  S    
O11   Zn12  S    
C52   C76   S    
O5    Zn4   S    
O56   Zn2   S    
O15   Zn4   S    
C62   O24   A    
C90   C96   T    
O18   Zn6   S    
C22   H37   S    
C23   C55   S    
O13   Zn2   S    
C18   C66   S    
H14   O49   S    
O17   Zn5   S    
C26   C28   T    
C102  C104  T    
C5    C118  S    
C60   C64   T    
C18   H24   S    
C53   C78   S    
C39   C83   S    
C29   C31   S    
O38   Zn8   S    
C80   O55   A    
C30   C32   T    
H15   O50   S    
O33   Zn10  S    
C86   O15   A    
C16   H6    S    
O10   Zn4   S    
C25   H43   S    
O23   Zn6   S    
H17   O52   S    
C28   C30   S    
O4    Zn3   S    
C34   C36   S    
C20   H30   S    
H10   O46   S    
C17   H20   S    
C68   C85   S    
C21   H31   S    
O21   Zn5   S    
C43   C46   S    
C5    C15   S    
C10   C120  S    
O55   Zn12  S    
C8    C116  S    
C78   O53   A    
C100  C106  T    
C41   C92   S    
C80   C113  S    
C56   C58   T    
C116  O44   S    
O7    Zn12  S    
C15   H5    S    
C3    C10   S    
O42   Zn8   S    
C103  C107  S    
C67   C69   T    
C14   H47   S    
C84   O8    A    
C2    C9    S    
O22   Zn6   S    
C78   O43   A    
C69   C86   S    
O45   Zn10  S    
O34   Zn7   S    
C72   O31   A    
C54   C57   T    
