data_mof_unit_10448.cif
_audit_creation_date              2013-03-05T15:55:19-0500
_audit_creation_method            fapswitch 2.2
_symmetry_space_group_name_H-M    P1
_symmetry_Int_Tables_number       1
_space_group_crystal_system       triclinic
_cell_length_a                    27.345707
_cell_length_b                    10.704766
_cell_length_c                    9.939284
_cell_angle_alpha                 91.48848
_cell_angle_beta                  88.807095
_cell_angle_gamma                 93.762315
_cell_volume                      2901.73758949

loop_
_atom_site_label
_atom_site_type_symbol
_atom_site_description
_atom_site_fract_x
_atom_site_fract_y
_atom_site_fract_z
_atom_type_partial_charge
O1    O     O_R   0.500000 0.316780 0.614690 -0.623344
O2    O     O_R   0.500000 0.316750 0.385360 -0.648809
C1    C     C_R   0.505814 0.262145 0.499042 0.939052
O3    O     O_R   0.428760 0.500030 0.614650 -0.580554
O4    O     O_R   0.428750 0.500010 0.385320 -0.619029
C2    C     C_R   0.406031 0.505090 0.501583 0.980968
Zn1   Zn    Zn3+2 0.500000 0.500020 0.653130 1.023162
Zn2   Zn    Zn3+2 0.500000 0.499980 0.346870 0.974578
O5    O     O_R   0.500000 0.683250 0.614640 -0.593493
O6    O     O_R   0.500000 0.683220 0.385310 -0.623260
O7    O     O_R   0.571250 0.499990 0.614680 -0.597977
O8    O     O_R   0.571240 0.499970 0.385350 -0.624173
C3    C     C_R   0.497151 0.740026 0.502307 0.876511
C4    C     C_R   0.594266 0.500617 0.498746 0.871827
C5    C     C_R   0.184876 0.582307 0.644266 0.529301
O9    O     O_2   0.208841 0.513204 0.730087 -0.510352
N1    N     N_R   0.210353 0.648204 0.546596 -0.351123
C6    C     C_R   0.187538 0.722078 0.460679 0.533848
C7    C     C_R   0.295224 0.666603 0.619929 -0.040673
C8    C     C_R   0.342140 0.624644 0.611550 -0.188127
C9    C     C_R   0.320665 0.500828 0.409546 0.288026
C10   C     C_R   0.273756 0.545472 0.417943 -0.152440
C11   C     C_R   0.260774 0.625695 0.524354 0.232611
C12   C     C_R   0.109104 0.650986 0.559107 -0.049834
C13   C     C_R   0.133809 0.581891 0.651926 -0.032344
C14   C     C_R   0.107069 0.509942 0.746596 -0.118228
C15   C     C_R   0.136362 0.725646 0.465972 -0.036179
C16   C     C_R   0.355147 0.540147 0.508164 -0.137648
H1    H     H_    0.246141 0.511162 0.347051 0.180354
H2    H     H_    0.125272 0.459576 0.822152 0.198245
C17   C     C_R   0.647923 0.506189 0.496596 -0.066260
C18   C     C_R   0.979810 0.532369 0.624881 0.044946
C19   C     C_R   0.980623 0.701746 0.460716 0.043531
C20   C     C_R   0.954818 0.606697 0.536041 0.073502
C21   C     C_R   0.953281 0.432205 0.689160 -0.213085
C22   C     C_R   0.903414 0.408828 0.670381 -0.131117
C23   C     C_R   0.878092 0.485204 0.588198 -0.021298
C24   C     C_R   0.903531 0.584827 0.521468 -0.052020
C25   C     C_R   0.877631 0.662157 0.439843 -0.024256
C26   C     C_R   0.826691 0.640811 0.429932 0.515484
N2    N     N_R   0.802764 0.543459 0.495965 -0.353813
C27   C     C_R   0.827554 0.464383 0.571595 0.506548
C28   C     C_R   0.723934 0.538277 0.616439 -0.090791
C29   C     C_R   0.673169 0.525339 0.617504 -0.166126
C30   C     C_R   0.674414 0.496622 0.374491 -0.202543
C31   C     C_R   0.725494 0.507349 0.373836 -0.080091
C32   C     C_R   0.750359 0.529269 0.494894 0.288285
O10   O     O_2   0.803190 0.366185 0.631184 -0.553601
C33   C     C_R   0.030716 0.556960 0.642592 0.043447
C34   C     C_R   0.057246 0.641660 0.556310 0.076307
C35   C     C_R   0.032576 0.713690 0.464356 0.042354
C36   C     C_R   0.056354 0.497723 0.742348 -0.213239
H3    H     H_    0.653774 0.532118 0.712920 0.219629
H4    H     H_    0.742879 0.555843 0.710354 0.162779
H5    H     H_    0.884733 0.330601 0.721378 0.193550
H6    H     H_    0.970397 0.366976 0.751017 0.147582
H7    H     H_    0.038120 0.441497 0.819173 0.147472
O11   O     O_2   0.214215 0.789249 0.368775 -0.508733
C37   C     C_R   0.111935 0.797110 0.376449 -0.118133
H8    H     H_    0.368392 0.658431 0.686451 0.179060
H9    H     H_    0.285101 0.727725 0.703013 0.171360
H10   H     H_    0.132099 0.855471 0.304025 0.198275
C38   C     C_R   0.953402 0.779840 0.382288 -0.211960
C39   C     C_R   0.902846 0.760482 0.372602 -0.128283
O12   O     O_2   0.801177 0.718021 0.357088 -0.548104
C40   C     C_R   0.061014 0.791984 0.375955 -0.208749
H11   H     H_    0.969993 0.858640 0.329015 0.146462
H12   H     H_    0.655757 0.481320 0.279845 0.178204
H13   H     H_    0.883617 0.822795 0.311229 0.193503
H14   H     H_    0.745724 0.499401 0.279513 0.159457
H15   H     H_    0.045100 0.846356 0.300495 0.146808
H16   H     H_    0.505762 0.107252 0.283803 0.165529
C41   C     C_R   0.538303 0.129840 0.740082 -0.146131
H17   H     H_    0.558874 0.219567 0.735722 0.155010
C42   C     C_R   0.532174 0.074295 0.865109 -0.148254
H18   H     H_    0.546423 0.122402 0.954573 0.140568
C43   C     C_R   0.505109 0.960312 0.875453 -0.088874
H19   H     H_    0.497364 0.920656 0.973323 0.151582
C44   C     C_R   0.488818 0.896100 0.759164 -0.064658
H20   H     H_    0.466545 0.810138 0.772769 0.156011
C45   C     C_R   0.500547 0.944571 0.630084 0.115237
C46   C     C_R   0.518255 0.069629 0.623117 0.099876
C47   C     C_R   0.513685 0.130628 0.499755 -0.132094
C48   C     C_R   0.506809 0.062223 0.379990 -0.137916
H21   H     H_    0.495447 0.883687 0.288152 0.177680
C49   C     C_R   0.499263 0.934728 0.383347 -0.135034
C50   C     C_R   0.495981 0.874574 0.507102 -0.130875
H22   H     H_    0.554370 0.644924 0.128994 0.178555
C51   C     C_R   0.445885 0.312396 0.142211 -0.164576
H23   H     H_    0.438289 0.321093 0.247012 0.261881
C52   C     C_R   0.429134 0.201545 0.076830 0.247611
C53   C     C_R   0.429457 0.198238 0.937381 -0.293563
H24   H     H_    0.410940 0.118878 0.885656 0.229250
C54   C     C_R   0.442042 0.306681 0.865700 0.320908
C55   C     C_R   0.470694 0.408695 0.928347 -0.024119
C56   C     C_R   0.472047 0.408717 0.072603 0.066130
N3    N     N_R   0.499540 0.498800 0.142780 -0.126823
C57   C     C_R   0.529680 0.580565 0.073277 -0.149084
C58   C     C_R   0.531893 0.577168 0.930625 0.319234
N4    N     N_R   0.499520 0.498720 0.857170 -0.175240
N5    N     N_R   0.331155 0.408019 0.308516 0.206136
O13   O     O_R   0.314020 0.415028 0.187976 -0.330424
O14   O     O_R   0.349164 0.304683 0.343904 -0.317373
N6    N     N_R   0.408400 0.096193 0.151050 0.235560
O15   O     O_R   0.404666 0.101899 0.281730 -0.320532
O16   O     O_R   0.394490 0.991817 0.088760 -0.377320
N7    N     N_R   0.408376 0.325196 0.762411 0.246098
O17   O     O_R   0.371330 0.391524 0.793628 -0.335824
O18   O     O_R   0.403268 0.242121 0.664782 -0.358945
N8    N     N_R   0.573584 0.642004 0.867973 0.202113
O19   O     O_R   0.568211 0.724910 0.777719 -0.369296
O20   O     O_R   0.616298 0.638724 0.922690 -0.435260

loop_
_geom_bond_atom_site_label_1
_geom_bond_atom_site_label_2
_geom_bond_distance
_ccdc_geom_bond_type
C43   H19   1.082771 S    
N5    O13   1.301247 A    
C10   H1    1.083486 S    
N7    O18   1.302488 A    
N2    C27   1.367741 A    
C55   C56   1.435041 A    
C12   C15   1.408116 A    
C52   N6    1.442014 S    
C42   H18   1.082594 S    
N6    O16   1.301726 A    
C45   C46   1.396346 A    
H21   C49   1.083708 S    
Zn1   O7    1.977704 S    
C25   C39   1.397163 A    
N1    C11   1.426950 S    
C47   C48   1.390874 A    
C22   C23   1.395606 A    
C48   C49   1.368024 A    
C37   C40   1.390039 A    
O4    C2    1.302130 A    
O7    C4    1.301396 A    
C5    C13   1.396678 A    
C5    O9    1.350531 S    
C57   C58   1.417505 A    
N1    C6    1.365967 A    
C41   H17   1.082173 S    
C23   C27   1.397850 A    
O5    C3    1.291183 A    
N8    O19   1.295340 A    
C29   H3    1.080042 S    
C6    O11   1.349497 S    
C2    C16   1.464503 S    
C7    C8    1.387040 A    
N7    O17   1.302505 A    
C51   C52   1.393277 A    
C4    C17   1.464309 S    
C19   C38   1.414316 A    
C9    N5    1.432215 S    
N5    O14   1.299543 A    
O1    Zn1   1.988639 S    
C9    C10   1.398120 A    
C41   C42   1.393748 A    
O3    Zn1   1.993105 S    
N6    O15   1.300911 A    
N3    C57   1.354871 A    
C43   C44   1.395308 A    
C12   C34   1.415853 A    
C38   H11   1.077367 S    
C54   N7    1.419388 S    
C17   C29   1.402136 A    
C18   C21   1.413632 A    
C12   C13   1.407691 A    
C55   N4    1.401092 A    
O3    C2    1.299552 A    
Zn1   N4    2.028183 S    
C52   C53   1.385417 A    
C44   C45   1.419059 A    
C49   C50   1.401666 A    
C8    C16   1.406880 A    
C34   C35   1.419688 A    
C13   C14   1.395842 A    
C30   C31   1.393916 A    
C58   N8    1.434674 S    
C44   H20   1.079582 S    
O1    C1    1.287727 A    
C21   C22   1.385779 A    
C18   C20   1.418736 A    
C7    C11   1.393967 A    
C28   C29   1.385885 A    
C23   C24   1.407597 A    
C14   C36   1.385841 A    
C28   H4    1.083187 S    
C40   H15   1.077129 S    
Zn2   O8    1.993102 S    
C33   C36   1.413035 A    
C56   N3    1.368719 A    
C3    C50   1.442286 S    
C30   H12   1.083077 S    
C53   C54   1.397835 A    
C19   C20   1.420233 A    
N2    C32   1.431358 S    
C27   O10   1.350429 S    
C39   H13   1.083540 S    
C42   C43   1.389953 A    
H16   C48   1.083538 S    
C26   N2    1.368599 A    
C9    C16   1.411397 A    
O8    C4    1.302070 A    
C33   C34   1.418461 A    
C26   O12   1.349787 S    
C1    C47   1.438331 S    
C8    H8    1.083772 S    
C41   C46   1.417312 A    
C25   C26   1.401821 A    
C5    N1    1.366844 A    
C31   C32   1.401289 A    
C37   H10   1.083589 S    
C21   H6    1.077872 S    
C20   C24   1.416450 A    
O2    Zn2   2.008123 S    
C6    C15   1.402341 A    
O6    C3    1.301466 A    
O4    Zn2   1.977707 S    
C14   H2    1.083618 S    
C19   C35   1.419176 A    
C58   N4    1.385442 A    
C51   C56   1.404745 A    
O2    C1    1.302947 A    
C22   H5    1.083626 S    
C15   C37   1.396535 A    
C45   C50   1.420449 A    
C24   C25   1.407435 A    
C7    H9    1.082986 S    
Zn2   N3    2.028515 S    
C53   H24   1.083565 S    
C54   C55   1.437648 A    
N8    O20   1.301596 A    
C18   C33   1.413445 A    
C31   H14   1.082876 S    
C36   H7    1.078236 S    
C38   C39   1.389398 A    
Zn1   O5    2.008125 S    
Zn2   O6    1.988639 S    
C46   C47   1.415647 A    
C17   C30   1.405294 A    
C10   C11   1.399753 A    
C51   H23   1.060826 S    
C28   C32   1.399162 A    
C35   C40   1.415458 A    
H22   C57   1.082525 S    
