data_mof_unit_5042.cif
_audit_creation_date              2012-12-10T20:38:25-0500
_audit_creation_method            fapswitch 2.2
_symmetry_space_group_name_H-M    P1
_symmetry_Int_Tables_number       1
_space_group_crystal_system       triclinic
_cell_length_a                    9.882372
_cell_length_b                    10.731687
_cell_length_c                    16.932084
_cell_angle_alpha                 90.606365
_cell_angle_beta                  87.253651
_cell_angle_gamma                 90.019361
_cell_volume                      1793.56112931

loop_
_atom_site_label
_atom_site_type_symbol
_atom_type_description
_atom_site_fract_x
_atom_site_fract_y
_atom_site_fract_z
_atom_type_partial_charge
C1    C     C_R   0.500347 0.739924 0.500154 0.882929
C2    C     C_R   0.521989 0.504968 0.261976 -0.027465
C3    C     C_R   0.391408 0.934913 0.468498 0.107930
C4    C     C_R   0.483655 0.505429 0.652656 0.869636
C5    C     C_R   0.503880 0.871579 0.493229 -0.092516
C6    C     C_R   0.624443 0.936269 0.504920 -0.210946
C7    C     C_R   0.623854 0.064685 0.503756 -0.225123
C8    C     C_R   0.503694 0.128207 0.488733 -0.113406
C9    C     C_R   0.391851 0.062101 0.463019 0.057486
C10   C     C_3   0.243286 0.069897 0.487086 -0.189084
C11   C     C_3   0.247222 0.929552 0.498055 -0.516537
C12   C     C_R   0.356676 0.561454 0.778074 -0.208714
C13   C     C_R   0.923268 0.530706 0.566998 0.201169
C14   C     C_R   0.932496 0.462718 0.435347 -0.158738
C15   C     C_R   0.076491 0.462178 0.434860 0.147705
C16   C     C_R   0.500282 0.260068 0.497772 0.875378
C17   C     C_R   0.065851 0.530029 0.567118 0.178658
C18   C     C_3   0.068364 0.651795 0.609865 -0.501206
C19   C     C_3   0.915317 0.653341 0.609220 -0.499404
C20   C     C_R   0.516462 0.499750 0.347413 0.860499
C21   C     C_R   0.479981 0.539442 0.736137 -0.047627
C22   C     C_R   0.602394 0.565809 0.771353 -0.259475
C23   C     C_R   0.411195 0.551066 0.142146 -0.168090
C24   C     C_R   0.603478 0.612614 0.848021 0.036712
C25   C     C_R   0.478724 0.626003 0.891461 0.142379
C26   C     C_R   0.356320 0.605073 0.855510 -0.183187
C27   C     C_R   0.150817 0.103998 0.421517 0.175454
C28   C     C_R   0.190963 0.089878 0.340744 -0.156935
C29   C     C_R   0.099813 0.114513 0.282230 -0.159084
C30   C     C_R   0.967578 0.151837 0.303304 -0.137838
C31   C     C_R   0.926239 0.164685 0.382944 -0.150090
C32   C     C_R   0.017157 0.141027 0.441835 -0.166514
C33   C     C_R   0.735411 0.641382 0.882889 0.112544
C34   C     C_R   0.405904 0.540198 0.223380 -0.210276
C35   C     C_R   0.841882 0.554279 0.877474 -0.189907
C36   C     C_R   0.963653 0.579184 0.913211 -0.146967
C37   C     C_R   0.980926 0.691553 0.953942 -0.116920
C38   C     C_R   0.876315 0.779241 0.958963 -0.132795
C39   C     C_R   0.753962 0.754432 0.923697 -0.123237
C40   C     C_R   0.642872 0.477997 0.218532 -0.210724
C41   C     C_R   0.647831 0.488272 0.136883 -0.172289
C42   C     C_R   0.532900 0.527331 0.099002 0.200144
C43   C     C_2   0.474574 0.628895 0.977299 -0.260116
C44   C     C_2   0.541044 0.539578 0.013959 -0.203553
H1    H     H_    0.697926 0.551183 0.738945 0.155067
H2    H     H_    0.311575 0.561489 0.255874 0.173842
H3    H     H_    0.116595 0.725656 0.573231 0.213597
H4    H     H_    0.866808 0.646980 0.669379 0.196948
H5    H     H_    0.875268 0.728638 0.572281 0.210188
H6    H     H_    0.733038 0.449500 0.247527 0.143574
H7    H     H_    0.604904 0.473409 0.980379 0.157192
H8    H     H_    0.261030 0.614629 0.889131 0.131832
H9    H     H_    0.320133 0.577126 0.113251 0.126547
H10   H     H_    0.261063 0.542944 0.751715 0.150212
H11   H     H_    0.407786 0.694295 0.009276 0.147240
H12   H     H_    0.741667 0.468227 0.103397 0.133146
H13   H     H_    0.292039 0.059016 0.322615 0.132252
H14   H     H_    0.131598 0.104012 0.220458 0.132846
H15   H     H_    0.897127 0.170921 0.257934 0.126501
H16   H     H_    0.823809 0.194040 0.398873 0.151667
H17   H     H_    0.983066 0.150810 0.503332 0.118346
H18   H     H_    0.205215 0.343773 0.377909 0.222999
H19   H     H_    0.088541 0.401582 0.319450 0.158495
H20   H     H_    0.829563 0.465865 0.847243 0.125104
H21   H     H_    0.044104 0.510705 0.909815 0.124821
H22   H     H_    0.075168 0.710574 0.981806 0.112492
H23   H     H_    0.716167 0.888941 0.520259 0.164311
H24   H     H_    0.889802 0.866269 0.990502 0.123369
H25   H     H_    0.673622 0.823112 0.928335 0.122301
H26   H     H_    0.714495 0.113406 0.520073 0.165089
H27   H     H_    0.223096 0.122696 0.543362 0.159501
H28   H     H_    0.237778 0.903674 0.561442 0.187245
H29   H     H_    0.183605 0.874276 0.458018 0.212705
H30   H     H_    0.881305 0.434522 0.383061 0.148750
H31   H     H_    0.106652 0.643441 0.670134 0.198431
N1    N     N_R   0.857140 0.500860 0.500530 -0.119254
N2    N     N_R   0.142780 0.500820 0.500530 -0.117645
N3    N     N_3   0.152678 0.424569 0.364719 -0.419215
O1    O     O_R   0.385310 0.683210 0.499990 -0.614037
O2    O     O_R   0.614650 0.683240 0.500000 -0.620201
O3    O     O_R   0.371780 0.500000 0.615800 -0.620503
O4    O     O_R   0.601120 0.500040 0.615800 -0.619822
O5    O     O_R   0.385350 0.316760 0.500000 -0.627675
O6    O     O_R   0.614690 0.316790 0.500010 -0.628684
O7    O     O_R   0.398880 0.499960 0.384200 -0.606865
O8    O     O_R   0.628220 0.500000 0.384200 -0.628283
Zn1   Zn    Zn3+2 0.346870 0.499980 0.499990 0.947403
Zn2   Zn    Zn3+2 0.653130 0.500020 0.500010 0.938313

loop_
_geom_bond_atom_site_label_1
_geom_bond_atom_site_label_2
_ccdc_geom_bond_type
C10   C27   S    
O5    Zn1   S    
C40   C41   A    
C18   H31   S    
C41   C42   A    
C35   C36   A    
C18   H3    S    
C25   C43   S    
C7    H26   S    
O1    Zn1   S    
C7    C8    A    
C28   H13   S    
C29   C30   A    
C23   C42   A    
C1    C5    S    
C5    C6    A    
C14   H30   S    
C36   C37   A    
C32   H17   S    
C30   C31   A    
C40   H6    S    
C15   N3    S    
C16   O6    A    
C18   C19   S    
C19   H4    S    
C4    O3    A    
C8    C9    A    
C20   O8    A    
C35   H20   S    
C34   H2    S    
C9    C10   S    
N1    Zn2   S    
C10   H27   S    
C2    C34   A    
C8    C16   S    
C21   C22   A    
C30   H15   S    
C42   C44   S    
C23   H9    S    
O7    Zn1   S    
C38   C39   A    
C13   C19   S    
C2    C20   S    
C24   C25   A    
C11   H29   S    
C36   H21   S    
C25   C26   A    
C12   C21   A    
C16   O5    A    
C12   C26   A    
C14   N1    A    
C31   H16   S    
C43   C44   D    
C41   H12   S    
C37   C38   A    
C3    C9    A    
C26   H8    S    
C19   H5    S    
C31   C32   A    
C13   N1    A    
C23   C34   A    
C20   O7    A    
C17   N2    A    
C17   C18   S    
C39   H25   S    
C33   C39   A    
O3    Zn1   S    
C44   H7    S    
C43   H11   S    
C6    H23   S    
C38   H24   S    
C1    O1    A    
C22   C24   A    
C28   C29   A    
C27   C32   A    
C11   H28   S    
H18   N3    S    
O6    Zn2   S    
C3    C5    A    
C6    C7    A    
C24   C33   S    
C13   C17   A    
O2    Zn2   S    
C4    C21   S    
C15   N2    A    
O4    Zn2   S    
C33   C35   A    
O8    Zn2   S    
C37   H22   S    
C3    C11   S    
C10   C11   S    
C2    C40   A    
C22   H1    S    
C4    O4    A    
C29   H14   S    
N2    Zn1   S    
C27   C28   A    
C1    O2    A    
C14   C15   A    
C12   H10   S    
H19   N3    S    
