data_mof_unit_63134.cif
_audit_creation_date              2013-03-05T16:50:56-0500
_audit_creation_method            fapswitch 2.2
_symmetry_space_group_name_H-M    P1
_symmetry_Int_Tables_number       1
_space_group_crystal_system       triclinic
_cell_length_a                    15.868295
_cell_length_b                    15.085296
_cell_length_c                    14.178532
_cell_angle_alpha                 90.005708
_cell_angle_beta                  89.979749
_cell_angle_gamma                 89.990657
_cell_volume                      3394.02732536

loop_
_atom_site_label
_atom_site_type_symbol
_atom_site_description
_atom_site_fract_x
_atom_site_fract_y
_atom_site_fract_z
_atom_type_partial_charge
O1    O     O_R   0.378020 0.573650 0.500030 -0.581920
O2    O     O_R   0.621980 0.426350 0.499970 -0.581920
O3    O     O_R   0.621980 0.573650 0.499970 -0.581980
O4    O     O_R   0.378020 0.426350 0.500030 -0.581980
C1    C     C_1   0.250716 0.500042 0.502831 -0.061524
C2    C     C_1   0.749284 0.499958 0.497169 -0.061524
C3    C     C_R   0.338916 0.500008 0.500262 0.885085
C4    C     C_R   0.661084 0.499991 0.499738 0.885085
O5    O     O_R   0.500000 0.573680 0.373720 -0.584720
O6    O     O_R   0.500000 0.426320 0.626280 -0.584720
O7    O     O_R   0.500000 0.573680 0.626280 -0.595724
O8    O     O_R   0.500000 0.426320 0.373720 -0.595724
C5    C     C_R   0.500002 0.499996 0.328661 0.885121
C6    C     C_R   0.499998 0.500004 0.671339 0.885120
Zn1   Zn    Zn3+2 0.500000 0.598370 0.500000 1.075122
Zn2   Zn    Zn3+2 0.500000 0.401630 0.500000 1.075122
N1    N     N_1   0.500000 0.270550 0.500000 -0.057960
N2    N     N_1   0.500000 0.729450 0.500000 -0.057960
C7    C     C_1   0.500077 0.807020 0.498877 0.332273
C8    C     C_1   0.499923 0.192980 0.501123 0.332272
C9    C     C_1   0.500004 0.499990 0.227352 -0.140933
C10   C     C_1   0.499996 0.500009 0.772648 -0.140934
C11   C     C_1   0.500004 0.499992 0.142252 0.041737
C12   C     C_1   0.499996 0.500008 0.857748 0.041737
C13   C     C_1   0.500001 0.499997 0.042547 0.060486
C14   C     C_1   0.499999 0.500003 0.957453 0.060486
C15   C     C_R   0.423436 0.952796 0.492098 0.199096
C16   C     C_R   0.576564 0.047204 0.507900 0.199097
C17   C     C_R   0.576755 0.952769 0.505016 0.197450
C18   C     C_R   0.423246 0.047231 0.494982 0.197451
C19   C     C_R   0.956044 0.581364 0.493722 0.189067
C20   C     C_R   0.043956 0.418636 0.506277 0.189067
C21   C     C_R   0.043963 0.581549 0.501436 0.190529
C22   C     C_R   0.956037 0.418451 0.498564 0.190528
C23   C     C_R   0.913109 0.499819 0.492456 -0.189031
C24   C     C_R   0.086891 0.500180 0.507544 -0.189031
C25   C     C_1   0.823995 0.499895 0.494623 0.168705
C26   C     C_1   0.176005 0.500105 0.505376 0.168705
C27   C     C_R   0.500206 0.905066 0.496915 -0.263174
C28   C     C_R   0.499794 0.094934 0.503084 -0.263174
N3    N     N_R   0.344997 0.094599 0.485991 0.248105
O9    O     O_R   0.326248 0.158280 0.544257 -0.302662
O10   O     O_R   0.292537 0.074869 0.418661 -0.248372
N4    N     N_R   0.655004 0.905401 0.514006 0.248104
O11   O     O_R   0.673751 0.841719 0.455741 -0.302663
O12   O     O_R   0.707466 0.925133 0.581333 -0.248370
N5    N     N_R   0.655142 0.094540 0.512143 0.250499
O13   O     O_R   0.665794 0.158306 0.572795 -0.315061
O14   O     O_R   0.716117 0.074696 0.454485 -0.235542
N6    N     N_R   0.344858 0.905460 0.487853 0.250498
O15   O     O_R   0.334207 0.841693 0.427202 -0.315063
O16   O     O_R   0.283881 0.925305 0.545509 -0.235540
N7    N     N_R   0.089741 0.663888 0.498964 0.255601
O17   O     O_R   0.147531 0.680672 0.561566 -0.300479
O18   O     O_R   0.074014 0.722259 0.433729 -0.239297
N8    N     N_R   0.910259 0.336112 0.501036 0.255601
O19   O     O_R   0.852468 0.319328 0.438433 -0.300478
O20   O     O_R   0.925986 0.277741 0.566271 -0.239297
N9    N     N_R   0.910271 0.663722 0.491294 0.254498
O21   O     O_R   0.852484 0.677198 0.427789 -0.295516
O22   O     O_R   0.925997 0.725434 0.552960 -0.239477
N10   N     N_R   0.089729 0.336278 0.508706 0.254498
O23   O     O_R   0.147516 0.322802 0.572211 -0.295516
O24   O     O_R   0.074003 0.274566 0.447040 -0.239477

loop_
_geom_bond_atom_site_label_1
_geom_bond_atom_site_label_2
_geom_bond_distance
_ccdc_geom_bond_type
O4    Zn2   1.971149 S    
Zn1   N2    1.977382 S    
N6    O16   1.301317 A    
C19   C21   1.399451 A    
C16   N5    1.438264 S    
C22   N8    1.439457 S    
N10   O23   1.301331 A    
O1    Zn1   1.971269 S    
N8    O20   1.301302 A    
O2    Zn2   1.971267 S    
N3    O9    1.301305 A    
N5    O13   1.301305 A    
C15   N6    1.438265 S    
C17   C27   1.416642 A    
C24   C26   1.414415 S    
N6    O15   1.301306 A    
O5    Zn1   1.828759 S    
C2    C25   1.186071 T    
C5    C9    1.436414 S    
N9    O21   1.301331 A    
N5    O14   1.301317 A    
O6    Zn2   1.828756 S    
N7    O17   1.301352 A    
N8    O19   1.301353 A    
C15   C18   1.425171 A    
N3    O10   1.301337 A    
C6    C10   1.436414 S    
C7    C27   1.479316 S    
C11   C13   1.413676 S    
O4    C3    1.272599 A    
C2    C4    1.400033 S    
C20   C24   1.406402 A    
C16   C17   1.425173 A    
C23   C25   1.414415 S    
C12   C14   1.413676 S    
O3    C4    1.272599 A    
C10   C12   1.206582 T    
N7    O18   1.301302 A    
C17   N4    1.438213 S    
C21   N7    1.439457 S    
C8    C28   1.479316 S    
O7    C6    1.282020 A    
C19   C23   1.406402 A    
N9    O22   1.301338 A    
C18   N3    1.438214 S    
C16   C28   1.416655 A    
C9    C11   1.206582 T    
C20   N10   1.439455 S    
C18   C28   1.416642 A    
C21   C24   1.406414 A    
O3    Zn1   1.971148 S    
O8    C5    1.282020 A    
C22   C23   1.406414 A    
O6    C6    1.282008 A    
C19   N9    1.439455 S    
C1    C3    1.400033 S    
O5    C5    1.282007 A    
N2    C7    1.170279 T    
N10   O24   1.301338 A    
N4    O12   1.301336 A    
O1    C3    1.272551 A    
C13   C14   1.206509 T    
C1    C26   1.186071 T    
O7    Zn1   1.828829 S    
N1    C8    1.170279 T    
O2    C4    1.272551 A    
N4    O11   1.301306 A    
O8    Zn2   1.828832 S    
C15   C27   1.416656 A    
Zn2   N1    1.977382 S    
C20   C22   1.399451 A    
