data_mof_unit_16460.cif
_audit_creation_date              2012-12-10T19:10:03-0500
_audit_creation_method            fapswitch 2.2
_symmetry_space_group_name_H-M    P1
_symmetry_Int_Tables_number       1
_space_group_crystal_system       triclinic
_cell_length_a                    10.886558
_cell_length_b                    10.78919
_cell_length_c                    9.57742
_cell_angle_alpha                 90.361971
_cell_angle_beta                  91.143944
_cell_angle_gamma                 90.121153
_cell_volume                      1124.68691232

loop_
_atom_site_label
_atom_site_type_symbol
_atom_type_description
_atom_site_fract_x
_atom_site_fract_y
_atom_site_fract_z
_atom_type_partial_charge
C1    C     C_R   0.499716 0.262609 0.499705 0.815631
C2    C     C_R   0.225539 0.323929 0.000979 -0.336406
C3    C     C_R   0.932793 0.439897 0.388761 0.442774
C4    C     C_R   0.872456 0.489402 0.505772 -0.206673
C5    C     C_R   0.942897 0.532906 0.622099 0.006025
C6    C     C_R   0.069530 0.537598 0.613609 -0.213497
C7    C     C_R   0.128993 0.496456 0.494733 -0.154086
C8    C     C_R   0.060413 0.449071 0.379633 -0.092151
C9    C     C_R   0.900202 0.680658 0.819481 0.550844
C10   C     C_R   0.864012 0.698105 0.959675 -0.152961
C11   C     C_R   0.824081 0.597822 0.038470 -0.066129
C12   C     C_R   0.262556 0.498909 0.498186 0.837262
C13   C     C_R   0.820163 0.479349 0.979911 -0.083223
C14   C     C_R   0.854861 0.460409 0.842669 -0.216905
C15   C     C_R   0.892363 0.560384 0.760964 0.085899
C16   C     C_R   0.445848 0.064881 0.607185 -0.006170
C17   C     C_R   0.503150 0.129330 0.500554 0.001460
C18   C     C_R   0.566762 0.063837 0.397947 -0.201681
C19   C     C_R   0.567615 0.934784 0.399264 -0.172598
C20   C     C_R   0.502122 0.870735 0.501005 0.003828
C21   C     C_R   0.443423 0.936744 0.606021 -0.051629
C22   C     C_3   0.310527 0.933319 0.645361 0.181830
C23   C     C_R   0.499085 0.737409 0.500206 0.795039
C24   C     C_3   0.315340 0.074097 0.652072 0.268409
C25   C     C_R   0.455023 0.598189 0.073357 0.219961
C26   C     C_R   0.535431 0.397940 0.074331 -0.059354
C27   C     C_R   0.535647 0.397984 0.925856 -0.086704
C28   C     C_R   0.454310 0.598007 0.926348 0.225360
C29   C     C_3   0.495665 0.730034 0.923784 0.167420
C30   C     C_3   0.498535 0.729048 0.082016 -0.523493
C31   C     C_R   0.737919 0.497119 0.501871 0.820223
C32   C     C_R   0.184719 0.446060 0.011123 -0.189962
C33   C     C_R   0.132564 0.490532 0.133865 0.474821
C34   C     C_R   0.118587 0.408652 0.248075 0.001206
C35   C     C_R   0.160612 0.286145 0.236970 -0.148406
C36   C     C_R   0.214664 0.243206 0.114723 0.466591
Cu1   Cu    Cu3+1 0.499990 0.499980 0.640670 0.972468
Cu2   Cu    Cu3+1 0.500010 0.500020 0.359330 0.974273
H1    H     H_    0.266892 0.293107 0.905073 0.154970
H2    H     H_    0.796157 0.612127 0.145157 0.164607
H3    H     H_    0.789682 0.401323 0.039989 0.179609
H4    H     H_    0.853379 0.367202 0.799829 0.135074
H5    H     H_    0.613638 0.112027 0.315824 0.129183
H6    H     H_    0.617293 0.885328 0.319655 0.135296
H7    H     H_    0.291230 0.891025 0.747908 0.023443
H8    H     H_    0.307324 0.113877 0.758858 0.003343
H9    H     H_    0.567010 0.316465 0.129264 0.141174
H10   H     H_    0.195754 0.507584 0.923601 0.153253
H11   H     H_    0.567628 0.316575 0.871432 0.130318
H12   H     H_    0.425965 0.793030 0.878116 0.081563
H13   H     H_    0.592495 0.737219 0.128786 0.209156
H14   H     H_    0.428870 0.791462 0.128157 0.197732
H15   H     H_    0.151298 0.223597 0.323851 0.197809
H16   H     H_    0.122422 0.572687 0.702479 0.157163
H17   H     H_    0.863713 0.788803 0.008184 0.123012
N1    N     N_R   0.500790 0.500930 0.147930 -0.179599
N2    N     N_R   0.500790 0.500890 0.852020 -0.156848
O1    O     O_R   0.500000 0.319640 0.618810 -0.608062
O2    O     O_R   0.500010 0.319680 0.381230 -0.583431
O3    O     O_R   0.319640 0.499990 0.618790 -0.603220
O4    O     O_R   0.319650 0.500030 0.381210 -0.568701
O5    O     O_R   0.499990 0.680320 0.618770 -0.551969
O6    O     O_R   0.500000 0.680360 0.381190 -0.590972
O7    O     O_R   0.680350 0.499970 0.618790 -0.562607
O8    O     O_R   0.680360 0.500010 0.381210 -0.548969
O9    O     O_3   0.234677 0.888601 0.535873 -0.650300
H18   H     H_    0.231253 0.797329 0.547376 0.315097
O10   O     O_3   0.240076 0.131666 0.551425 -0.684197
H19   H     H_    0.157483 0.137106 0.592940 0.317028
O11   O     O_3   0.612591 0.743031 0.867728 -0.678633
H20   H     H_    0.629588 0.833403 0.866948 0.316425
O12   O     O_3   0.099456 0.614017 0.137795 -0.755879
H21   H     H_    0.066566 0.635312 0.230354 0.331660
O13   O     O_3   0.255736 0.122462 0.109835 -0.713354
H22   H     H_    0.292873 0.107094 0.017660 0.299032
O14   O     O_3   0.867384 0.383199 0.280903 -0.589942
C37   C     C_3   0.843161 0.259398 0.318225 -0.331657
H23   H     H_    0.779740 0.254775 0.407587 0.146164
H24   H     H_    0.928908 0.207766 0.343720 0.168223
H25   H     H_    0.798091 0.212066 0.227709 0.169244
O15   O     O_3   0.935435 0.777387 0.733025 -0.583182
C38   C     C_3   0.001124 0.871039 0.806182 -0.335485
H26   H     H_    0.072340 0.832070 0.878517 0.172191
H27   H     H_    0.937312 0.933227 0.862238 0.161131
H28   H     H_    0.049134 0.929047 0.729209 0.214810

loop_
_geom_bond_atom_site_label_1
_geom_bond_atom_site_label_2
_ccdc_geom_bond_type
C30   H13   S    
C16   C21   A    
C35   H15   S    
C19   C20   A    
C25   N1    A    
C13   H3    S    
Cu1   O5    S    
C7    C8    A    
C37   H23   S    
C25   C28   A    
C26   C27   A    
Cu1   Cu2   S    
C21   C22   S    
C28   C29   S    
C34   C35   A    
C1    O2    A    
C5    C6    A    
C2    C32   A    
C18   C19   A    
C22   O9    S    
C33   O12   S    
Cu2   O6    S    
C2    H1    S    
C23   O5    A    
C35   C36   A    
C16   C17   A    
Cu2   O8    S    
O11   H20   S    
C9    C10   A    
Cu1   O1    S    
C14   H4    S    
Cu2   O4    S    
C23   O6    A    
O9    H18   S    
C16   C24   S    
C13   C14   A    
C32   H10   S    
C6    H16   S    
C33   C34   A    
C29   H12   S    
C37   H24   S    
C7    C12   S    
O13   H22   S    
C4    C31   S    
O14   C37   S    
C3    C8    A    
C27   N2    A    
O12   H21   S    
C28   N2    A    
O15   C38   S    
C29   C30   S    
C3    O14   S    
C20   C23   S    
C17   C18   A    
C8    C34   S    
C10   H17   S    
C36   O13   S    
C26   H9    S    
C38   H27   S    
C22   C24   S    
C3    C4    A    
Cu1   O7    S    
C19   H6    S    
C29   O11   S    
C37   H25   S    
C2    C36   A    
C25   C30   S    
C31   O8    A    
C30   H14   S    
C31   O7    A    
O10   H19   S    
C4    C5    A    
C26   N1    A    
C6    C7    A    
C38   H28   S    
C1    C17   S    
C24   H8    S    
C32   C33   A    
C9    C15   A    
C1    O1    A    
C12   O4    A    
C11   C13   A    
C11   H2    S    
C5    C15   S    
Cu1   O3    S    
C10   C11   A    
C24   O10   S    
Cu2   O2    S    
C12   O3    A    
C22   H7    S    
Cu2   N1    S    
C20   C21   A    
C38   H26   S    
C14   C15   A    
C18   H5    S    
Cu1   N2    S    
C27   H11   S    
C9    O15   S    
