data_mof_unit_23707.cif
_audit_creation_date              2012-12-10T16:44:14-0500
_audit_creation_method            fapswitch 2.2
_symmetry_space_group_name_H-M    P1
_symmetry_Int_Tables_number       1
_space_group_crystal_system       triclinic
_cell_length_a                    7.521084
_cell_length_b                    8.702654
_cell_length_c                    13.401344
_cell_angle_alpha                 95.971981
_cell_angle_beta                  77.583397
_cell_angle_gamma                 103.626536
_cell_volume                      831.215671832

loop_
_atom_site_label
_atom_site_type_symbol
_atom_type_description
_atom_site_fract_x
_atom_site_fract_y
_atom_site_fract_z
_atom_type_partial_charge
C1    C     C_R   0.545595 0.800143 0.503165 0.880011
C2    C     C_R   0.418780 0.512858 0.976274 0.080727
C3    C     C_R   0.467980 0.556600 0.873207 0.087506
C4    C     C_R   0.558390 0.548840 0.037261 0.071341
C5    C     C_R   0.737329 0.642421 0.998519 0.161159
C6    C     C_R   0.775135 0.700332 0.901420 -0.245895
C7    C     C_R   0.642097 0.659821 0.840157 -0.207246
C8    C     C_R   0.526167 0.493388 0.135505 -0.253840
C9    C     C_R   0.836699 0.629374 0.157553 -0.210167
C10   C     C_R   0.340267 0.497528 0.806572 -0.110449
C11   C     C_2   0.570273 0.968656 0.504863 -0.370547
C12   C     C_R   0.400714 0.498501 0.694295 0.779567
C13   C     C_2   0.429879 0.031321 0.494488 -0.372477
C14   C     C_R   0.454512 0.199861 0.496578 0.871426
C15   C     C_R   0.600632 0.511502 0.306359 0.776487
C16   C     C_R   0.875460 0.680134 0.058370 -0.180236
C17   C     C_R   0.660083 0.538962 0.197115 -0.043214
C18   C     C_R   0.156670 0.420755 0.847228 -0.191026
C19   C     C_R   0.102119 0.394201 0.950770 -0.138833
C20   C     C_R   0.231331 0.436944 0.014553 -0.192852
Cu1   Cu    Cu3+1 0.321300 0.483160 0.488710 0.929845
Cu2   Cu    Cu3+1 0.678700 0.516840 0.511290 0.928010
H1    H     H_    0.941638 0.666212 0.204469 0.151363
H2    H     H_    0.295274 0.958579 0.484485 0.177509
H3    H     H_    0.001224 0.605058 0.588521 0.212524
H4    H     H_    0.908563 0.777193 0.872456 0.145698
H5    H     H_    0.012101 0.751957 0.029224 0.144414
H6    H     H_    0.396222 0.415763 0.166950 0.143280
H7    H     H_    0.055728 0.377458 0.798432 0.163385
H8    H     H_    0.178646 0.413268 0.094011 0.124221
H9    H     H_    0.959438 0.336424 0.981516 0.152589
H10   H     H_    0.676443 0.714497 0.767692 0.165113
H11   H     H_    0.704630 0.041448 0.515038 0.177737
N1    N     N_2   0.947230 0.542220 0.528320 -0.209028
N2    N     N_2   0.052770 0.457780 0.471680 -0.110643
O1    O     O_R   0.383920 0.714220 0.492660 -0.578556
O2    O     O_R   0.685730 0.742660 0.511730 -0.588257
O3    O     O_R   0.275440 0.478800 0.636790 -0.586567
O4    O     O_R   0.577250 0.507240 0.655860 -0.579643
O5    O     O_R   0.314270 0.257340 0.488270 -0.601908
O6    O     O_R   0.616080 0.285780 0.507340 -0.590010
O7    O     O_R   0.422750 0.492760 0.344140 -0.594522
O8    O     O_R   0.724560 0.521200 0.363210 -0.618732
C21   C     C_3   0.004729 0.374784 0.377025 -0.041107
C22   C     C_3   0.069939 0.218014 0.351305 -0.388074
C23   C     C_3   0.981899 0.118602 0.266019 -0.955893
H12   H     H_    0.827798 0.084147 0.290715 0.264391
H13   H     H_    0.016381 0.186062 0.195959 0.255129
H14   H     H_    0.036559 0.008906 0.247498 0.264072
H15   H     H_    0.222718 0.239392 0.324282 0.251624
H16   H     H_    0.028275 0.146964 0.420120 0.235857
H17   H     H_    0.857052 0.334971 0.382792 0.223653
H18   H     H_    0.063544 0.453880 0.312411 0.141086

loop_
_geom_bond_atom_site_label_1
_geom_bond_atom_site_label_2
_ccdc_geom_bond_type
C2    C4    A    
C6    C7    A    
Cu1   N2    S    
C15   O7    A    
C8    C17   A    
C1    C11   S    
C1    O2    A    
H3    N1    S    
C4    C8    A    
C19   H9    S    
Cu1   Cu2   S    
C21   H17   S    
C12   O4    A    
C2    C3    A    
C15   O8    A    
C18   H7    S    
C20   H8    S    
C13   C14   S    
N2    C21   S    
C11   C13   D    
C23   H14   S    
C6    H4    S    
Cu1   O5    S    
C10   C12   S    
C22   H15   S    
C10   C18   A    
C14   O6    A    
C3    C10   A    
Cu2   O4    S    
C9    C17   A    
C9    C16   A    
C18   C19   A    
C3    C7    A    
C12   O3    A    
C5    C6    A    
Cu2   N1    S    
C23   H13   S    
Cu2   O6    S    
C22   H16   S    
C14   O5    A    
Cu1   O7    S    
C11   H11   S    
C21   C22   S    
C13   H2    S    
C8    H6    S    
C15   C17   S    
N1    N2    D    
C16   H5    S    
Cu1   O1    S    
C23   H12   S    
C9    H1    S    
C5    C16   A    
C7    H10   S    
C22   C23   S    
Cu2   O2    S    
C2    C20   A    
C21   H18   S    
Cu2   O8    S    
Cu1   O3    S    
C19   C20   A    
C1    O1    A    
C4    C5    A    
