data_mof_unit_43862.cif
_audit_creation_date              2012-12-10T19:27:26-0500
_audit_creation_method            fapswitch 2.2
_symmetry_space_group_name_H-M    P1
_symmetry_Int_Tables_number       1
_space_group_crystal_system       triclinic
_cell_length_a                    23.3754
_cell_length_b                    10.72848
_cell_length_c                    9.870081
_cell_angle_alpha                 91.155495
_cell_angle_beta                  90.612019
_cell_angle_gamma                 88.50345
_cell_volume                      2473.76852396

loop_
_atom_site_label
_atom_site_type_symbol
_atom_type_description
_atom_site_fract_x
_atom_site_fract_y
_atom_site_fract_z
_atom_type_partial_charge
C1    C     C_R   0.502988 0.257707 0.498696 0.928641
C2    C     C_R   0.706038 0.563382 0.410421 -0.052693
C3    C     C_R   0.233544 0.457139 0.432109 -0.066909
C4    C     C_R   0.765534 0.558905 0.422217 -0.072695
C5    C     C_R   0.209313 0.554611 0.509489 0.099166
C6    C     C_R   0.792384 0.525268 0.544042 0.087980
C7    C     C_3   0.535698 0.043569 0.605681 -0.289433
C8    C     C_3   0.469707 0.956641 0.400412 -0.390970
C9    C     C_3   0.555216 0.950389 0.493304 -0.115537
C10   C     C_3   0.450046 0.048800 0.514684 -0.169515
C11   C     C_3   0.500418 0.877410 0.509140 -0.188915
C12   C     C_R   0.499451 0.742299 0.502229 0.922280
C13   C     C_3   0.504770 0.122176 0.496777 -0.223652
C14   C     C_3   0.480538 0.969178 0.622340 0.533408
C15   C     C_3   0.525120 0.029964 0.385388 0.478568
C16   C     C_R   0.389779 0.502862 0.499041 0.850568
C17   C     C_R   0.610669 0.500232 0.501103 0.857889
C18   C     C_3   0.464929 0.419821 0.046056 -0.030507
C19   C     C_3   0.534815 0.580463 0.954381 -0.078059
C20   C     C_3   0.514989 0.392178 0.950589 -0.059224
C21   C     C_3   0.484544 0.607632 0.049850 -0.112494
C22   C     C_3   0.449634 0.527152 0.951761 0.015166
C23   C     C_R   0.243864 0.641442 0.578406 0.376788
C24   C     C_3   0.550097 0.472442 0.048263 -0.033771
C25   C     C_R   0.878031 0.646205 0.525573 0.638258
C26   C     C_R   0.124564 0.465244 0.593164 0.664556
C27   C     C_R   0.886337 0.434444 0.593232 0.661809
C28   C     C_R   0.116357 0.648554 0.461284 0.625168
C29   C     C_R   0.945973 0.443409 0.607762 -0.136416
C30   C     C_R   0.056499 0.655843 0.481570 -0.145129
C31   C     C_R   0.971608 0.550183 0.557853 -0.104791
C32   C     C_R   0.031374 0.554920 0.547397 -0.071603
C33   C     C_R   0.937696 0.654816 0.524400 -0.151920
C34   C     C_R   0.759375 0.482485 0.651657 0.359438
C35   C     C_R   0.065402 0.453848 0.592376 -0.165144
C36   C     C_R   0.981005 0.347046 0.662174 0.377531
C37   C     C_R   0.020671 0.758942 0.443598 0.211506
C38   C     C_R   0.039757 0.344533 0.634682 0.262616
C39   C     C_R   0.964302 0.765843 0.492751 0.294897
C40   C     C_2   0.530470 0.266539 0.892423 0.538724
C41   C     C_2   0.463891 0.729859 0.108425 0.503205
C42   C     C_2   0.424837 0.327895 0.103326 0.478541
C43   C     C_2   0.574689 0.674027 0.900509 0.595178
C44   C     C_2   0.390696 0.558884 0.898553 0.586753
C45   C     C_R   0.303703 0.632682 0.559530 -0.162552
C46   C     C_2   0.607164 0.433293 0.104242 0.580670
C47   C     C_2   0.341246 0.739627 0.593204 0.511208
C48   C     C_2   0.672864 0.355369 0.705610 0.577950
C49   C     C_2   0.316014 0.324556 0.356014 0.571943
C50   C     C_2   0.679602 0.641919 0.302634 0.546020
C51   C     C_2   0.614512 0.893983 0.488428 0.447331
C52   C     C_2   0.390452 0.102433 0.523680 0.534954
C53   C     C_R   0.702144 0.450335 0.623926 -0.135975
C54   C     C_R   0.327784 0.523310 0.496771 -0.179177
C55   C     C_R   0.673813 0.501612 0.508335 -0.214813
C56   C     C_R   0.292478 0.436919 0.428914 -0.041175
H1    H     H_    0.205360 0.392601 0.380537 0.221247
H2    H     H_    0.565615 0.772512 0.915698 0.096545
H3    H     H_    0.373984 0.653836 0.904992 0.120620
H4    H     H_    0.610202 0.360842 0.178333 0.135758
H5    H     H_    0.123377 0.168490 0.763170 0.408210
H6    H     H_    0.011674 0.879448 0.733440 0.373112
H7    H     H_    0.211872 0.878096 0.529097 0.381809
H8    H     H_    0.797630 0.289726 0.806160 0.388938
H9    H     H_    0.386996 0.725937 0.599630 0.078009
H10   H     H_    0.638429 0.302516 0.659889 0.039140
H11   H     H_    0.361531 0.303753 0.355527 0.026075
H12   H     H_    0.791303 0.593157 0.341046 0.224775
H13   H     H_    0.634832 0.669977 0.305156 0.071064
H14   H     H_    0.642929 0.915313 0.406509 0.146298
H15   H     H_    0.356555 0.062647 0.462156 0.115560
H16   H     H_    0.394661 0.031092 0.926468 0.406189
H17   H     H_    0.605854 0.947181 0.080910 0.423646
H18   H     H_    0.564310 0.079365 0.686963 0.222808
H19   H     H_    0.441684 0.923258 0.316902 0.228360
H20   H     H_    0.911280 0.299050 0.983370 0.413528
H21   H     H_    0.097787 0.939264 0.478498 0.395566
H22   H     H_    0.497760 0.212158 0.842491 0.137495
H23   H     H_    0.491326 0.809505 0.109395 0.139387
H24   H     H_    0.439372 0.264983 0.181044 0.109859
N1    N     N_R   0.853462 0.536140 0.556660 -0.345044
N2    N     N_R   0.148618 0.557971 0.523208 -0.342137
N3    N     N_3   0.499960 0.500030 0.863290 -0.147935
N4    N     N_3   0.500040 0.499970 0.136710 -0.168265
O1    O     O_R   0.500000 0.313960 0.616610 -0.628175
O2    O     O_2   0.158102 0.386112 0.665557 -0.476662
O3    O     O_2   0.861651 0.323534 0.606811 -0.498273
O4    O     O_2   0.142884 0.730249 0.383590 -0.482312
O5    O     O_2   0.919565 0.153605 0.746910 -0.121909
O6    O     O_2   0.006472 0.201426 0.876042 -0.207339
O7    O     O_3   0.918762 0.350570 0.903619 -0.480458
O8    O     O_2   0.060740 0.799299 0.196430 -0.166806
O9    O     O_2   0.991283 0.953173 0.283168 -0.162483
O10   O     O_3   0.094883 0.956501 0.380447 -0.370357
O11   O     O_2   0.578977 0.223293 0.904377 -0.514708
O12   O     O_R   0.500000 0.686040 0.383390 -0.615282
O13   O     O_2   0.416279 0.739451 0.157625 -0.562622
O14   O     O_2   0.375288 0.323703 0.064137 -0.482325
O15   O     O_2   0.617564 0.640106 0.839423 -0.448021
O16   O     O_2   0.360779 0.477989 0.849106 -0.462867
O17   O     O_2   0.650550 0.480719 0.065016 -0.456024
O18   O     O_2   0.025017 0.129296 0.510354 -0.160222
O19   O     O_2   0.119685 0.213195 0.488737 -0.232460
O20   O     O_3   0.093975 0.116524 0.718643 -0.406259
O21   O     O_2   0.921461 0.001652 0.493830 -0.120113
O22   O     O_2   0.897065 0.874863 0.686778 -0.187338
O23   O     O_R   0.500030 0.313950 0.383350 -0.629362
O24   O     O_3   0.000292 0.950256 0.675265 -0.425746
O25   O     O_2   0.158271 0.703542 0.753810 -0.251475
O26   O     O_2   0.254013 0.771332 0.813805 -0.173973
O27   O     O_3   0.198706 0.888408 0.623747 -0.428157
O28   O     O_2   0.839528 0.565223 0.832329 -0.226317
O29   O     O_2   0.741178 0.556319 0.907833 -0.100474
O30   O     O_3   0.799104 0.348420 0.884630 -0.420890
O31   O     O_2   0.322204 0.846218 0.604449 -0.496025
O32   O     O_2   0.686299 0.333361 0.822437 -0.433450
O33   O     O_2   0.284599 0.252639 0.295571 -0.492579
O34   O     O_R   0.499970 0.686050 0.616650 -0.588267
O35   O     O_2   0.708393 0.681104 0.210907 -0.461606
O36   O     O_2   0.631518 0.825672 0.578479 -0.527896
O37   O     O_2   0.379521 0.189172 0.601800 -0.493406
O38   O     O_2   0.436957 0.810711 0.802939 -0.384939
O39   O     O_2   0.503557 0.965332 0.888932 -0.330476
O40   O     O_3   0.400402 0.039840 0.827853 -0.444267
O41   O     O_2   0.516872 0.114905 0.132736 -0.317199
O42   O     O_2   0.607617 0.145855 0.255843 -0.319260
O43   O     O_3   0.585665 0.923568 0.163915 -0.597299
O44   O     O_R   0.416140 0.499970 0.616650 -0.574384
O45   O     O_R   0.583860 0.500030 0.383350 -0.676951
O46   O     O_R   0.416170 0.499960 0.383400 -0.620478
O47   O     O_R   0.583830 0.500040 0.616600 -0.575700
O48   O     O_2   0.844849 0.745359 0.489988 -0.457928
S1    S     S_3+6 0.956751 0.256592 0.798085 0.164213
S2    S     S_3+6 0.040962 0.869166 0.321625 0.201926
S3    S     S_3+6 0.070852 0.198725 0.584654 0.151692
S4    S     S_3+6 0.943076 0.901403 0.586775 0.183075
S5    S     S_3+6 0.212944 0.750839 0.697717 0.149311
S6    S     S_3+6 0.785886 0.491280 0.822035 0.178488
S7    S     S_3+6 0.455584 0.942250 0.790064 0.016799
S8    S     S_3+6 0.559371 0.058689 0.229752 0.012623
Zn1   Zn    Zn3+2 0.499980 0.500010 0.655740 1.037469
Zn2   Zn    Zn3+2 0.500020 0.499990 0.344260 0.969664

loop_
_geom_bond_atom_site_label_1
_geom_bond_atom_site_label_2
_ccdc_geom_bond_type
C42   H24   S    
C23   C45   A    
O20   S3    S    
C17   O47   A    
O40   S7    S    
C9    C51   S    
O34   Zn1   S    
C10   C52   S    
C36   S1    S    
C47   O31   D    
C29   C36   A    
O42   S8    D    
C33   C39   A    
C19   C21   S    
C50   H13   S    
C43   O15   D    
O38   S7    D    
O24   S4    S    
C2    C55   A    
C42   O14   D    
C20   C40   S    
C11   C14   S    
H6    O24   S    
C44   H3    S    
C37   S2    S    
O39   S7    D    
H21   O10   S    
C27   C29   A    
O25   S5    D    
C3    C56   A    
O19   S3    D    
O18   S3    D    
C41   O13   D    
C2    C50   S    
C43   H2    S    
C7    C14   S    
C49   O33   D    
C20   C24   S    
O7    S1    S    
C28   O4    S    
C18   N4    S    
C31   C33   A    
C51   H14   S    
C16   O46   A    
O44   Zn1   S    
C17   C55   S    
O47   Zn1   S    
C48   O32   D    
O22   S4    D    
C26   N2    A    
C6    N1    S    
C21   C22   S    
H16   O40   S    
C25   N1    A    
C19   N3    S    
C19   C43   S    
C7    H18   S    
C39   S4    S    
C45   C47   S    
O41   S8    D    
C1    O1    A    
C48   C53   S    
C46   O17   D    
C54   C56   A    
O5    S1    D    
C17   O45   A    
C50   O35   D    
C32   C35   A    
O28   S6    D    
C27   N1    A    
C35   C38   A    
H8    O30   S    
C4    C6    A    
O9    S2    D    
C10   C14   S    
O1    Zn1   S    
C4    H12   S    
O6    S1    D    
O45   Zn2   S    
H17   O43   S    
C28   N2    A    
C34   S6    S    
C8    H19   S    
C6    C34   A    
C30   C37   A    
C2    C4    A    
C9    C11   S    
C52   O37   D    
C31   C32   A    
C5    C23   A    
C21   N4    S    
N4    Zn2   S    
C26   O2    S    
H5    O20   S    
C51   O36   D    
C38   S3    S    
O23   Zn2   S    
C27   O3    S    
C16   O44   A    
C1    O23   A    
O21   S4    D    
C21   C41   S    
C3    H1    S    
C40   H22   S    
C8    C10   S    
C45   C54   A    
C8    C15   S    
C13   C15   S    
C12   O34   A    
C1    C13   S    
O43   S8    S    
C53   C55   A    
C36   C38   A    
O27   S5    S    
N3    Zn1   S    
C15   S8    S    
C7    C9    S    
C22   C44   S    
C49   H11   S    
C46   H4    S    
C18   C22   S    
C23   S5    S    
O26   S5    D    
O8    S2    D    
C3    C5    A    
C10   C13   S    
C41   H23   S    
C11   C12   S    
C49   C56   S    
C24   C46   S    
C22   N3    S    
C18   C42   S    
C19   C24   S    
C24   N4    S    
C29   C31   A    
C52   H15   S    
C30   C32   A    
C5    N2    S    
C44   O16   D    
C8    C11   S    
C28   C30   A    
O10   S2    S    
C18   C20   S    
O30   S6    S    
H7    O27   S    
O46   Zn2   S    
C16   C54   S    
H20   O7    S    
O12   Zn2   S    
C26   C35   A    
C7    C13   S    
C14   S7    S    
C34   C53   A    
C37   C39   A    
C20   N3    S    
O29   S6    D    
C12   O12   A    
C40   O11   D    
C48   H10   S    
C25   O48   S    
C47   H9    S    
C9    C15   S    
C25   C33   A    
