data_mof_unit_51451.cif
_audit_creation_date              2012-12-11T16:31:27-0500
_audit_creation_method            fapswitch 2.2
_symmetry_space_group_name_H-M    P1
_symmetry_Int_Tables_number       1
_space_group_crystal_system       triclinic
_cell_length_a                    6.943669
_cell_length_b                    18.74838
_cell_length_c                    19.760272
_cell_angle_alpha                 68.499449
_cell_angle_beta                  90.490581
_cell_angle_gamma                 91.277665
_cell_volume                      2392.84135407

loop_
_atom_site_label
_atom_site_type_symbol
_atom_type_description
_atom_site_fract_x
_atom_site_fract_y
_atom_site_fract_z
_atom_type_partial_charge
O1    O     O_R   0.488990 0.443920 0.942160 -0.541607
O2    O     O_R   0.823840 0.406530 0.087600 -0.536987
O3    O     O_R   0.999650 0.556080 0.057840 -0.516116
C1    C     C_R   0.654855 0.388935 0.118729 0.726753
O4    O     O_R   0.818390 0.434590 0.944530 -0.540694
O5    O     O_R   0.994160 0.584350 0.913750 -0.539922
C2    C     C_R   0.648297 0.420558 0.924013 0.714582
O6    O     O_R   0.494480 0.415650 0.086250 -0.527617
O7    O     O_3   0.662600 0.549100 0.990070 -0.368147
V1    V     V_3+5 0.935320 0.490890 0.001840 1.472343
O8    O     O_R   0.324240 0.593470 0.912400 -0.542052
C3    C     C_R   0.155845 0.616132 0.884536 0.681203
O9    O     O_R   0.329690 0.565410 0.055470 -0.544608
C4    C     C_R   0.162582 0.578564 0.076683 0.764200
V2    V     V_3+5 0.435990 0.509110 0.998160 1.457201
O10   O     O_3   0.158840 0.450900 0.009930 -0.371344
C5    C     C_3   0.985483 0.663102 0.275953 -0.282287
C6    C     C_3   0.339088 0.694199 0.258207 -0.389288
C7    C     C_3   0.329093 0.747104 0.303897 -0.087643
H1    H     H_    0.017352 0.667661 0.385712 0.163584
H2    H     H_    0.009845 0.601172 0.307001 0.158680
H3    H     H_    0.458987 0.714214 0.218325 0.180595
H4    H     H_    0.372021 0.633873 0.291685 0.155389
H5    H     H_    0.421525 0.797994 0.274512 0.198306
C8    C     C_1   0.108302 0.865525 0.386877 -0.137126
C9    C     C_3   0.146475 0.696500 0.217692 0.205877
C10   C     C_3   0.980439 0.706448 0.329961 -0.377237
C11   C     C_3   0.118585 0.778039 0.303327 0.118782
C12   C     C_3   0.054717 0.827642 0.221501 -0.145069
C13   C     C_3   0.108290 0.781688 0.171912 -0.367482
C14   C     C_1   0.110234 0.823969 0.351690 -0.037206
C15   C     C_1   0.155400 0.653278 0.168015 -0.028240
C16   C     C_1   0.158827 0.619933 0.125767 -0.119116
H6    H     H_    0.998569 0.786310 0.129322 0.187097
H7    H     H_    0.241249 0.806706 0.139953 0.156900
H8    H     H_    0.843254 0.667379 0.248536 0.177170
H9    H     H_    0.830559 0.723169 0.334653 0.164712
H10   H     H_    0.042505 0.534448 0.677936 0.110895
C17   C     C_R   0.206824 0.770817 0.882378 -0.131149
C18   C     C_R   0.229923 0.844432 0.883434 -0.110138
C19   C     C_R   0.216993 0.908074 0.819295 -0.120760
C20   C     C_R   0.180533 0.898623 0.753590 -0.145091
C21   C     C_R   0.156963 0.824613 0.750692 0.065978
C22   C     C_R   0.170704 0.759329 0.816486 0.068848
C23   C     C_R   0.118851 0.815133 0.683783 -0.175060
C24   C     C_R   0.096893 0.740208 0.682651 0.069193
C25   C     C_R   0.110075 0.674903 0.748482 0.064786
C26   C     C_R   0.146550 0.684395 0.815539 -0.177810
C27   C     C_R   0.064933 0.728768 0.616489 -0.129123
C28   C     C_R   0.046153 0.655164 0.615121 -0.123880
C29   C     C_R   0.057468 0.591502 0.679321 -0.131879
C30   C     C_R   0.089047 0.600914 0.745363 -0.141478
H11   H     H_    0.217339 0.723182 0.933747 0.090303
H12   H     H_    0.257640 0.852113 0.934363 0.123522
H13   H     H_    0.234777 0.965142 0.820448 0.112536
H14   H     H_    0.170500 0.949956 0.705268 0.100215
H15   H     H_    0.055339 0.776431 0.565117 0.080788
H16   H     H_    0.022839 0.647524 0.563920 0.121803
H17   H     H_    0.098342 0.549594 0.793735 0.098203
H18   H     H_    0.858827 0.445894 0.340291 0.160831
C31   C     C_R   0.522556 0.246199 0.115953 -0.157544
C32   C     C_R   0.512362 0.177606 0.105190 -0.199519
C33   C     C_R   0.573309 0.111051 0.159398 -0.006333
C34   C     C_R   0.609019 0.110526 0.230416 -0.052550
C35   C     C_R   0.602982 0.180339 0.244248 -0.007479
C36   C     C_R   0.584185 0.249791 0.183113 0.082593
C37   C     C_R   0.631414 0.184140 0.314751 -0.150554
C38   C     C_R   0.688029 0.255220 0.320069 0.057978
C39   C     C_R   0.688466 0.324587 0.257317 0.006339
C40   C     C_R   0.637074 0.321149 0.188091 -0.158114
C41   C     C_R   0.751864 0.257316 0.387714 -0.193112
C42   C     C_R   0.822357 0.324573 0.394415 0.011131
C43   C     C_R   0.814717 0.392611 0.334325 -0.184682
C44   C     C_R   0.741396 0.394253 0.267517 -0.016408
H19   H     H_    0.491904 0.296519 0.068888 0.128837
H20   H     H_    0.479105 0.178495 0.051168 0.142435
H21   H     H_    0.752597 0.206078 0.436121 0.145702
O11   O     O_R   0.770890 0.084490 0.414040 -0.522732
O12   O     O_R   0.445980 0.065450 0.555510 -0.543269
O13   O     O_R   0.270670 0.915620 0.586180 -0.542479
C45   C     C_R   0.615768 0.079412 0.576275 0.719688
O14   O     O_R   0.441480 0.093500 0.412450 -0.526764
O15   O     O_R   0.266140 0.943870 0.442100 -0.522495
C46   C     C_R   0.611685 0.114689 0.383259 0.713180
O16   O     O_R   0.775410 0.056240 0.558120 -0.532918
O17   O     O_3   0.602660 0.950990 0.510100 -0.382349
V3    V     V_3+5 0.329740 0.009100 0.498130 1.489711
O18   O     O_R   0.936120 0.934420 0.444240 -0.545854
C47   C     C_R   0.103833 0.917228 0.426746 0.786934
O19   O     O_R   0.940610 0.906370 0.587310 -0.546265
C48   C     C_R   0.109064 0.883463 0.614968 0.672362
V4    V     V_3+5 0.829110 0.990690 0.501470 1.463867
O20   O     O_3   0.106080 0.049010 0.489880 -0.358138
C49   C     C_3   0.828109 0.204463 0.746201 -0.327308
C50   C     C_3   0.591990 0.294633 0.662411 -0.314052
C51   C     C_3   0.592282 0.342682 0.712102 -0.332995
H22   H     H_    0.945471 0.297052 0.778250 0.135307
H23   H     H_    0.944985 0.226061 0.705085 0.133424
H24   H     H_    0.450431 0.299926 0.634315 0.146285
H25   H     H_    0.704060 0.318083 0.619596 0.166151
H26   H     H_    0.704523 0.389008 0.692928 0.142689
H27   H     H_    0.450840 0.370843 0.707696 0.139227
C52   C     C_1   0.637151 0.374920 0.878575 -0.185901
C53   C     C_3   0.630739 0.209047 0.707560 0.271213
C54   C     C_3   0.828498 0.252533 0.795831 -0.324564
C55   C     C_3   0.631349 0.291179 0.792490 0.282015
C56   C     C_3   0.472779 0.227254 0.816601 -0.319680
C57   C     C_3   0.472343 0.179239 0.766896 -0.331549
C58   C     C_1   0.632682 0.337152 0.840027 -0.098605
C59   C     C_1   0.629685 0.162926 0.660168 -0.082324
C60   C     C_1   0.625960 0.125032 0.621736 -0.134627
H28   H     H_    0.496553 0.117943 0.800659 0.143915
H29   H     H_    0.328390 0.182363 0.740848 0.136815
H30   H     H_    0.497488 0.188870 0.874035 0.151004
H31   H     H_    0.859626 0.143697 0.779567 0.143505
H32   H     H_    0.860453 0.214679 0.852841 0.147457
H33   H     H_    0.329062 0.253211 0.814227 0.137342
C61   C     C_2   0.152121 0.906550 0.189037 0.796830
O21   O     O_2   0.268562 0.929529 0.223547 -0.525764
O22   O     O_R   0.105363 0.953423 0.117794 -0.638904
H34   H     H_    0.161868 0.007176 0.103432 0.341947
C62   C     C_2   0.629744 0.048218 0.135884 0.843416
O23   O     O_2   0.785963 0.018796 0.154061 -0.540051
O24   O     O_R   0.515604 0.028523 0.086610 -0.671968
H35   H     H_    0.572835 0.986050 0.073408 0.315893
C63   C     C_2   0.679373 0.039627 0.285720 0.771619
O25   O     O_2   0.851518 0.033429 0.299473 -0.552587
O26   O     O_R   0.548933 0.980875 0.322748 -0.630182
H36   H     H_    0.612656 0.938248 0.363639 0.289687
C64   C     C_2   0.901130 0.323711 0.464880 0.736327
O27   O     O_2   0.943098 0.383866 0.472879 -0.575505
O28   O     O_R   0.930119 0.253929 0.522170 -0.672517
H37   H     H_    0.987048 0.260831 0.566842 0.281350
C65   C     C_2   0.701131 0.471386 0.215191 0.698041
O29   O     O_2   0.830109 0.519903 0.196628 -0.572155
O30   O     O_R   0.511699 0.491531 0.194745 -0.658585
H38   H     H_    0.501298 0.548975 0.169398 0.292023
C66   C     C_R   0.414681 0.710147 0.380549 0.106138
C67   C     C_R   0.532256 0.755104 0.408428 -0.150811
C68   C     C_R   0.609566 0.724425 0.478476 -0.130310
C69   C     C_R   0.569698 0.648242 0.522216 -0.093557
C70   C     C_R   0.453075 0.602657 0.495819 -0.114057
C71   C     C_R   0.375935 0.633095 0.425643 -0.124377
H39   H     H_    0.562977 0.814332 0.375987 0.154318
H40   H     H_    0.699755 0.759926 0.498906 0.114695
H41   H     H_    0.628658 0.624557 0.576626 0.116381
H42   H     H_    0.421834 0.543591 0.529887 0.118522
H43   H     H_    0.285653 0.595944 0.407448 0.117529
C72   C     C_2   0.835708 0.841800 0.217512 0.805717
O31   O     O_2   0.730397 0.818207 0.180150 -0.563635
O32   O     O_R   0.749937 0.880614 0.257107 -0.640799
H44   H     H_    0.845811 0.906934 0.279021 0.294273

loop_
_geom_bond_atom_site_label_1
_geom_bond_atom_site_label_2
_ccdc_geom_bond_type
C8    C14   T    
O15   V3    S    
C49   C54   S    
C9    C15   S    
C63   O25   D    
C51   H27   S    
C19   C20   A    
C54   H32   S    
C64   O28   S    
C50   C51   S    
C6    C9    S    
C53   C57   S    
C1    O6    A    
O26   H36   S    
C4    C16   S    
C1    C40   S    
C72   O31   D    
C17   H11   S    
C23   C24   A    
C31   H19   S    
C24   C27   A    
C12   C13   S    
C13   H7    S    
C5    C9    S    
C11   C12   S    
O13   V3    S    
C66   C71   A    
C72   O32   S    
O5    C3    A    
C49   H31   S    
C50   H24   S    
C2    C52   S    
C55   C56   S    
C49   H23   S    
V2    O10   S    
C44   C65   S    
H18   C43   S    
C27   H15   S    
C6    C7    S    
C43   C44   A    
C59   C60   T    
C19   H13   S    
C20   H14   S    
C61   O21   D    
O8    V2    S    
C31   C36   A    
O18   V4    S    
C38   C39   A    
C35   C37   A    
C56   C57   S    
O1    V2    S    
C5    H8    S    
O7    V1    S    
C3    C26   S    
H22   C54   S    
C49   C53   S    
C37   C46   S    
O1    C2    A    
C51   H26   S    
C32   H20   S    
C31   C32   A    
O12   V3    S    
O16   V4    S    
C71   H43   S    
O15   C47   A    
C13   H6    S    
C29   C30   A    
C28   H16   S    
C25   C26   A    
C45   C60   S    
C68   C69   A    
C50   H25   S    
C17   C18   A    
O12   C45   A    
O17   V3    S    
O28   H37   S    
C65   O30   S    
H10   C29   S    
O11   V4    S    
C5    H2    S    
C37   C38   A    
C18   H12   S    
C5    C10   S    
C57   H29   S    
O2    C1    A    
C21   C22   A    
C56   H30   S    
C32   C33   A    
C30   H17   S    
O11   C46   A    
C67   H39   S    
O19   V4    S    
C6    H4    S    
O32   H44   S    
C28   C29   A    
C39   C44   A    
C7    C11   S    
C21   C23   A    
C65   O29   D    
O3    C4    A    
C69   H41   S    
C18   C19   A    
C9    C13   S    
O6    V2    S    
O14   C46   A    
O9    V2    S    
O14   V3    S    
C20   C21   A    
C17   C22   A    
C62   O24   S    
O2    V1    S    
C41   H21   S    
C33   C62   S    
O22   H34   S    
O4    C2    A    
C12   C61   S    
C51   C55   S    
C24   C25   A    
C63   O26   S    
C6    H3    S    
C8    C47   S    
C70   H42   S    
C11   C14   S    
C42   C43   A    
C68   H40   S    
O5    V1    S    
C67   C68   A    
C42   C64   S    
C25   C30   A    
H1    C10   S    
C54   C55   S    
C34   C63   S    
C7    C66   S    
C52   C58   T    
C34   C35   A    
O13   C48   A    
C7    H5    S    
O7    V2    S    
O4    V1    S    
O3    V1    S    
O17   V4    S    
C69   C70   A    
C15   C16   T    
C50   C53   S    
C53   C59   S    
O19   C48   A    
C36   C40   A    
C10   H9    S    
C38   C41   A    
V3    O20   S    
V4    O20   S    
C64   O27   D    
C35   C36   A    
C39   C40   A    
C23   C48   S    
C61   O22   S    
C66   C67   A    
C12   C72   S    
C33   C34   A    
C57   H28   S    
C41   C42   A    
O18   C47   A    
C27   C28   A    
C10   C11   S    
C70   C71   A    
O30   H38   S    
V1    O10   S    
C62   O23   D    
O9    C4    A    
C56   H33   S    
C45   O16   A    
C22   C26   A    
O8    C3    A    
O24   H35   S    
C55   C58   S    
