data_mof_unit_36605.cif
_audit_creation_date              2012-12-11T14:36:26-0500
_audit_creation_method            fapswitch 2.2
_symmetry_space_group_name_H-M    P1
_symmetry_Int_Tables_number       1
_space_group_crystal_system       triclinic
_cell_length_a                    13.497392
_cell_length_b                    13.504516
_cell_length_c                    27.483288
_cell_angle_alpha                 90.744864
_cell_angle_beta                  90.215751
_cell_angle_gamma                 60.01942
_cell_volume                      4338.84663759

loop_
_atom_site_label
_atom_site_type_symbol
_atom_type_description
_atom_site_fract_x
_atom_site_fract_y
_atom_site_fract_z
_atom_type_partial_charge
C1    C     C_R   0.620366 0.101180 0.570157 0.545145
C2    C     C_1   0.644029 0.716598 0.660309 -0.038189
C3    C     C_3   0.367728 0.435849 0.316104 -0.391203
C4    C     C_3   0.494976 0.636214 0.723951 -0.341846
C5    C     C_3   0.727692 0.458225 0.783856 -0.372876
C6    C     C_3   0.097193 0.129059 0.738106 -0.111209
C7    C     C_R   0.599207 0.780549 0.569074 0.543262
C8    C     C_3   0.188169 0.055827 0.776696 -0.118048
C9    C     C_1   0.098041 0.200102 0.902185 0.041084
C10   C     C_1   0.232988 0.136665 0.618131 0.009514
C11   C     C_3   0.060065 0.237706 0.769923 -0.137774
C12   C     C_3   0.151044 0.164437 0.807786 0.036804
C13   C     C_3   0.148833 0.259717 0.744034 -0.079814
C14   C     C_3   0.185763 0.151112 0.712980 -0.033137
C15   C     C_1   0.628086 0.738592 0.617675 -0.000114
C16   C     C_3   0.238495 0.185946 0.782173 0.483381
C17   C     C_3   0.277532 0.077403 0.750623 -0.020470
C18   C     C_1   0.126952 0.179346 0.860138 0.040637
C19   C     C_R   0.278427 0.121595 0.569837 0.546558
C20   C     C_1   0.207233 0.144435 0.660504 -0.023189
C21   C     C_3   0.644632 0.265180 0.740141 -0.140503
C22   C     C_3   0.560710 0.260644 0.776994 0.416937
C23   C     C_1   0.689491 0.206034 0.903671 0.045196
C24   C     C_1   0.635677 0.131449 0.618517 0.014951
C25   C     C_3   0.744859 0.181928 0.772709 0.329639
C26   C     C_3   0.693233 0.580368 0.771266 -0.086915
C27   C     C_3   0.660651 0.179103 0.809371 0.007695
C28   C     C_3   0.753731 0.077124 0.745481 -0.136468
C29   C     C_3   0.652316 0.160335 0.713591 -0.058548
C30   C     C_3   0.668296 0.074197 0.782571 -0.156294
C31   C     C_R   0.622552 0.100157 0.431624 0.546162
C32   C     C_3   0.568016 0.157055 0.749893 0.444493
C33   C     C_1   0.671982 0.192639 0.861737 0.062733
C34   C     C_1   0.644808 0.147777 0.661009 -0.000598
C35   C     C_R   0.746002 0.687286 0.361346 -0.006574
C36   C     C_R   0.753063 0.681641 0.309648 0.027369
C37   C     C_3   0.669641 0.675028 0.808995 0.067436
C38   C     C_R   0.760084 0.674597 0.206165 -0.055324
C39   C     C_R   0.849503 0.672174 0.233369 -0.046801
C40   C     C_R   0.846864 0.675256 0.283977 0.393000
C41   C     C_R   0.765835 0.663218 0.154755 -0.068876
C42   C     C_R   0.680795 0.649399 0.130273 0.022011
C43   C     C_R   0.603417 0.773608 0.430793 0.542406
C44   C     C_R   0.559234 0.702071 0.356847 -0.135725
C45   C     C_R   0.564284 0.694704 0.306384 0.031383
C46   C     C_R   0.660542 0.687160 0.282432 -0.013180
C47   C     C_R   0.471339 0.702277 0.279353 -0.016429
C48   C     C_3   0.584296 0.663482 0.743558 0.013527
C49   C     C_R   0.475262 0.702418 0.228817 -0.058473
C50   C     C_R   0.571066 0.691688 0.204663 0.024353
C51   C     C_R   0.664204 0.684166 0.231121 -0.034944
C52   C     C_R   0.577656 0.680134 0.154322 0.376776
C53   C     C_R   0.641810 0.711811 0.383746 -0.011621
C54   C     C_R   0.191710 0.068139 0.361831 -0.125914
C55   C     C_R   0.275790 0.121853 0.431656 0.545682
C56   C     C_R   0.158357 0.085205 0.312917 0.025049
C57   C     C_R   0.122406 0.107063 0.211826 0.030011
C58   C     C_R   0.128376 0.013385 0.236191 -0.085047
C59   C     C_3   0.655502 0.700206 0.713056 -0.047843
C60   C     C_R   0.145572 0.002999 0.286413 -0.137155
C61   C     C_R   0.106251 0.118167 0.161408 0.367700
C62   C     C_R   0.095149 0.215648 0.138108 -0.006503
C63   C     C_R   0.176263 0.255333 0.364987 -0.131170
C64   C     C_R   0.148696 0.270912 0.315983 -0.051061
C65   C     C_R   0.144152 0.183639 0.289272 0.051181
C66   C     C_R   0.133864 0.368901 0.292668 -0.086834
C67   C     C_3   0.765776 0.615935 0.740309 -0.094643
C68   C     C_R   0.123006 0.376985 0.242366 0.388764
C69   C     C_R   0.121111 0.289269 0.215145 -0.001462
C70   C     C_3   0.561237 0.757964 0.781203 0.373161
C71   C     C_R   0.128639 0.193534 0.238728 -0.046755
C72   C     C_R   0.107707 0.297714 0.164970 -0.156769
C73   C     C_R   0.208085 0.150121 0.386865 0.002248
C74   C     C_R   0.557282 0.234943 0.362838 -0.129369
C75   C     C_R   0.562779 0.253607 0.313074 0.032821
C76   C     C_R   0.576661 0.281136 0.212241 0.023165
C77   C     C_R   0.483300 0.363710 0.239300 -0.063084
C78   C     C_R   0.473873 0.349597 0.289270 -0.016108
C79   C     C_3   0.740212 0.711680 0.778217 0.365247
C80   C     C_R   0.588507 0.296414 0.162550 0.366782
C81   C     C_3   0.631102 0.797075 0.750318 -0.084358
C82   C     C_R   0.682979 0.211555 0.136464 0.013912
C83   C     C_R   0.741321 0.060236 0.358520 -0.101896
C84   C     C_R   0.747452 0.074268 0.308962 0.019474
C85   C     C_R   0.657622 0.170762 0.285947 0.000430
C86   C     C_R   0.839100 0.990043 0.281625 0.381055
C87   C     C_R   0.840615 0.999936 0.231540 -0.077873
C88   C     C_R   0.753196 0.095838 0.208565 -0.066208
C89   C     C_R   0.662176 0.182664 0.235588 -0.016451
C90   C     C_R   0.759176 0.108318 0.159084 -0.169855
C91   C     C_1   0.692492 0.617891 0.902364 0.028811
C92   C     C_1   0.680363 0.650612 0.861092 0.043500
C93   C     C_R   0.643753 0.136421 0.384900 -0.029303
C94   C     C_R   0.049322 0.236083 0.949849 0.552355
C95   C     C_R   0.710687 0.564748 0.948790 0.539867
C96   C     C_R   0.721819 0.225217 0.951087 0.538843
C97   C     C_R   0.046354 0.246097 0.089128 0.573534
C98   C     C_R   0.706606 0.578286 0.085584 0.559712
C99   C     C_R   0.718848 0.233945 0.089538 0.561954
C100  C     C_3   0.859799 0.667746 0.126659 -0.355520
C101  C     C_3   0.848452 0.662350 0.392530 -0.305354
C102  C     C_3   0.366830 0.711487 0.303448 -0.404332
Cr1   Cr    Cr6+3 0.417550 0.169090 0.500530 1.033659
Cr2   Cr    Cr6+3 0.669180 0.913420 0.499920 1.030050
Cr3   Cr    Cr6+3 0.413260 0.917540 0.499520 1.028847
Cr4   Cr    Cr6+3 0.909170 0.177380 0.020380 1.111002
Cr5   Cr    Cr6+3 0.912710 0.429210 0.018220 1.047929
Cr6   Cr    Cr6+3 0.657170 0.432570 0.019030 1.151724
F1    F     F_    0.820356 0.737241 0.796658 -0.612033
F2    F     F_    0.512201 0.395161 0.140556 -0.595270
F3    F     F_    0.456522 0.830096 0.802687 -0.634976
F4    F     F_    0.926085 0.897140 0.303169 -0.611911
F5    F     F_    0.310324 0.215606 0.806142 -0.524800
F6    F     F_    0.460385 0.353811 0.793557 -0.558904
F7    F     F_    0.476060 0.144679 0.736464 -0.587314
F8    F     F_    0.838218 0.192764 0.785376 -0.660861
F9    F     F_    0.935986 0.675439 0.306842 -0.609472
F10   F     F_    0.486860 0.687770 0.129290 -0.583078
F11   F     F_    0.096499 0.036848 0.135608 -0.615543
F12   F     F_    0.115367 0.469979 0.220363 -0.646248
H1    H     H_    0.133216 0.343360 0.730437 0.153058
H2    H     H_    0.212734 0.988265 0.379085 0.122029
H3    H     H_    0.120473 0.947645 0.216521 0.186090
H4    H     H_    0.605666 0.886641 0.741448 0.153353
H5    H     H_    0.149377 0.930463 0.304409 0.145784
H6    H     H_    0.099092 0.372832 0.147250 0.202996
H7    H     H_    0.134533 0.437591 0.313174 0.160962
H8    H     H_    0.184202 0.321199 0.384632 0.129778
H9    H     H_    0.483171 0.293110 0.384204 0.133279
H10   H     H_    0.416624 0.438577 0.221379 0.196374
H11   H     H_    0.830632 0.040574 0.139138 0.172854
H12   H     H_    0.970853 0.303820 0.778154 0.158969
H13   H     H_    0.911541 0.933715 0.210826 0.148528
H14   H     H_    0.808454 0.984420 0.375732 0.197999
H15   H     H_    0.204179 0.972296 0.790596 0.186445
H16   H     H_    0.038344 0.106072 0.719341 0.171296
H17   H     H_    0.367439 0.012306 0.742022 0.193441
H18   H     H_    0.868923 0.740871 0.139821 0.128461
H19   H     H_    0.942061 0.586813 0.131187 0.177160
H20   H     H_    0.839363 0.683922 0.087438 0.156158
H21   H     H_    0.864126 0.735599 0.391940 0.208370
H22   H     H_    0.837114 0.644522 0.430768 0.109773
H23   H     H_    0.633883 0.342720 0.721930 0.112634
H24   H     H_    0.925091 0.583122 0.379323 0.165006
H25   H     H_    0.302761 0.716284 0.276663 0.149364
H26   H     H_    0.392547 0.635786 0.326340 0.133739
H27   H     H_    0.325692 0.789185 0.326881 0.128269
H28   H     H_    0.391234 0.473943 0.346840 0.119200
H29   H     H_    0.307310 0.505784 0.292114 0.173031
H30   H     H_    0.323162 0.392536 0.330870 0.134076
H31   H     H_    0.458104 0.611637 0.754354 0.187113
H32   H     H_    0.425795 0.712569 0.705799 0.152859
H33   H     H_    0.535350 0.564397 0.697276 0.124911
H34   H     H_    0.676248 0.996951 0.800083 0.183555
H35   H     H_    0.760794 0.403729 0.750705 0.167700
H36   H     H_    0.795124 0.426469 0.812114 0.157926
H37   H     H_    0.652704 0.455034 0.798320 0.175163
H38   H     H_    0.834324 0.002565 0.732042 0.163861
H39   H     H_    0.850222 0.557058 0.723534 0.133592
H40   H     H_    0.924050 0.665947 0.215904 0.204469
H41   H     H_    0.404058 0.707792 0.208258 0.197535
H42   H     H_    0.484646 0.711456 0.375484 0.142308
O1    O     O_R   0.301710 0.195650 0.554160 -0.499113
O2    O     O_R   0.635520 0.542770 0.964420 -0.489442
O3    O     O_R   0.665950 0.325030 0.970100 -0.492018
O4    O     O_R   0.522390 0.158990 0.550460 -0.489244
O5    O     O_R   0.816620 0.158530 0.074540 -0.514795
O6    O     O_R   0.004460 0.188870 0.069750 -0.422067
O7    O     O_R   0.025800 0.341780 0.072300 -0.531649
O8    O     O_R   0.807650 0.528950 0.067500 -0.528301
O9    O     O_R   0.633420 0.550490 0.071810 -0.400716
O10   O     O_R   0.664000 0.332180 0.069640 -0.426491
O11   O     O_3   0.826350 0.346390 0.019210 -0.291807
O12   O     O_R   0.658900 0.818120 0.449760 -0.498696
O13   O     O_R   0.694390 0.003530 0.554040 -0.506537
O14   O     O_R   0.657700 0.819660 0.549320 -0.494713
O15   O     O_R   0.501930 0.803280 0.552920 -0.506747
O16   O     O_R   0.318170 0.023580 0.549580 -0.497078
O17   O     O_R   0.303010 0.193990 0.446760 -0.523153
O18   O     O_R   0.523600 0.157450 0.450900 -0.502300
O19   O     O_R   0.695690 0.001860 0.446640 -0.519162
O20   O     O_R   0.503220 0.801620 0.445520 -0.522250
O21   O     O_R   0.319370 0.022040 0.450020 -0.499230
O22   O     O_3   0.499990 0.000010 0.499990 -0.245915
O23   O     O_R   0.818720 0.150820 0.967160 -0.498561
O24   O     O_R   0.006410 0.181720 0.970200 -0.488454
O25   O     O_R   0.027890 0.334070 0.964920 -0.488904
O26   O     O_R   0.809600 0.521790 0.967960 -0.496622

loop_
_geom_bond_atom_site_label_1
_geom_bond_atom_site_label_2
_ccdc_geom_bond_type
C66   H7    S    
C66   C68   A    
Cr6   O3    S    
C39   H40   S    
C61   F11   S    
C41   C42   A    
C87   H13   S    
C35   C36   A    
C74   C93   A    
Cr3   O16   S    
C87   C88   A    
C11   H12   S    
C47   C49   A    
C65   C71   A    
C77   C78   A    
C27   C33   S    
C25   C28   S    
Cr6   O2    S    
C58   H3    S    
C22   C32   S    
C26   C67   S    
C28   C29   S    
C84   C86   A    
C29   C32   S    
C42   C98   S    
C102  H25   S    
C4    C48   S    
C38   C39   A    
C43   O12   A    
C35   C53   A    
C58   C60   A    
C56   C65   A    
C83   C93   A    
Cr5   O25   S    
C97   O7    A    
C23   C96   S    
C7    O15   A    
Cr1   O18   S    
C82   C99   S    
C69   C71   A    
C70   C81   S    
C83   H14   S    
C6    H16   S    
C100  H20   S    
C59   C67   S    
C102  H26   S    
C101  H21   S    
C44   C53   A    
C43   C53   S    
C1    O13   A    
C12   C16   S    
C10   C20   T    
C16   C17   S    
C23   C33   T    
C68   F12   S    
C50   C52   A    
C36   C46   A    
C13   C14   S    
Cr3   O20   S    
C49   H41   S    
C63   H8    S    
C26   C48   S    
C76   C89   A    
C7    C15   S    
Cr2   O19   S    
C54   H2    S    
C3    H28   S    
C32   F7    S    
C47   C102  S    
C37   C70   S    
C16   F5    S    
C27   C30   S    
C14   C17   S    
C44   H42   S    
C94   O24   A    
C75   C85   A    
C95   O26   A    
Cr2   O13   S    
C99   O5    A    
C45   C47   A    
C4    H32   S    
C40   F9    S    
C3    H29   S    
C74   C75   A    
C79   F1    S    
C81   H4    S    
Cr1   O22   S    
C5    C26   S    
C14   C20   S    
C36   C40   A    
C84   C85   A    
C67   C79   S    
C76   C77   A    
Cr4   O24   S    
C38   C41   A    
Cr2   O14   S    
C25   F8    S    
C48   C70   S    
C91   C92   T    
C79   C81   S    
C85   C89   A    
C86   C87   A    
C68   C69   A    
Cr2   O12   S    
C99   O10   A    
Cr5   O11   S    
C5    H35   S    
C21   C29   S    
C46   C51   A    
C24   C34   T    
C56   C60   A    
C72   H6    S    
C64   C66   A    
C69   C72   A    
C86   F4    S    
C29   C34   S    
C100  H19   S    
C102  H27   S    
C6    C14   S    
C54   C73   A    
C13   H1    S    
C101  H22   S    
C83   C84   A    
C62   C97   S    
C10   C19   S    
C8    C12   S    
C55   C73   S    
C7    O14   A    
C28   H38   S    
C50   C51   A    
C41   C100  S    
C62   C72   A    
C19   O1    A    
Cr3   O21   S    
C2    C15   T    
C19   O16   A    
C21   H23   S    
C100  H18   S    
Cr1   O4    S    
C90   H11   S    
C80   C82   A    
Cr2   O22   S    
C88   C90   A    
C49   C50   A    
C30   H34   S    
C5    H37   S    
C22   C27   S    
Cr6   O10   S    
C13   C16   S    
C76   C80   A    
C98   O9    A    
C80   F2    S    
C5    H36   S    
Cr6   O11   S    
C6    C11   S    
C44   C45   A    
C48   C59   S    
Cr5   O7    S    
C4    H31   S    
C21   C25   S    
C39   C40   A    
C60   H5    S    
C3    H30   S    
C42   C52   A    
C37   C92   S    
C2    C59   S    
C55   O17   A    
C96   O23   A    
C59   C81   S    
Cr4   O23   S    
Cr3   O15   S    
C54   C56   A    
C35   C101  S    
C6    C8    S    
C11   C12   S    
C26   C37   S    
C57   C61   A    
C38   C51   A    
C37   C79   S    
C25   C27   S    
C97   O6    A    
C63   C73   A    
C43   O20   A    
Cr1   O1    S    
C8    C17   S    
C82   C90   A    
C31   O18   A    
C64   C65   A    
C28   C30   S    
C31   C93   S    
C95   O2    A    
Cr4   O5    S    
C30   C32   S    
C11   C13   S    
C17   H17   S    
C57   C58   A    
C1    O4    A    
Cr5   O26   S    
C101  H24   S    
Cr4   O11   S    
C4    H33   S    
Cr1   O17   S    
C77   H10   S    
Cr3   O22   S    
C61   C62   A    
C75   C78   A    
C70   F3    S    
C91   C95   S    
C63   C64   A    
C98   O8    A    
C45   C46   A    
C9    C18   T    
C22   F6    S    
C88   C89   A    
C1    C24   S    
C57   C71   A    
C74   H9    S    
Cr6   O9    S    
C12   C18   S    
C94   O25   A    
C55   O21   A    
C96   O3    A    
C67   H39   S    
C21   C22   S    
C3    C78   S    
C9    C94   S    
C31   O19   A    
Cr4   O6    S    
C8    H15   S    
Cr5   O8    S    
C52   F10   S    
