data_mof_unit_42138.cif
_audit_creation_date              2012-12-10T17:30:20-0500
_audit_creation_method            fapswitch 2.2
_symmetry_space_group_name_H-M    P1
_symmetry_Int_Tables_number       1
_space_group_crystal_system       triclinic
_cell_length_a                    12.072897
_cell_length_b                    12.825366
_cell_length_c                    14.965908
_cell_angle_alpha                 90.716912
_cell_angle_beta                  84.582511
_cell_angle_gamma                 93.177532
_cell_volume                      2303.351544

loop_
_atom_site_label
_atom_site_type_symbol
_atom_type_description
_atom_site_fract_x
_atom_site_fract_y
_atom_site_fract_z
_atom_type_partial_charge
C1    C     C_R   0.522055 0.699926 0.494431 0.926385
C2    C     C_R   0.389062 0.139554 0.581537 -0.021893
C3    C     C_R   0.462897 0.868318 0.541721 -0.304366
C4    C     C_R   0.537103 0.131682 0.458279 -0.304366
C5    C     C_R   0.462228 0.974798 0.532537 0.197427
C6    C     C_R   0.537772 0.025202 0.467463 0.197426
C7    C     C_R   0.962335 0.417813 0.405686 -0.286299
C8    C     C_R   0.037665 0.582187 0.594314 -0.286298
C9    C     C_R   0.845488 0.423662 0.414478 0.329987
C10   C     C_R   0.154512 0.576337 0.585522 0.329991
C11   C     C_R   0.854936 0.532768 0.542835 -0.070437
C12   C     C_R   0.477945 0.300074 0.505569 0.926386
C13   C     C_R   0.145064 0.467232 0.457165 -0.070438
C14   C     C_R   0.972894 0.529157 0.534603 0.043280
C15   C     C_R   0.027106 0.470843 0.465397 0.043281
C16   C     C_R   0.498892 0.500286 0.673083 0.915698
C17   C     C_R   0.501108 0.499714 0.326917 0.915699
C18   C     C_R   0.568817 0.433648 0.180153 -0.218406
C19   C     C_R   0.431180 0.566350 0.819847 -0.218401
C20   C     C_R   0.503396 0.501513 0.231258 -0.061161
C21   C     C_R   0.496603 0.498486 0.768742 -0.061161
C22   C     C_R   0.437491 0.569625 0.192245 -0.197647
C23   C     C_R   0.360238 0.634629 0.965784 0.000610
C24   C     C_R   0.562511 0.430376 0.807755 -0.197648
C25   C     C_R   0.433826 0.570208 0.099469 0.104268
C26   C     C_R   0.566175 0.429791 0.900532 0.104268
C27   C     C_R   0.501488 0.501110 0.046411 -0.011209
C28   C     C_R   0.498511 0.498888 0.953589 -0.011210
C29   C     C_R   0.571412 0.433544 0.086870 0.057927
C30   C     C_R   0.428585 0.566452 0.913130 0.057929
C31   C     C_R   0.362987 0.637063 0.059702 0.110808
C32   C     C_R   0.637012 0.362934 0.940298 0.110810
C33   C     C_3   0.288330 0.707534 0.118417 -0.904765
C34   C     C_R   0.639756 0.365365 0.034217 0.000611
C35   C     C_3   0.711670 0.292464 0.881583 -0.904769
C36   C     C_2   0.285312 0.703145 0.923207 0.370292
C37   C     C_2   0.714673 0.296842 0.076794 0.370294
C38   C     C_2   0.315598 0.195661 0.648897 0.397928
C39   C     C_2   0.684403 0.804339 0.351104 0.397929
C40   C     C_3   0.215827 0.627644 0.658234 -0.777396
C41   C     C_3   0.784173 0.372356 0.341766 -0.777389
C42   C     C_R   0.464769 0.189005 0.514985 -0.070978
C43   C     C_R   0.535231 0.810994 0.485015 -0.070978
C44   C     C_R   0.612763 0.968668 0.412062 -0.305198
C45   C     C_R   0.387237 0.031332 0.587937 -0.305199
C46   C     C_R   0.610938 0.860446 0.418463 -0.021894
H1    H     H_    0.614212 0.378781 0.214622 0.162137
H2    H     H_    0.330201 0.991396 0.638353 0.135735
H3    H     H_    0.186591 0.421770 0.403896 0.136784
H4    H     H_    0.813409 0.578230 0.596104 0.136784
H5    H     H_    0.340511 0.764311 0.155107 0.238771
H6    H     H_    0.232642 0.753310 0.081568 0.240735
H7    H     H_    0.233004 0.659401 0.167183 0.252135
H8    H     H_    0.659490 0.235694 0.844884 0.238768
H9    H     H_    0.767007 0.340595 0.832825 0.252142
H10   H     H_    0.767344 0.246677 0.918434 0.240734
H11   H     H_    0.292631 0.787076 0.933369 0.062493
H12   H     H_    0.385784 0.621216 0.785378 0.162130
H13   H     H_    0.707349 0.212913 0.066629 0.062495
H14   H     H_    0.241220 0.155224 0.680954 0.062615
H15   H     H_    0.758782 0.844775 0.319047 0.062615
H16   H     H_    0.165937 0.687719 0.694797 0.221092
H17   H     H_    0.230619 0.567681 0.707741 0.275868
H18   H     H_    0.294200 0.668449 0.631595 0.239774
H19   H     H_    0.834062 0.312281 0.305203 0.221096
H20   H     H_    0.705800 0.331551 0.368405 0.239775
H21   H     H_    0.769380 0.432318 0.292259 0.275865
H22   H     H_    0.002929 0.373749 0.350844 0.155621
H23   H     H_    0.997071 0.626251 0.649155 0.155621
H24   H     H_    0.389226 0.621475 0.235989 0.166535
H25   H     H_    0.610779 0.378528 0.764010 0.166537
H26   H     H_    0.594339 0.170605 0.407403 0.143618
H27   H     H_    0.405661 0.829395 0.592596 0.143617
H28   H     H_    0.669799 0.008604 0.361647 0.135737
N1    N     N_R   0.207800 0.519350 0.516680 -0.098129
N2    N     N_R   0.792200 0.480650 0.483320 -0.098130
O1    O     O_R   0.421700 0.658830 0.504450 -0.644048
O2    O     O_2   0.787315 0.334330 0.120869 -0.572857
O3    O     O_2   0.339476 0.284547 0.673155 -0.557709
O4    O     O_2   0.660523 0.715453 0.326844 -0.557711
O5    O     O_R   0.578300 0.341170 0.495550 -0.644048
O6    O     O_R   0.609310 0.646410 0.493750 -0.587422
O7    O     O_R   0.390690 0.353590 0.506250 -0.587421
O8    O     O_R   0.406180 0.506230 0.637500 -0.591232
O9    O     O_R   0.593820 0.493770 0.362500 -0.591233
O10   O     O_R   0.593800 0.493820 0.626800 -0.642522
O11   O     O_R   0.406200 0.506180 0.373200 -0.642522
O12   O     O_2   0.212670 0.665650 0.879135 -0.572851
Zn1   Zn    Zn3+2 0.374730 0.508290 0.507150 0.975140
Zn2   Zn    Zn3+2 0.625270 0.491710 0.492850 0.975139

loop_
_geom_bond_atom_site_label_1
_geom_bond_atom_site_label_2
_ccdc_geom_bond_type
C25   C31   A    
C26   C32   A    
C16   C21   S    
C27   C29   A    
C34   C37   S    
C1    O1    A    
C18   H1    S    
C41   H21   S    
C36   O12   D    
C33   H6    S    
C3    C43   A    
C8    H23   S    
C40   H17   S    
C17   O9    A    
C19   C21   A    
C24   C26   A    
C11   N2    A    
C5    C6    A    
C11   C14   A    
C38   O3    D    
C16   O8    A    
C17   C20   S    
C40   H16   S    
C10   C40   S    
C12   C42   S    
C7    H22   S    
C1    C43   S    
C13   N1    A    
C22   C25   A    
C31   C33   S    
C9    N2    A    
C7    C15   A    
C19   H12   S    
C6    C44   A    
C35   H8    S    
C16   O10   A    
O7    Zn1   S    
C44   C46   A    
C2    C45   A    
C33   H7    S    
C39   H15   S    
C35   H9    S    
C23   C30   A    
C4    C6    A    
C36   H11   S    
O10   Zn2   S    
C41   H19   S    
C1    O6    A    
C5    C45   A    
C29   C34   A    
C12   O7    A    
C23   C31   A    
C32   C35   S    
C10   N1    A    
C2    C38   S    
O1    Zn1   S    
C18   C29   A    
C44   H28   S    
C37   H13   S    
C39   C46   S    
C38   H14   S    
O5    Zn2   S    
C20   C22   A    
C13   C15   A    
C13   H3    S    
C33   H5    S    
O8    Zn1   S    
C4    H26   S    
C45   H2    S    
C7    C9    A    
C8    C14   A    
C35   H10   S    
C17   O11   A    
C26   C28   A    
C3    C5    A    
C40   H18   S    
O9    Zn2   S    
C41   H20   S    
C25   C27   A    
C37   O2    D    
C9    C41   S    
O6    Zn2   S    
C39   O4    D    
C28   C30   A    
C11   H4    S    
C4    C42   A    
C2    C42   A    
C12   O5    A    
C18   C20   A    
C3    H27   S    
C43   C46   A    
N1    Zn1   S    
C8    C10   A    
C23   C36   S    
C21   C24   A    
N2    Zn2   S    
C27   C28   A    
O11   Zn1   S    
C14   C15   A    
C19   C30   A    
C22   H24   S    
C24   H25   S    
C32   C34   A    
