data_mof_unit_60133.cif
_audit_creation_date              2012-12-10T16:44:40-0500
_audit_creation_method            fapswitch 2.2
_symmetry_space_group_name_H-M    P1
_symmetry_Int_Tables_number       1
_space_group_crystal_system       triclinic
_cell_length_a                    18.491697
_cell_length_b                    18.440695
_cell_length_c                    18.468307
_cell_angle_alpha                 120.055097
_cell_angle_beta                  119.696407
_cell_angle_gamma                 90.271261
_cell_volume                      4459.2330632

loop_
_atom_site_label
_atom_site_type_symbol
_atom_type_description
_atom_site_fract_x
_atom_site_fract_y
_atom_site_fract_z
_atom_type_partial_charge
C1    C     C_R   0.138239 0.361121 0.997957 0.768154
C2    C     C_R   0.727380 0.428176 0.197426 -0.259735
C3    C     C_R   0.812648 0.470898 0.235929 0.578649
C4    C     C_R   0.860162 0.637072 0.998814 0.860738
C5    C     C_R   0.851132 0.427672 0.183756 0.373840
C6    C     C_2   0.708646 0.763516 0.930728 0.596698
C7    C     C_2   0.706264 0.818339 0.011988 0.155165
C8    C     C_2   0.772967 0.716554 0.936688 -0.177660
C9    C     C_2   0.797219 0.684100 0.992597 -0.296125
C10   C     C_2   0.724303 0.281462 0.444278 -0.143132
C11   C     C_2   0.690766 0.192586 0.387763 -0.286786
C12   C     C_R   0.670789 0.071359 0.834689 -0.223616
C13   C     C_2   0.777794 0.337439 0.556671 -0.138920
C14   C     C_2   0.809164 0.304297 0.612130 -0.284835
C15   C     C_2   0.337435 0.283249 0.059975 0.489685
C16   C     C_R   0.138396 0.639253 0.276901 0.880570
C17   C     C_2   0.306879 0.194388 0.009599 -0.227959
C18   C     C_2   0.276908 0.334329 0.065243 -0.325624
C19   C     C_2   0.192568 0.304847 0.985894 0.303957
C20   C     C_2   0.218677 0.778168 0.940191 -0.220426
C21   C     C_2   0.306581 0.811400 0.007012 -0.393511
C22   C     C_2   0.162255 0.727838 0.944934 0.677467
C23   C     C_R   0.716597 0.159090 0.925364 0.001859
C24   C     C_2   0.194518 0.689806 0.994855 -0.436085
C25   C     C_2   0.219632 0.781956 0.555349 0.505238
C26   C     C_2   0.307192 0.797145 0.612323 0.333298
C27   C     C_2   0.163673 0.717677 0.443811 -0.175719
C28   C     C_R   0.861807 0.361254 0.722899 0.842606
C29   C     C_2   0.194532 0.701259 0.387172 -0.308827
C30   C     C_R   0.638240 0.138560 0.277070 0.856825
C31   C     C_R   0.361557 0.860725 0.722874 0.795369
C32   C     C_R   0.639974 0.862719 0.001210 0.791884
C33   C     C_R   0.361840 0.138885 0.001300 0.851214
C34   C     C_R   0.793959 0.208928 0.950995 -0.177452
C35   C     C_R   0.360586 0.861111 0.000812 0.902417
C36   C     C_R   0.635023 0.140677 0.994650 0.797331
C37   C     C_R   0.139426 0.639300 0.999487 0.897078
C38   C     C_R   0.868570 0.359811 0.008280 0.889315
C39   C     C_R   0.836886 0.162354 0.905565 0.573283
C40   C     C_R   0.793981 0.073340 0.821785 0.623964
C41   C     C_R   0.709195 0.029346 0.783350 -0.315636
C42   C     C_R   0.686903 0.198419 0.989613 -0.086170
C43   C     C_R   0.722984 0.292311 0.064181 -0.003177
C44   C     C_R   0.800725 0.341527 0.089760 -0.050833
C45   C     C_R   0.826551 0.302688 0.021949 -0.046167
C46   C     C_R   0.683154 0.339681 0.113244 -0.235910
F1    F     F_    0.857166 0.554635 0.323364 -0.640661
F2    F     F_    0.923128 0.199733 0.947834 -0.602756
F3    F     F_    0.075149 0.719566 0.894865 -0.611906
F4    F     F_    0.178661 0.825069 0.599948 -0.623857
F5    F     F_    0.347749 0.748747 0.570215 -0.659322
F6    F     F_    0.834515 0.029843 0.777180 -0.591373
F7    F     F_    0.651508 0.750557 0.839218 -0.634393
H1    H     H_    0.796998 0.704813 0.890037 0.205766
H2    H     H_    0.340900 0.805353 0.070140 0.163490
H3    H     H_    0.262783 0.692636 0.031488 0.124481
H4    H     H_    0.094267 0.686593 0.407492 0.211447
H5    H     H_    0.261906 0.736163 0.421077 0.217176
H6    H     H_    0.674094 0.961557 0.715460 0.218130
H7    H     H_    0.604036 0.035167 0.800594 0.209352
H8    H     H_    0.616308 0.310469 0.085166 0.219728
H9    H     H_    0.696301 0.462833 0.234904 0.205823
H10   H     H_    0.762378 0.883946 0.158892 0.362427
H11   H     H_    0.434759 0.391410 0.140983 0.336649
H12   H     H_    0.767871 0.689012 0.032562 0.210739
H13   H     H_    0.099236 0.218118 0.840989 0.364659
H14   H     H_    0.965483 0.523286 0.292478 0.378360
H15   H     H_    0.711454 0.315367 0.407352 0.190611
H16   H     H_    0.699788 0.156509 0.421396 0.158428
H17   H     H_    0.792526 0.408780 0.594566 0.194903
H18   H     H_    0.798417 0.234065 0.577683 0.160426
H19   H     H_    0.239030 0.160390 0.975515 0.182337
H20   H     H_    0.304130 0.399657 0.136240 0.152146
H21   H     H_    0.186137 0.789691 0.881106 0.225236
O1    O     O_3   1.000000 0.500000 0.000000 -0.522234
O2    O     O_R   0.325040 0.054120 0.939900 -0.627683
O3    O     O_R   0.444330 0.884140 0.060080 -0.641156
O4    O     O_R   0.054210 0.325030 0.939940 -0.598083
O5    O     O_R   0.615830 0.175840 0.060080 -0.644624
O6    O     O_R   0.324160 0.884140 0.939910 -0.630398
O7    O     O_R   0.615850 0.055700 0.939930 -0.641437
O8    O     O_R   0.614980 0.885710 0.939940 -0.573509
O9    O     O_R   0.445830 0.174930 0.060060 -0.585083
O10   O     O_R   0.614300 0.054120 0.229160 -0.640864
O11   O     O_R   0.325070 0.885060 0.770830 -0.598082
O12   O     O_R   0.054160 0.614240 0.229150 -0.620813
O13   O     O_R   0.885070 0.614240 0.060060 -0.634653
O14   O     O_R   0.174980 0.614900 0.229170 -0.630295
O15   O     O_R   0.885740 0.445830 0.770840 -0.635782
O16   O     O_R   0.175880 0.615810 0.060090 -0.654149
O17   O     O_R   0.884210 0.324110 0.939920 -0.602750
O18   O     O_R   0.055710 0.615810 0.939920 -0.565891
O19   O     O_R   0.884190 0.444260 0.060070 -0.614043
O20   O     O_3   0.770264 0.837872 0.107166 -0.788611
O21   O     O_3   0.425574 0.327112 0.109792 -0.736166
O22   O     O_3   0.159876 0.225837 0.891898 -0.752924
O23   O     O_R   0.885120 0.325030 0.770840 -0.640097
O24   O     O_3   0.939340 0.464240 0.226828 -0.734640
O25   O     O_R   0.175010 0.445830 0.060100 -0.654678
O26   O     O_R   0.885710 0.614900 0.939900 -0.630319
O27   O     O_3   0.500040 0.999960 0.000000 -0.521520
O28   O     O_R   0.614930 0.174930 0.229160 -0.635053
O29   O     O_R   0.445880 0.885710 0.770850 -0.599450
O30   O     O_R   0.614330 0.885060 0.060100 -0.652974
Zn1   Zn    Zn3+2 0.956610 0.542450 0.085830 1.023621
Zn2   Zn    Zn3+2 0.129220 0.543380 0.085850 0.995710
Zn3   Zn    Zn3+2 0.957530 0.543380 0.914160 1.022673
Zn4   Zn    Zn3+2 0.956640 0.370790 0.914170 1.044501
Zn5   Zn    Zn3+2 0.543440 0.957510 0.914170 1.040013
Zn6   Zn    Zn3+2 0.542510 0.956570 0.085840 0.987168
Zn7   Zn    Zn3+2 0.370820 0.956570 0.914150 1.036445
Zn8   Zn    Zn3+2 0.543410 0.129170 0.085830 0.997482

loop_
_geom_bond_atom_site_label_1
_geom_bond_atom_site_label_2
_ccdc_geom_bond_type
C28   O23   A    
C15   C18   S    
O1    Zn3   S    
C31   O11   A    
C27   C29   D    
C14   H18   S    
O28   Zn8   S    
C24   H3    S    
C1    O25   A    
C4    O13   A    
C2    C46   A    
O27   Zn8   S    
H10   O20   S    
C23   C42   A    
C37   O16   A    
C29   H5    S    
C15   O21   S    
C13   H17   S    
O27   Zn5   S    
C35   O6    A    
O6    Zn7   S    
O4    Zn4   S    
C18   C19   D    
C7    O20   S    
C25   F4    S    
C38   C45   S    
C33   O2    A    
H14   O24   S    
O19   Zn1   S    
O23   Zn4   S    
C36   C42   S    
C11   C30   S    
C8    C9    D    
C32   O30   A    
C28   O15   A    
O1    Zn4   S    
C13   C14   D    
C16   O12   A    
C1    O4    A    
O15   Zn3   S    
C17   C33   S    
C1    C19   S    
C46   H8    S    
C34   C39   A    
O8    Zn5   S    
O16   Zn2   S    
C17   H19   S    
C27   H4    S    
C8    H1    S    
C39   C40   A    
C21   H2    S    
C12   C23   A    
C3    C5    A    
O27   Zn6   S    
C40   F6    S    
C38   O17   A    
C35   O3    A    
O10   Zn6   S    
C31   O29   A    
C43   C44   A    
C12   C41   A    
O14   Zn2   S    
O18   Zn3   S    
O13   Zn1   S    
C36   O7    A    
C23   C34   A    
C30   O28   A    
C24   C37   S    
C20   H21   S    
C34   C45   A    
C20   C21   D    
C33   O9    A    
C41   H6    S    
C36   O5    A    
C22   F3    S    
O5    Zn8   S    
C40   C41   A    
C5    C44   A    
C20   C22   S    
O1    Zn1   S    
C18   H20   S    
C4    O26   A    
C22   C24   D    
O12   Zn1   S    
C25   C27   S    
C42   C43   A    
C6    F7    S    
C44   C45   A    
H13   O22   S    
C15   C17   D    
O25   Zn2   S    
O26   Zn3   S    
C7    C32   S    
C37   O18   A    
O17   Zn4   S    
H11   O21   S    
O7    Zn5   S    
O11   Zn7   S    
C10   C13   S    
C6    C8    S    
C11   H16   S    
C6    C7    D    
C21   C35   S    
C10   H15   S    
O27   Zn7   S    
C32   O8    A    
O29   Zn5   S    
C2    C3    A    
C25   C26   D    
C26   F5    S    
O30   Zn6   S    
O2    Zn7   S    
C38   O19   A    
C3    F1    S    
C30   O10   A    
O3    Zn6   S    
C43   C46   A    
C9    H12   S    
C10   C11   D    
C12   H7    S    
C26   C31   S    
C5    O24   S    
C16   C29   S    
O1    Zn2   S    
C16   O14   A    
O9    Zn8   S    
C14   C28   S    
C4    C9    S    
C19   O22   S    
C2    H9    S    
C39   F2    S    
