data_mof_unit_37826.cif
_audit_creation_date              2012-12-10T17:33:59-0500
_audit_creation_method            fapswitch 2.2
_symmetry_space_group_name_H-M    P1
_symmetry_Int_Tables_number       1
_space_group_crystal_system       triclinic
_cell_length_a                    10.850992
_cell_length_b                    12.067634
_cell_length_c                    12.861509
_cell_angle_alpha                 93.736976
_cell_angle_beta                  93.275178
_cell_angle_gamma                 86.013744
_cell_volume                      1674.17177455

loop_
_atom_site_label
_atom_site_type_symbol
_atom_type_description
_atom_site_fract_x
_atom_site_fract_y
_atom_site_fract_z
_atom_type_partial_charge
C1    C     C_R   0.483424 0.521927 0.698863 0.914524
C2    C     C_R   0.456446 0.447039 0.971543 0.003220
C3    C     C_R   0.469069 0.553685 0.023359 -0.109604
C4    C     C_R   0.742260 0.500599 0.502154 0.889852
C5    C     C_R   0.510113 0.560069 0.128526 -0.041274
C6    C     C_R   0.509410 0.358579 0.133735 -0.155343
C7    C     C_R   0.470151 0.349689 0.028151 0.450371
C8    C     C_R   0.387262 0.951428 0.393212 0.239971
C9    C     C_R   0.403240 0.834540 0.401916 0.483375
C10   C     C_R   0.541865 0.859287 0.549793 -0.016167
C11   C     C_R   0.543127 0.975702 0.536445 -0.088944
C12   C     C_3   0.122035 0.503365 0.508235 -0.288752
C13   C     C_R   0.461513 0.023195 0.458664 -0.041329
C14   C     C_R   0.455893 0.141377 0.450755 0.048478
C15   C     C_R   0.601202 0.162761 0.594548 0.105001
C16   C     C_R   0.509935 0.477938 0.299494 0.922039
C17   C     C_R   0.619925 0.046952 0.599658 -0.098828
C18   C     C_R   0.258332 0.500950 0.503146 0.913431
C19   C     C_3   0.939558 0.433812 0.602013 0.271131
C20   C     C_3   0.084422 0.449525 0.611590 -0.157314
C21   C     C_3   0.926265 0.446172 0.398990 0.190538
C22   C     C_3   0.920802 0.627623 0.523185 0.652713
C23   C     C_3   0.071083 0.434960 0.407785 0.145755
C24   C     C_3   0.879571 0.502044 0.506191 -0.171532
C25   C     C_1   0.915917 0.313282 0.586349 0.288963
C26   C     C_1   0.079288 0.673164 0.400210 0.220730
C27   C     C_1   0.882429 0.514606 0.310437 0.201049
C28   C     C_1   0.567955 0.659125 0.172748 0.286219
C29   C     C_1   0.561843 0.259845 0.182785 0.237233
C30   C     C_1   0.402097 0.756549 0.021289 0.199950
C31   C     C_1   0.381536 0.194159 0.369284 0.447297
C32   C     C_1   0.661870 0.233718 0.673192 0.247554
C33   C     C_1   0.725252 0.004785 0.663938 0.176915
C34   C     C_3   0.061689 0.628661 0.503392 -0.198111
C35   C     C_1   0.596987 0.811959 0.642750 0.321340
C36   C     C_1   0.117852 0.521094 0.705754 0.374677
C37   C     C_1   0.157161 0.343131 0.632671 0.230642
C38   C     C_1   0.120116 0.710847 0.579011 0.331329
C39   C     C_R   0.514867 0.464358 0.185856 -0.198238
C40   C     C_R   0.451922 0.535655 0.808012 -0.207673
C41   C     C_R   0.438845 0.650763 0.967808 -0.104753
C42   C     C_R   0.434622 0.641809 0.858414 0.381499
C43   C     C_R   0.439434 0.440517 0.862684 0.348720
H1    H     H_    0.106688 0.470085 0.338277 0.148884
H2    H     H_    0.866793 0.777318 0.480441 0.352278
H3    H     H_    0.811285 0.669318 0.636743 0.364379
H4    H     H_    0.431885 0.193492 0.031159 0.350985
H5    H     H_    0.417162 0.803087 0.841835 0.348644
H6    H     H_    0.488105 0.292967 0.811993 0.378568
H7    H     H_    0.796309 0.468414 0.690484 0.331099
H8    H     H_    0.228357 0.946648 0.315709 0.357261
H9    H     H_    0.329422 0.794610 0.265007 0.339601
H10   H     H_    0.907325 0.308829 0.309596 0.371466
H11   H     H_    0.077435 0.279444 0.448774 0.374690
N1    N     N_R   0.523380 0.207800 0.519350 -0.161844
N2    N     N_1   0.710732 0.287790 0.738551 -0.204656
N3    N     N_1   0.809864 0.972315 0.714885 -0.132589
N4    N     N_1   0.640412 0.776928 0.719172 -0.172364
N5    N     N_1   0.143526 0.575876 0.780056 -0.137383
N6    N     N_1   0.213149 0.260321 0.649216 -0.107013
N7    N     N_1   0.165453 0.775288 0.637133 -0.126828
N8    N     N_R   0.476620 0.792180 0.480650 -0.142258
N9    N     N_1   0.900672 0.219251 0.573476 -0.175899
N10   N     N_1   0.091558 0.707856 0.319893 -0.137610
N11   N     N_1   0.848578 0.567048 0.240921 -0.154318
N12   N     N_1   0.614235 0.737715 0.207955 -0.148524
N13   N     N_1   0.604913 0.180988 0.221126 -0.168268
N14   N     N_1   0.372456 0.841154 0.063282 -0.166521
N15   N     N_1   0.322562 0.235032 0.302479 -0.114952
O1    O     O_R   0.506240 0.421700 0.658830 -0.621755
O2    O     O_3   0.408965 0.732900 0.798704 -0.729492
O3    O     O_3   0.411724 0.342613 0.808306 -0.683217
O4    O     O_3   0.887252 0.472497 0.697183 -0.730962
O5    O     O_3   0.298230 0.995724 0.323840 -0.767601
O6    O     O_3   0.344568 0.760818 0.333022 -0.735445
O7    O     O_3   0.877347 0.341109 0.377454 -0.744483
O8    O     O_3   0.119906 0.323589 0.401717 -0.725780
O9    O     O_3   0.852074 0.699535 0.455150 -0.760956
O10   O     O_3   0.900758 0.667925 0.626986 -0.740220
O11   O     O_R   0.491240 0.609310 0.646410 -0.584907
O12   O     O_R   0.692710 0.406190 0.506230 -0.598204
O13   O     O_R   0.677700 0.593810 0.493810 -0.597497
O14   O     O_R   0.508760 0.390690 0.353590 -0.632622
O15   O     O_R   0.493760 0.578300 0.341170 -0.561671
O16   O     O_R   0.322300 0.406190 0.506190 -0.591264
O17   O     O_R   0.307290 0.593810 0.493770 -0.606706
O18   O     O_3   0.447169 0.247089 0.978961 -0.737033
Zn1   Zn    Zn3+2 0.510020 0.374730 0.508290 0.999521
Zn2   Zn    Zn3+2 0.489980 0.625270 0.491710 1.036812

loop_
_geom_bond_atom_site_label_1
_geom_bond_atom_site_label_2
_ccdc_geom_bond_type
C43   O3    S    
C41   C42   A    
C2    C7    A    
H8    O5    S    
C14   C31   S    
H9    O6    S    
O1    Zn1   S    
C15   C32   S    
C12   C23   S    
C8    C13   A    
O13   Zn2   S    
C35   N4    T    
C22   O10   S    
H3    O10   S    
C4    C24   S    
N8    Zn2   S    
C16   O15   A    
C25   N9    T    
N1    Zn1   S    
C26   N10   T    
C1    C40   S    
C29   N13   T    
C26   C34   S    
C40   C43   A    
C3    C41   A    
C4    O12   A    
C19   C20   S    
C8    C9    A    
H6    O3    S    
C30   C41   S    
C10   C35   S    
H11   O8    S    
C36   N5    T    
C40   C42   A    
O14   Zn1   S    
C21   C27   S    
C13   C14   A    
C10   N8    A    
C17   C33   S    
C22   C34   S    
C7    O18   S    
O11   Zn2   S    
C18   O16   A    
C9    N8    A    
C37   N6    T    
C19   O4    S    
C22   O9    S    
H7    O4    S    
C16   O14   A    
C23   H1    S    
C15   N1    A    
C28   N12   T    
C27   N11   T    
C5    C28   S    
C21   O7    S    
C2    C43   A    
C12   C20   S    
C8    O5    S    
C18   O17   A    
C23   O8    S    
H2    O9    S    
C21   C23   S    
C22   C24   S    
H10   O7    S    
O15   Zn2   S    
H5    O2    S    
C12   C34   S    
O16   Zn1   S    
C15   C17   A    
C11   C17   A    
C33   N3    T    
C34   C38   S    
C19   C24   S    
C3    C5    A    
O17   Zn2   S    
C6    C7    A    
C1    O1    A    
C38   N7    T    
C5    C39   A    
C2    C3    A    
C20   C37   S    
C11   C13   A    
C42   O2    S    
C14   N1    A    
C19   C25   S    
O12   Zn1   S    
C10   C11   A    
C16   C39   S    
C20   C36   S    
C31   N15   T    
C6    C29   S    
C4    O13   A    
C21   C24   S    
C12   C18   S    
C1    O11   A    
C6    C39   A    
C9    O6    S    
C32   N2    T    
C30   N14   T    
H4    O18   S    
