data_mof_unit_35052.cif
_audit_creation_date              2012-10-26T18:45:53-0400
_audit_creation_method            fapswitch 2.2
_symmetry_space_group_name_H-M    P1
_symmetry_Int_Tables_number       1
_space_group_crystal_system       triclinic
_cell_length_a                    17.748693
_cell_length_b                    16.573819
_cell_length_c                    15.074853
_cell_angle_alpha                 90.553347
_cell_angle_beta                  92.755572
_cell_angle_gamma                 90.179071
_cell_volume                      4429.11072797

loop_
_atom_site_label
_atom_site_type_symbol
_atom_type_description
_atom_site_fract_x
_atom_site_fract_y
_atom_site_fract_z
_atom_type_partial_charge
C1    C     C_R   0.355592 0.499847 0.503338 0.521609
C2    C     C_R   0.233084 0.426266 0.504689 -0.134683
C3    C     C_R   0.234113 0.571252 0.523946 -0.144966
C4    C     C_R   0.766522 0.426802 0.490227 -0.119503
C5    C     C_R   0.727439 0.499897 0.493914 -0.021446
C6    C     C_R   0.273009 0.499207 0.510461 -0.037737
C7    C     C_R   0.885454 0.499215 0.498376 0.037470
C8    C     C_R   0.115318 0.498612 0.513019 0.037132
C9    C     C_1   0.966577 0.498903 0.503975 -0.062288
C10   C     C_1   0.034195 0.498801 0.508580 -0.062637
C11   C     C_R   0.540859 0.830018 0.567567 -0.035087
C12   C     C_R   0.644524 0.500032 0.497603 0.530092
C13   C     C_R   0.475506 0.170313 0.423416 -0.039297
C14   C     C_R   0.463549 0.828725 0.429889 -0.036887
C15   C     C_R   0.527700 0.172001 0.575239 -0.036330
C16   C     C_R   0.540345 0.743490 0.565588 0.386929
C17   C     C_R   0.465361 0.255885 0.431034 0.377090
C18   C     C_R   0.458875 0.742599 0.435809 0.390552
C19   C     C_R   0.535717 0.257560 0.568360 0.389561
C20   C     C_R   0.503084 0.873383 0.498145 -0.049424
C21   C     C_R   0.502053 0.126834 0.499254 -0.055267
C22   C     C_1   0.502969 0.963082 0.498570 -0.040690
C23   C     C_R   0.403017 0.601278 0.039785 0.263761
C24   C     C_1   0.502640 0.037215 0.499096 -0.046076
C25   C     C_R   0.499700 0.499486 0.328676 0.580058
C26   C     C_R   0.502033 0.500553 0.671108 0.564851
C27   C     C_R   0.570332 0.469901 0.815804 -0.040402
C28   C     C_R   0.439380 0.532888 0.180824 -0.025269
C29   C     C_R   0.507260 0.502548 0.767680 0.009586
C30   C     C_R   0.499438 0.497882 0.231842 0.017970
C31   C     C_R   0.449776 0.542047 0.811077 0.249187
C32   C     C_R   0.559803 0.460702 0.190652 0.248143
C33   C     C_R   0.453850 0.548270 0.903629 -0.020504
C34   C     C_R   0.619750 0.417505 0.962376 0.256108
C35   C     C_R   0.561973 0.461627 0.097553 -0.026030
C36   C     C_R   0.509111 0.504788 0.953269 -0.054159
C37   C     C_R   0.506416 0.503896 0.046758 -0.052963
C38   C     C_R   0.567063 0.463086 0.909733 0.019166
C39   C     C_R   0.448666 0.546206 0.089383 0.039124
C40   C     C_R   0.404503 0.599267 0.946819 -0.105350
C41   C     C_R   0.619200 0.421357 0.054620 -0.092516
C42   C     C_3   0.642824 0.453548 0.767686 -0.198803
C43   C     C_3   0.706520 0.511569 0.799352 -0.292982
C44   C     C_3   0.778330 0.495645 0.750314 -0.462509
C45   C     C_R   0.846823 0.573758 0.498271 0.004249
C46   C     C_3   0.362804 0.544369 0.221304 -0.249408
C47   C     C_3   0.328262 0.464194 0.249385 -0.338589
C48   C     C_3   0.245553 0.474337 0.271169 -0.468289
C49   C     C_3   0.330843 0.525211 0.751490 -0.134527
C50   C     C_3   0.612271 0.345024 0.249056 -0.124894
C51   C     C_3   0.298141 0.685425 0.045564 -0.163999
C52   C     C_3   0.641238 0.289256 0.917617 -0.150008
C53   C     C_3   0.891822 0.652551 0.502265 -0.248971
C54   C     C_3   0.845389 0.730554 0.505533 -0.308764
C55   C     C_3   0.896378 0.804886 0.510280 -0.459760
C56   C     C_R   0.154003 0.424672 0.504340 0.001260
C57   C     C_3   0.109214 0.345985 0.494224 -0.250171
C58   C     C_3   0.155780 0.268887 0.482552 -0.309912
C59   C     C_3   0.105027 0.194605 0.472413 -0.458728
C60   C     C_3   0.111290 0.650582 0.537397 -0.251946
C61   C     C_3   0.159034 0.727682 0.550584 -0.307974
C62   C     C_3   0.109348 0.801465 0.563090 -0.459751
C63   C     C_3   0.889478 0.345881 0.491405 -0.248945
C64   C     C_3   0.841800 0.268244 0.489434 -0.309175
C65   C     C_3   0.891565 0.193396 0.488625 -0.458587
C66   C     C_3   0.581254 0.875111 0.644648 -0.233603
C67   C     C_R   0.155030 0.572413 0.524832 -0.002082
C68   C     C_3   0.536433 0.871500 0.728988 -0.279532
C69   C     C_3   0.582334 0.906030 0.808820 -0.467359
C70   C     C_3   0.459077 0.127209 0.334604 -0.235807
C71   C     C_3   0.505291 0.162763 0.260634 -0.294266
C72   C     C_3   0.498647 0.111208 0.176186 -0.471984
C73   C     C_3   0.426517 0.871516 0.350059 -0.236532
C74   C     C_3   0.466216 0.851676 0.264283 -0.275491
C75   C     C_3   0.422485 0.885146 0.183193 -0.447210
C76   C     C_3   0.544651 0.131420 0.664212 -0.238090
C77   C     C_3   0.492316 0.163187 0.734928 -0.287096
C78   C     C_R   0.845704 0.425043 0.493223 0.003617
C79   C     C_3   0.504707 0.118797 0.822574 -0.478066
C80   C     C_3   0.651832 0.698025 0.632781 -0.110764
C81   C     C_3   0.347830 0.274417 0.363475 -0.142171
C82   C     C_3   0.337410 0.709653 0.387607 -0.127516
C83   C     C_3   0.655023 0.285027 0.625954 -0.137409
C84   C     C_R   0.767627 0.572690 0.494846 -0.129557
Cu1   Cu    Cu3+1 0.500000 0.580420 0.500000 1.051368
Cu2   Cu    Cu3+1 0.500000 0.419580 0.500000 1.012982
H1    H     H_    0.369315 0.640041 0.907724 0.152875
H2    H     H_    0.688315 0.574774 0.787212 0.151414
H3    H     H_    0.685389 0.343303 0.623831 0.130313
H4    H     H_    0.719777 0.505415 0.871601 0.208756
H5    H     H_    0.660157 0.389934 0.774353 0.205892
H6    H     H_    0.634984 0.462183 0.695143 0.145380
H7    H     H_    0.239964 0.521348 0.323357 0.159932
H8    H     H_    0.211381 0.492049 0.210869 0.147434
H9    H     H_    0.222910 0.416526 0.295417 0.144227
H10   H     H_    0.331953 0.418545 0.195239 0.167376
H11   H     H_    0.359678 0.441858 0.309172 0.209036
H12   H     H_    0.369071 0.585256 0.278991 0.205337
H13   H     H_    0.663016 0.389308 0.092019 0.163257
H14   H     H_    0.320604 0.570984 0.174448 0.195573
H15   H     H_    0.284025 0.555697 0.713908 0.144543
H16   H     H_    0.309508 0.507352 0.816739 0.099156
H17   H     H_    0.346282 0.470718 0.712743 0.120134
H18   H     H_    0.669521 0.318551 0.256523 0.120494
H19   H     H_    0.583195 0.315477 0.190073 0.081956
H20   H     H_    0.582455 0.329430 0.309441 0.175076
H21   H     H_    0.264978 0.631340 0.022468 0.096319
H22   H     H_    0.304225 0.728751 0.990613 0.124022
H23   H     H_    0.265489 0.716198 0.096835 0.129766
H24   H     H_    0.736431 0.628279 0.493155 0.118651
H25   H     H_    0.587896 0.288733 0.875574 0.127646
H26   H     H_    0.631497 0.263299 0.983939 0.108120
H27   H     H_    0.681940 0.249729 0.884574 0.131882
H28   H     H_    0.933798 0.803676 0.571436 0.147099
H29   H     H_    0.931264 0.807218 0.451124 0.147143
H30   H     H_    0.861274 0.860171 0.511945 0.138292
H31   H     H_    0.807408 0.734853 0.444955 0.162444
H32   H     H_    0.811245 0.730512 0.565388 0.144506
H33   H     H_    0.930482 0.651462 0.562523 0.140718
H34   H     H_    0.926858 0.654647 0.443123 0.145882
H35   H     H_    0.264381 0.370958 0.500081 0.122913
H36   H     H_    0.071846 0.187120 0.532405 0.147823
H37   H     H_    0.066022 0.200317 0.412983 0.146324
H38   H     H_    0.140219 0.140025 0.464099 0.136934
H39   H     H_    0.188707 0.273767 0.421995 0.143850
H40   H     H_    0.194954 0.260404 0.541477 0.156174
H41   H     H_    0.075372 0.339001 0.553882 0.141996
H42   H     H_    0.069457 0.351351 0.435299 0.143853
H43   H     H_    0.071449 0.810410 0.503259 0.146932
H44   H     H_    0.074993 0.794021 0.622158 0.146000
H45   H     H_    0.145388 0.855973 0.573222 0.139885
H46   H     H_    0.266320 0.626133 0.534024 0.128151
H47   H     H_    0.197705 0.721843 0.610402 0.164304
H48   H     H_    0.192589 0.737518 0.491283 0.145293
H49   H     H_    0.072426 0.658816 0.478126 0.142819
H50   H     H_    0.076496 0.643571 0.596270 0.142477
H51   H     H_    0.925358 0.192641 0.428525 0.148401
H52   H     H_    0.929980 0.192328 0.548966 0.145898
H53   H     H_    0.855599 0.138427 0.487732 0.137798
H54   H     H_    0.807864 0.266197 0.549396 0.144639
H55   H     H_    0.803523 0.266688 0.428852 0.157528
H56   H     H_    0.924218 0.345869 0.431962 0.145854
H57   H     H_    0.734430 0.371475 0.485072 0.120958
H58   H     H_    0.928386 0.344269 0.551424 0.141115
H59   H     H_    0.632636 0.867912 0.823806 0.153918
H60   H     H_    0.601164 0.968485 0.795283 0.143850
H61   H     H_    0.547193 0.907119 0.867802 0.143568
H62   H     H_    0.483650 0.906878 0.718825 0.152442
H63   H     H_    0.520793 0.808266 0.743762 0.214185
H64   H     H_    0.638782 0.851214 0.657028 0.136130
H65   H     H_    0.591254 0.939250 0.628968 0.131002
H66   H     H_    0.522634 0.050332 0.188757 0.153707
H67   H     H_    0.438618 0.105295 0.152544 0.146876
H68   H     H_    0.823464 0.537821 0.775105 0.142676
H69   H     H_    0.530529 0.140224 0.123405 0.133537
H70   H     H_    0.484931 0.224194 0.243927 0.195335
H71   H     H_    0.565739 0.166704 0.283377 0.145052
H72   H     H_    0.473621 0.062578 0.338838 0.146781
H73   H     H_    0.398054 0.129401 0.315638 0.130217
H74   H     H_    0.366528 0.855086 0.174681 0.167365
H75   H     H_    0.414207 0.951173 0.190728 0.134970
H76   H     H_    0.454334 0.873601 0.122759 0.155753
H77   H     H_    0.523802 0.878465 0.268412 0.147472
H78   H     H_    0.471767 0.785451 0.255058 0.224562
H79   H     H_    0.797774 0.432752 0.761505 0.164646
H80   H     H_    0.365905 0.856377 0.342919 0.136621
H81   H     H_    0.426863 0.937705 0.358730 0.131028
H82   H     H_    0.487892 0.054522 0.814097 0.156759
H83   H     H_    0.564849 0.122663 0.846319 0.139407
H84   H     H_    0.469546 0.146642 0.873510 0.137167
H85   H     H_    0.502530 0.228490 0.747574 0.198368
H86   H     H_    0.432511 0.155163 0.710916 0.155572
H87   H     H_    0.536682 0.065253 0.659444 0.146279
H88   H     H_    0.604395 0.141106 0.686376 0.134904
H89   H     H_    0.674831 0.727684 0.573714 0.071516
H90   H     H_    0.768015 0.505287 0.678090 0.149752
H91   H     H_    0.678015 0.726163 0.693851 0.100920
H92   H     H_    0.669736 0.634116 0.634140 0.145090
H93   H     H_    0.332157 0.230747 0.415497 0.084857
H94   H     H_    0.331802 0.248808 0.296956 0.111255
H95   H     H_    0.313038 0.328656 0.371866 0.129154
H96   H     H_    0.324590 0.745733 0.447905 0.081684
H97   H     H_    0.309723 0.737515 0.327984 0.109499
H98   H     H_    0.310369 0.649898 0.392763 0.134225
H99   H     H_    0.669907 0.249169 0.566218 0.082249
H100  H     H_    0.677145 0.253943 0.686528 0.100564
N1    N     N_R   0.500000 0.701220 0.500000 -0.215789
N2    N     N_R   0.500000 0.298780 0.500000 -0.219548
O1    O     O_R   0.391260 0.567930 0.500000 -0.486820
O2    O     O_3   0.619729 0.429728 0.242137 -0.567415
O3    O     O_3   0.369663 0.665171 0.084063 -0.574002
O4    O     O_3   0.672265 0.367648 0.925579 -0.591142
O5    O     O_3   0.572525 0.701378 0.636625 -0.532807
O6    O     O_3   0.424739 0.297599 0.365894 -0.554183
O7    O     O_3   0.415183 0.699059 0.373770 -0.545901
O8    O     O_3   0.577091 0.300410 0.633032 -0.548813
O9    O     O_R   0.608740 0.432070 0.500000 -0.496828
O10   O     O_R   0.608740 0.567930 0.500000 -0.510288
O11   O     O_R   0.391260 0.432070 0.500000 -0.501261
O12   O     O_R   0.499990 0.567920 0.370260 -0.463023
O13   O     O_R   0.500010 0.432080 0.629740 -0.478631
O14   O     O_R   0.500010 0.567920 0.629740 -0.416664
O15   O     O_R   0.499990 0.432080 0.370260 -0.462898
O16   O     O_3   0.392060 0.579488 0.761959 -0.564600

loop_
_geom_bond_atom_site_label_1
_geom_bond_atom_site_label_2
_ccdc_geom_bond_type
C75   H74   S    
Cu1   N1    S    
C66   C68   S    
Cu2   N2    S    
C48   H9    S    
C26   C29   S    
C27   C29   A    
C69   H59   S    
C73   C74   S    
C14   C18   A    
C81   H95   S    
C73   H81   S    
C3    C6    A    
C8    C56   A    
C57   H42   S    
C23   O3    S    
C53   H34   S    
C61   H47   S    
C1    O11   A    
C53   C54   S    
C50   H18   S    
C80   O5    S    
C28   C46   S    
C48   H8    S    
C75   H76   S    
C43   H2    S    
C7    C45   A    
C79   H84   S    
C36   C37   A    
C35   C37   A    
C66   H64   S    
C49   H15   S    
C74   H77   S    
C23   C39   A    
C64   H55   S    
C52   H26   S    
C27   C38   A    
Cu1   O1    S    
C23   C40   A    
C82   H98   S    
C18   N1    A    
C25   C30   S    
C33   C36   A    
C56   C57   S    
C70   H73   S    
C52   O4    S    
C83   O8    S    
C62   H44   S    
C16   O5    S    
C81   O6    S    
C54   C55   S    
C60   C67   S    
C51   H22   S    
C72   H66   S    
C50   H19   S    
C12   O9    A    
C31   C33   A    
C83   H100  S    
C70   C71   S    
C68   H63   S    
C55   H30   S    
C79   H82   S    
C30   C32   A    
C9    C10   T    
C60   H50   S    
C68   H62   S    
C11   C66   S    
C77   H85   S    
Cu2   O11   S    
C44   H79   S    
C65   H51   S    
C59   H36   S    
C15   C76   S    
C46   H12   S    
C49   O16   S    
C45   C53   S    
C19   O8    S    
C51   H23   S    
C72   H69   S    
C69   H60   S    
C62   H43   S    
C17   O6    S    
C2    C6    A    
C34   C41   A    
C4    H57   S    
C81   H94   S    
C50   O2    S    
C61   H48   S    
C77   C79   S    
C59   H37   S    
C83   H3    S    
C11   C20   A    
C33   C40   A    
C74   C75   S    
C13   C21   A    
C3    H46   S    
C43   H4    S    
C32   C35   A    
C14   C20   A    
C26   O13   A    
C76   C77   S    
C81   H93   S    
C5    C12   S    
C48   H7    S    
C47   H10   S    
C49   H16   S    
C5    C84   A    
C68   C69   S    
C52   H25   S    
C58   C59   S    
Cu1   Cu2   S    
C82   H97   S    
C84   H24   S    
C1    C6    S    
C60   C61   S    
C70   H72   S    
C80   H92   S    
C15   C19   A    
C43   C44   S    
C14   C73   S    
C4    C78   A    
C19   N2    A    
C37   C39   A    
C11   C16   A    
Cu1   O12   S    
C47   C48   S    
Cu2   O13   S    
C15   C21   A    
C63   H58   S    
C41   H13   S    
C82   O7    S    
C32   O2    S    
C60   H49   S    
C31   O16   S    
Cu1   O14   S    
C58   H39   S    
C7    C78   A    
C65   H52   S    
C51   H21   S    
C20   C22   S    
C58   H40   S    
C54   H32   S    
C69   H61   S    
C22   C24   T    
C54   H31   S    
C45   C84   A    
C42   C43   S    
C51   O3    S    
C40   H1    S    
C64   H54   S    
C2    H35   S    
C59   H38   S    
C7    C9    S    
C46   H14   S    
C46   C47   S    
C76   H87   S    
C72   H67   S    
C49   H17   S    
C26   O14   A    
C18   O7    S    
C34   C38   A    
C62   H45   S    
C3    C67   A    
C44   H90   S    
C80   H89   S    
C73   H80   S    
C25   O15   A    
C16   N1    A    
C47   H11   S    
C57   H41   S    
C53   H33   S    
C55   H28   S    
C82   H96   S    
C28   C39   A    
C13   C17   A    
C75   H75   S    
C44   H68   S    
C64   C65   S    
C79   H83   S    
C36   C38   A    
C66   H65   S    
C29   C31   A    
C25   O12   A    
C2    C56   A    
C80   H91   S    
C74   H78   S    
C27   C42   S    
C57   C58   S    
C55   H29   S    
C77   H86   S    
C52   H27   S    
C71   H70   S    
C34   O4    S    
C63   H56   S    
C28   C30   A    
C42   H6    S    
C76   H88   S    
C61   C62   S    
C35   C41   A    
Cu2   O9    S    
C63   C64   S    
C65   H53   S    
Cu1   O10   S    
C4    C5    A    
C71   C72   S    
C8    C67   A    
C8    C10   S    
C13   C70   S    
C21   C24   S    
C50   H20   S    
C12   O10   A    
C83   H99   S    
C17   N2    A    
C71   H71   S    
Cu2   O15   S    
C42   H5    S    
C63   C78   S    
C1    O1    A    
