data_mof_unit_15715.cif
_audit_creation_date              2012-12-10T18:09:11-0500
_audit_creation_method            fapswitch 2.2
_symmetry_space_group_name_H-M    P1
_symmetry_Int_Tables_number       1
_space_group_crystal_system       triclinic
_cell_length_a                    12.678137
_cell_length_b                    13.038186
_cell_length_c                    13.633748
_cell_angle_alpha                 85.723494
_cell_angle_beta                  94.697822
_cell_angle_gamma                 93.878963
_cell_volume                      2235.53438118

loop_
_atom_site_label
_atom_site_type_symbol
_atom_type_description
_atom_site_fract_x
_atom_site_fract_y
_atom_site_fract_z
_atom_type_partial_charge
C1    C     C_R   0.556979 0.691550 0.494845 0.952054
C2    C     C_R   0.472265 0.042368 0.383871 -0.040327
C3    C     C_R   0.364342 0.015182 0.358269 -0.047560
C4    C     C_R   0.516661 0.495005 0.318084 0.864167
C5    C     C_R   0.333085 0.909942 0.348300 0.301359
C6    C     C_R   0.409711 0.834595 0.365725 0.377459
C7    C     C_R   0.500555 0.136278 0.429461 -0.085012
C8    C     C_R   0.323914 0.192357 0.375794 0.339319
C9    C     C_R   0.588733 0.796924 0.451800 -0.192936
C10   C     C_R   0.897845 0.437096 0.695046 -0.097845
C11   C     C_R   0.197064 0.586087 0.353977 0.536932
C12   C     C_1   0.523565 0.480722 0.217898 -0.137941
C13   C     C_R   0.098915 0.631839 0.329357 -0.309479
C14   C     C_R   0.029400 0.632355 0.404027 0.433739
C15   C     C_R   0.042647 0.562389 0.485592 -0.115712
C16   C     C_R   0.445989 0.309777 0.478140 0.860427
C17   C     C_R   0.147771 0.533675 0.514539 -0.009211
C18   C     C_R   0.955513 0.518407 0.539319 -0.045589
C19   C     C_R   0.979405 0.485324 0.639619 0.005914
C20   C     C_R   0.087448 0.488547 0.676139 0.256786
C21   C     C_R   0.164292 0.482660 0.607842 0.360935
C22   C     C_R   0.848591 0.500246 0.496062 0.140785
C23   C     C_R   0.292044 0.094022 0.344689 -0.027171
C24   C     C_R   0.801491 0.401672 0.643269 0.068371
C25   C     C_R   0.482817 0.503894 0.681951 0.888507
C26   C     C_1   0.471802 0.508476 0.783065 -0.190739
C27   C     C_2   0.458954 0.514585 0.971645 -0.143321
C28   C     C_2   0.525689 0.459570 0.030221 -0.188617
C29   C     C_1   0.526827 0.468646 0.132759 0.003387
C30   C     C_1   0.463336 0.512296 0.868785 -0.007235
C31   C     C_R   0.755050 0.297062 0.682856 0.117561
C32   C     C_R   0.649858 0.275091 0.708539 -0.091710
C33   C     C_R   0.622118 0.188554 0.770310 -0.186027
C34   C     C_R   0.423235 0.210350 0.430357 -0.238514
C35   C     C_R   0.698338 0.121150 0.807881 -0.096288
C36   C     C_R   0.801201 0.137051 0.779175 -0.121284
C37   C     C_R   0.827518 0.221024 0.713962 -0.150885
C38   C     C_R   0.913203 0.407020 0.803739 0.220319
C39   C     C_R   0.988603 0.336373 0.841925 -0.053286
C40   C     C_R   0.988208 0.294182 0.939037 -0.152832
C41   C     C_R   0.910749 0.318928 0.998577 -0.126028
C42   C     C_R   0.835040 0.387889 0.961840 -0.172941
C43   C     C_R   0.836841 0.432654 0.865530 -0.161348
C44   C     C_R   0.824511 0.514642 0.387684 0.173906
C45   C     C_R   0.697297 0.832614 0.457323 0.187268
C46   C     C_R   0.855707 0.441688 0.327153 -0.222189
C47   C     C_R   0.833449 0.453005 0.225123 -0.136429
C48   C     C_R   0.784460 0.539836 0.181827 -0.076343
C49   C     C_R   0.755464 0.614315 0.240968 -0.190760
C50   C     C_R   0.773771 0.600902 0.343358 0.008678
C51   C     C_R   0.060850 0.657419 0.224272 0.113222
C52   C     C_R   0.047291 0.759449 0.186173 -0.154187
C53   C     C_R   0.013890 0.780206 0.086760 -0.132431
C54   C     C_R   0.996657 0.700133 0.023718 -0.113822
C55   C     C_R   0.012509 0.599011 0.059989 -0.139502
C56   C     C_R   0.728962 0.920631 0.396273 0.370496
C57   C     C_R   0.043624 0.577558 0.159692 -0.122545
C58   C     C_R   0.188255 0.081412 0.286180 0.265888
C59   C     C_R   0.184964 0.058348 0.186857 -0.096884
C60   C     C_R   0.088728 0.055442 0.128929 -0.199402
C61   C     C_R   0.995228 0.075806 0.169433 -0.127216
C62   C     C_R   0.997854 0.099375 0.267937 -0.103389
C63   C     C_R   0.093752 0.101575 0.326447 -0.069720
C64   C     C_R   0.606425 0.145835 0.485586 0.163241
C65   C     C_R   0.689994 0.206955 0.444836 -0.033692
C66   C     C_R   0.795214 0.184146 0.471834 -0.107646
C67   C     C_R   0.652488 0.987527 0.356685 0.456612
C68   C     C_R   0.817602 0.100805 0.538801 -0.073383
C69   C     C_R   0.735429 0.044983 0.585093 -0.143860
C70   C     C_R   0.630561 0.069748 0.561394 -0.157947
C71   C     C_R   0.546507 0.966393 0.380352 -0.196217
C72   C     C_R   0.513523 0.863770 0.401974 -0.111486
H1    H     H_    0.580591 0.410925 0.001549 0.152561
H2    H     H_    0.044471 0.309670 0.795042 0.122466
H3    H     H_    0.045700 0.239371 0.966963 0.133896
H4    H     H_    0.908546 0.282995 0.072512 0.131752
H5    H     H_    0.773552 0.405068 0.007275 0.126787
H6    H     H_    0.775482 0.483458 0.837428 0.144012
H7    H     H_    0.899064 0.377200 0.358623 0.120421
H8    H     H_    0.857226 0.395813 0.179729 0.128187
H9    H     H_    0.769603 0.550053 0.102584 0.131650
H10   H     H_    0.717600 0.681763 0.207712 0.137683
H11   H     H_    0.750016 0.658535 0.387565 0.194522
H12   H     H_    0.404567 0.563837 0.000371 0.166157
H13   H     H_    0.242187 0.609099 0.219002 0.320679
H14   H     H_    0.954956 0.749833 0.344357 0.333291
H15   H     H_    0.061748 0.823209 0.232654 0.192512
H16   H     H_    0.001899 0.858529 0.058289 0.133369
H17   H     H_    0.971733 0.716520 0.946623 0.140797
H18   H     H_    0.000977 0.537261 0.010802 0.176253
H19   H     H_    0.055638 0.498578 0.186572 0.154819
H20   H     H_    0.230024 0.371117 0.688169 0.312465
H21   H     H_    0.301138 0.327872 0.316439 0.357586
H22   H     H_    0.215731 0.807758 0.356498 0.338782
H23   H     H_    0.340955 0.748831 0.268211 0.330176
H24   H     H_    0.257161 0.044431 0.154001 0.119528
H25   H     H_    0.086864 0.038603 0.052253 0.127022
H26   H     H_    0.920934 0.074286 0.124233 0.148169
H27   H     H_    0.925751 0.117148 0.298624 0.201787
H28   H     H_    0.094801 0.120888 0.402446 0.138015
H29   H     H_    0.673667 0.264737 0.385218 0.143356
H30   H     H_    0.859477 0.226872 0.437170 0.107827
H31   H     H_    0.898785 0.080869 0.556527 0.127424
H32   H     H_    0.752848 0.981104 0.637956 0.141444
H33   H     H_    0.567583 0.021365 0.593378 0.136986
H34   H     H_    0.586517 0.320790 0.683327 0.179604
H35   H     H_    0.830523 0.829321 0.538476 0.348740
H36   H     H_    0.618628 0.102647 0.263117 0.322491
H37   H     H_    0.875355 0.885814 0.394967 0.351476
H38   H     H_    0.541084 0.174388 0.789827 0.130346
H39   H     H_    0.677006 0.055153 0.856814 0.124486
H40   H     H_    0.860151 0.083048 0.805294 0.116712
H41   H     H_    0.907399 0.229313 0.690612 0.105327
H42   H     H_    0.195544 0.503460 0.784614 0.339431
N1    N     N_R   0.773270 0.445590 0.549770 -0.157532
N2    N     N_R   0.227520 0.553880 0.450750 -0.094289
O1    O     O_R   0.631100 0.627590 0.523760 -0.567744
O2    O     O_3   0.117181 0.493277 0.775432 -0.786389
O3    O     O_3   0.258767 0.565900 0.280217 -0.724177
O4    O     O_3   0.953624 0.703084 0.404352 -0.772141
O5    O     O_3   0.238940 0.410123 0.623769 -0.721089
O6    O     O_3   0.257476 0.270759 0.348206 -0.749495
O7    O     O_3   0.227176 0.880480 0.331453 -0.807110
O8    O     O_3   0.769624 0.780832 0.520652 -0.731808
O9    O     O_3   0.682946 0.070291 0.293848 -0.756861
O10   O     O_3   0.833034 0.946171 0.377397 -0.766030
O11   O     O_R   0.455900 0.662370 0.491970 -0.574594
O12   O     O_R   0.600200 0.480080 0.377830 -0.648237
O13   O     O_R   0.425000 0.514870 0.346040 -0.512418
O14   O     O_R   0.544100 0.337630 0.508030 -0.650873
O15   O     O_R   0.368900 0.372410 0.476240 -0.515217
O16   O     O_R   0.575000 0.485130 0.653960 -0.639597
O17   O     O_R   0.399800 0.519920 0.622170 -0.552377
O18   O     O_3   0.391179 0.739983 0.327355 -0.740228
Zn1   Zn    Zn3+2 0.616980 0.476780 0.521230 0.945668
Zn2   Zn    Zn3+2 0.383020 0.523220 0.478770 1.063098

loop_
_geom_bond_atom_site_label_1
_geom_bond_atom_site_label_2
_ccdc_geom_bond_type
C23   C58   S    
C66   C68   A    
C9    C45   A    
C12   C29   T    
C15   C18   A    
C41   C42   A    
C66   H30   S    
C3    C23   A    
C35   C36   A    
C68   H31   S    
C65   H29   S    
C11   O3    S    
C20   O2    S    
C35   H39   S    
C53   C54   A    
C43   H6    S    
C6    C72   A    
C62   C63   A    
H35   O8    S    
C28   C29   S    
C55   H18   S    
C67   O9    S    
C46   H7    S    
C37   H41   S    
C8    C23   A    
C48   H9    S    
C18   C19   A    
C46   C47   A    
C39   H2    S    
H13   O3    S    
C16   O15   A    
C2    C7    A    
C16   C34   S    
C13   C51   S    
C22   C44   S    
O14   Zn1   S    
C45   C56   A    
C68   C69   A    
C36   H40   S    
O17   Zn2   S    
C9    C72   A    
C51   C57   A    
C64   C70   A    
H36   O9    S    
C4    C12   S    
C16   O14   A    
H22   O7    S    
C59   C60   A    
C32   H34   S    
C13   C14   A    
C27   C30   S    
C61   C62   A    
C47   H8    S    
C28   H1    S    
C44   C46   A    
C50   H11   S    
C52   H15   S    
C45   O8    S    
C38   C39   A    
C4    O12   A    
C51   C52   A    
C1    C9    S    
O11   Zn2   S    
C54   H17   S    
O15   Zn2   S    
O12   Zn1   S    
C39   C40   A    
C40   C41   A    
C1    O1    A    
C10   C24   A    
C25   C26   S    
H23   O18   S    
C17   C21   A    
C31   C37   A    
C60   C61   A    
C49   H10   S    
C63   H28   S    
O13   Zn2   S    
C47   C48   A    
C10   C19   A    
C8    C34   A    
H21   O6    S    
C11   N2    A    
H42   O2    S    
C24   N1    A    
C22   N1    A    
C60   H25   S    
C56   O10   S    
C55   C57   A    
C7    C34   A    
C59   H24   S    
C2    C71   A    
O1    Zn1   S    
C25   O17   A    
C52   C53   A    
C69   H32   S    
C44   C50   A    
C58   C63   A    
C15   C17   A    
C54   C55   A    
C27   H12   S    
C57   H19   S    
C18   C22   A    
C31   C32   A    
C1    O11   A    
C3    C5    A    
C70   H33   S    
C26   C30   T    
C4    O13   A    
N2    Zn2   S    
C56   C67   A    
C5    O7    S    
C14   O4    S    
C40   H3    S    
C10   C38   S    
C64   C65   A    
C19   C20   A    
C2    C3    A    
C58   C59   A    
C24   C31   S    
C38   C43   A    
C6    O18   S    
H20   O5    S    
C32   C33   A    
C41   H4    S    
C11   C13   A    
C61   H26   S    
C8    O6    S    
C5    C6    A    
N1    Zn1   S    
O16   Zn1   S    
C48   C49   A    
C33   C35   A    
C53   H16   S    
C67   C71   A    
C65   C66   A    
C21   O5    S    
C69   C70   A    
C7    C64   S    
C62   H27   S    
H37   O10   S    
C71   C72   A    
C20   C21   A    
C42   H5    S    
C36   C37   A    
C49   C50   A    
C42   C43   A    
C27   C28   D    
C14   C15   A    
H14   O4    S    
C33   H38   S    
C25   O16   A    
C17   N2    A    
