data_mof_unit_52863.cif
_audit_creation_date              2012-12-10T18:09:52-0500
_audit_creation_method            fapswitch 2.2
_symmetry_space_group_name_H-M    P1
_symmetry_Int_Tables_number       1
_space_group_crystal_system       triclinic
_cell_length_a                    10.622555
_cell_length_b                    12.602725
_cell_length_c                    13.087567
_cell_angle_alpha                 82.146912
_cell_angle_beta                  90.578153
_cell_angle_gamma                 102.518376
_cell_volume                      1694.03455083

loop_
_atom_site_label
_atom_site_type_symbol
_atom_type_description
_atom_site_fract_x
_atom_site_fract_y
_atom_site_fract_z
_atom_type_partial_charge
C1    C     C_R   0.482895 0.438572 0.691256 0.849670
C2    C     C_R   0.479071 0.448515 0.973309 0.084464
C3    C     C_R   0.439033 0.462758 0.870694 0.023942
C4    C     C_R   0.741928 0.500579 0.500652 0.827045
C5    C     C_R   0.467759 0.528772 0.036016 0.012296
C6    C     C_R   0.397706 0.610977 0.001891 0.067919
C7    C     C_R   0.342697 0.614533 0.903938 0.428210
C8    C     C_R   0.363330 0.540059 0.839448 -0.315466
C9    C     C_R   0.524485 0.529071 0.132349 -0.225342
C10   C     C_R   0.429760 0.678422 0.167331 -0.233206
C11   C     C_R   0.475684 0.398922 0.801055 -0.080913
C12   C     C_3   0.121375 0.500252 0.500898 0.181318
C13   C     C_R   0.321984 0.088618 0.345668 -0.307593
C14   C     C_R   0.651332 0.798942 0.631076 0.002438
C15   C     C_R   0.683175 0.903460 0.659511 -0.263195
C16   C     C_R   0.512005 0.561151 0.308709 0.856719
C17   C     C_R   0.626987 0.985588 0.609126 -0.208632
C18   C     C_R   0.538111 0.963119 0.529574 0.017002
C19   C     C_R   0.509182 0.855151 0.503483 0.238352
C20   C     C_R   0.475571 0.042468 0.476133 -0.014820
C21   C     C_R   0.385885 0.012201 0.398196 0.203096
C22   C     C_R   0.360431 0.905915 0.373585 -0.311611
C23   C     C_3   0.066069 0.481923 0.393312 -0.403375
C24   C     C_R   0.421566 0.828803 0.425425 -0.236653
C25   C     C_R   0.496970 0.151015 0.497331 -0.056579
C26   C     C_R   0.347353 0.194393 0.370507 0.008537
C27   C     C_R   0.258026 0.499601 0.500378 0.811923
C28   C     C_3   0.905059 0.408738 0.583939 -0.403630
C29   C     C_3   0.049459 0.408019 0.583695 -0.397036
C30   C     C_3   0.921814 0.482919 0.393383 -0.397366
C31   C     C_3   0.957755 0.613240 0.526650 -0.390979
C32   C     C_3   0.878812 0.501556 0.501216 0.180218
C33   C     C_3   0.305825 0.761093 0.792154 0.071680
C34   C     C_3   0.100534 0.612641 0.526349 -0.386054
C35   C     C_3   0.210028 0.835335 0.767986 -0.337417
C36   C     C_3   0.253832 0.921604 0.674584 -0.946383
C37   C     C_R   0.382010 0.686862 0.067693 -0.164547
C38   C     C_R   0.497528 0.596789 0.200128 -0.043328
C39   C     C_R   0.525822 0.306897 0.837040 -0.200253
C40   C     C_R   0.547589 0.282683 0.941458 -0.152990
C41   C     C_R   0.527729 0.353930 0.009081 -0.169072
H1    H     H_    0.848956 0.327417 0.568037 0.175926
H2    H     H_    0.585283 0.211091 0.969493 0.140297
H3    H     H_    0.874298 0.421266 0.661679 0.158657
H4    H     H_    0.315958 0.540126 0.765805 0.159344
H5    H     H_    0.299355 0.254977 0.330558 0.133721
H6    H     H_    0.292499 0.882010 0.314109 0.150446
H7    H     H_    0.253350 0.066754 0.286131 0.143147
H8    H     H_    0.563322 0.181851 0.554535 0.120406
H9    H     H_    0.694569 0.734655 0.669935 0.138666
H10   H     H_    0.654610 0.065118 0.634341 0.131368
H11   H     H_    0.751045 0.920769 0.720483 0.149294
H12   H     H_    0.151392 0.680851 0.468046 0.178127
H13   H     H_    0.397941 0.748755 0.403067 0.211602
H14   H     H_    0.089286 0.420409 0.661268 0.157987
H15   H     H_    0.062394 0.326518 0.567565 0.181587
H16   H     H_    0.865939 0.403443 0.372921 0.182102
H17   H     H_    0.079266 0.401923 0.373224 0.178470
H18   H     H_    0.940370 0.681599 0.468567 0.181264
H19   H     H_    0.928439 0.628633 0.603852 0.174677
H20   H     H_    0.140149 0.628251 0.603363 0.180477
H21   H     H_    0.317559 0.722229 0.722442 0.152991
H22   H     H_    0.400585 0.811998 0.810919 0.144914
H23   H     H_    0.903342 0.549139 0.333418 0.156286
H24   H     H_    0.114269 0.784550 0.752197 0.225191
H25   H     H_    0.199484 0.877108 0.835929 0.224169
H26   H     H_    0.348708 0.974318 0.689021 0.268877
H27   H     H_    0.182446 0.974241 0.659789 0.263833
H28   H     H_    0.261145 0.881242 0.605258 0.272139
H29   H     H_    0.117997 0.547601 0.333250 0.157550
H30   H     H_    0.407283 0.731054 0.220069 0.143861
H31   H     H_    0.328562 0.749843 0.043939 0.172712
H32   H     H_    0.585140 0.472969 0.159386 0.137507
H33   H     H_    0.552669 0.256226 0.784037 0.143717
H34   H     H_    0.547798 0.331234 0.089055 0.131142
N1    N     N_R   0.433240 0.222190 0.444680 -0.100170
N2    N     N_R   0.566070 0.776970 0.554790 -0.130711
O1    O     O_R   0.468120 0.366740 0.627160 -0.613420
O2    O     O_R   0.510770 0.544830 0.662520 -0.617113
O3    O     O_R   0.663880 0.410950 0.482330 -0.626692
O4    O     O_R   0.706530 0.589040 0.517700 -0.624119
O5    O     O_R   0.489230 0.455170 0.337480 -0.610492
O6    O     O_R   0.531880 0.633260 0.372840 -0.627491
O7    O     O_R   0.293470 0.410960 0.482300 -0.618983
O8    O     O_R   0.336120 0.589050 0.517670 -0.654286
O9    O     O_3   0.256598 0.681547 0.877111 -0.655678
Zn1   Zn    Zn3+2 0.471520 0.381090 0.476390 0.927895
Zn2   Zn    Zn3+2 0.528480 0.618910 0.523610 0.910417

loop_
_geom_bond_atom_site_label_1
_geom_bond_atom_site_label_2
_ccdc_geom_bond_type
O1    Zn1   S    
C23   H17   S    
C30   H23   S    
C12   C29   S    
C35   C36   S    
C1    C11   S    
O7    Zn1   S    
C17   H10   S    
C36   H26   S    
C7    C8    A    
C12   C23   S    
C10   C37   A    
C28   C29   S    
C4    O3    A    
O3    Zn1   S    
C2    C3    A    
C5    C6    A    
C39   H33   S    
C7    O9    S    
C20   C25   A    
C35   H24   S    
C2    C41   A    
C24   H13   S    
O5    Zn1   S    
C30   H16   S    
C27   O8    A    
C18   C19   A    
C14   N2    A    
C31   H18   S    
C19   N2    A    
C8    H4    S    
C40   H2    S    
C4    O4    A    
N2    Zn2   S    
C33   H21   S    
C26   N1    A    
C10   H30   S    
O6    Zn2   S    
C21   C22   A    
C1    O1    A    
C23   H29   S    
C9    H32   S    
O2    Zn2   S    
C6    C37   A    
C12   C27   S    
C23   C30   S    
C28   C32   S    
C3    C8    A    
C39   C40   A    
C29   H14   S    
C35   H25   S    
C28   H3    S    
C16   O6    A    
C31   H19   S    
C33   O9    S    
C5    C9    A    
C41   H34   S    
C31   C32   S    
C33   H22   S    
C16   O5    A    
C17   C18   A    
C31   C34   S    
C13   C21   A    
C15   H11   S    
C11   C39   A    
N1    Zn1   S    
C4    C32   S    
C40   C41   A    
C1    O2    A    
C22   C24   A    
C13   C26   A    
C2    C5    A    
C12   C34   S    
C36   H28   S    
O8    Zn2   S    
C15   C17   A    
C27   O7    A    
C13   H7    S    
C36   H27   S    
C6    C7    A    
C29   H15   S    
C10   C38   A    
C25   N1    A    
C19   C24   A    
C30   C32   S    
C14   H9    S    
C28   H1    S    
C9    C38   A    
C33   C35   S    
C22   H6    S    
C18   C20   A    
C34   H20   S    
C25   H8    S    
O4    Zn2   S    
C3    C11   A    
C26   H5    S    
C20   C21   A    
C34   H12   S    
C37   H31   S    
C14   C15   A    
C16   C38   S    
