data_mof_unit_8020.cif
_audit_creation_date              2012-12-11T15:34:51-0500
_audit_creation_method            fapswitch 2.2
_symmetry_space_group_name_H-M    P1
_symmetry_Int_Tables_number       1
_space_group_crystal_system       triclinic
_cell_length_a                    30.530191
_cell_length_b                    7.252575
_cell_length_c                    25.998899
_cell_angle_alpha                 89.990982
_cell_angle_beta                  112.015886
_cell_angle_gamma                 89.988647
_cell_volume                      5336.95911028

loop_
_atom_site_label
_atom_site_type_symbol
_atom_type_description
_atom_site_fract_x
_atom_site_fract_y
_atom_site_fract_z
_atom_type_partial_charge
O1    O     O_R   0.295360 0.592990 0.320420 -0.535273
O2    O     O_R   0.704640 0.407010 0.679580 -0.530075
O3    O     O_R   0.204640 0.092990 0.179580 -0.535250
O4    O     O_R   0.795360 0.907010 0.820420 -0.530044
O5    O     O_R   0.294060 0.265620 0.213230 -0.549347
O6    O     O_R   0.705940 0.734380 0.786770 -0.513505
O7    O     O_R   0.205940 0.765620 0.286770 -0.549338
O8    O     O_R   0.794060 0.234380 0.713230 -0.513508
C1    C     C_R   0.303833 0.432385 0.198918 0.732736
C2    C     C_R   0.696156 0.567940 0.800988 0.735364
C3    C     C_R   0.196165 0.932391 0.301079 0.732612
C4    C     C_R   0.803845 0.067935 0.699013 0.735255
O9    O     O_R   0.300850 0.263360 0.322080 -0.532394
O10   O     O_R   0.699150 0.736640 0.677920 -0.537900
O11   O     O_R   0.199150 0.763360 0.177920 -0.532342
O12   O     O_R   0.800850 0.236640 0.822080 -0.537858
O13   O     O_R   0.211480 0.091820 0.289210 -0.509961
O14   O     O_R   0.788520 0.908180 0.710790 -0.546510
O15   O     O_R   0.288520 0.591820 0.210790 -0.509975
O16   O     O_R   0.711480 0.408180 0.789210 -0.546514
C5    C     C_R   0.313272 0.431443 0.343156 0.706283
C6    C     C_R   0.686780 0.568548 0.656818 0.702618
C7    C     C_R   0.186731 0.931512 0.156849 0.706333
C8    C     C_R   0.813216 0.068481 0.843177 0.702641
O17   O     O_3   0.220670 0.426670 0.239090 -0.374536
O18   O     O_3   0.779330 0.573330 0.760910 -0.375991
O19   O     O_3   0.279330 0.926670 0.260910 -0.374599
O20   O     O_3   0.720670 0.073330 0.739090 -0.376036
V1    V     V_3+5 0.255440 0.152290 0.252020 1.448590
V2    V     V_3+5 0.744560 0.847710 0.747980 1.447790
V3    V     V_3+5 0.244560 0.652290 0.247980 1.448616
V4    V     V_3+5 0.755440 0.347710 0.752020 1.447780
C9    C     C_R   0.850023 0.063091 0.899475 -0.064248
C10   C     C_R   0.149856 0.936742 0.100573 -0.066447
C11   C     C_R   0.649963 0.563519 0.600515 -0.064480
C12   C     C_R   0.350156 0.436302 0.399438 -0.066733
C13   C     C_R   0.872610 0.118858 0.998013 0.196227
C14   C     C_R   0.127158 0.879539 0.002089 0.195982
C15   C     C_R   0.627187 0.623197 0.502135 0.196151
C16   C     C_R   0.373050 0.375036 0.497754 0.195904
C17   C     C_R   0.838128 0.111728 0.944407 -0.212287
C18   C     C_R   0.161653 0.887009 0.055663 -0.210648
C19   C     C_R   0.661725 0.614798 0.555686 -0.212153
C20   C     C_R   0.338499 0.383777 0.444236 -0.210574
C21   C     C_R   0.897140 0.021344 0.907990 -0.218067
C22   C     C_R   0.102755 0.978911 0.092065 -0.219120
C23   C     C_R   0.602912 0.520339 0.591941 -0.218138
C24   C     C_R   0.397186 0.480010 0.408011 -0.219189
C25   C     C_R   0.933533 0.029867 0.961871 0.040905
C26   C     C_R   0.066315 0.969742 0.038216 0.041094
C27   C     C_R   0.566455 0.530192 0.538121 0.040848
C28   C     C_R   0.433694 0.469452 0.461795 0.041035
C29   C     C_R   0.920299 0.079261 0.007015 0.132429
C30   C     C_R   0.079505 0.919688 0.993087 0.132760
C31   C     C_R   0.579561 0.582319 0.493089 0.132457
C32   C     C_R   0.420635 0.416573 0.506806 0.132791
C33   C     C_R   0.982501 0.993132 0.972385 0.073067
C34   C     C_R   0.017341 0.006407 0.027710 0.072998
C35   C     C_R   0.517536 0.492317 0.527574 0.073079
C36   C     C_R   0.482617 0.507267 0.472334 0.073005
C37   C     C_R   0.002019 0.055182 0.070744 -0.205433
C38   C     C_R   0.997802 0.943957 0.929366 -0.205430
C39   C     C_R   0.497816 0.558762 0.429413 -0.205427
C40   C     C_R   0.502361 0.440378 0.570477 -0.205409
C41   C     C_R   0.954835 0.090214 0.060586 -0.158591
C42   C     C_R   0.044962 0.908539 0.939532 -0.158398
C43   C     C_R   0.544953 0.594819 0.439597 -0.158557
C44   C     C_R   0.455251 0.403873 0.560282 -0.158363
H1    H     H_    0.945598 0.127371 0.095604 0.177986
H2    H     H_    0.054173 0.870907 0.904531 0.178205
H3    H     H_    0.554093 0.634089 0.404667 0.177922
H4    H     H_    0.446139 0.364067 0.595191 0.178136
H5    H     H_    0.095868 0.014348 0.128541 0.105276
H6    H     H_    0.904072 0.986802 0.871482 0.104570
H7    H     H_    0.403982 0.517449 0.371616 0.105502
H8    H     H_    0.596066 0.483926 0.628376 0.104763
H9    H     H_    0.197918 0.852888 0.062245 0.119816
H10   H     H_    0.801800 0.145277 0.937805 0.119514
H11   H     H_    0.302301 0.348329 0.437600 0.120088
H12   H     H_    0.697991 0.649556 0.562336 0.119612
H13   H     H_    0.025698 0.068075 0.113335 0.133052
H14   H     H_    0.974116 0.930690 0.886792 0.133043
H15   H     H_    0.474071 0.573084 0.386895 0.132980
H16   H     H_    0.526115 0.425649 0.612976 0.132968
C45   C     C_R   0.092592 0.940914 0.481434 0.621581
C46   C     C_R   0.906038 0.994729 0.518358 0.619152
C47   C     C_R   0.407415 0.441126 0.018571 0.621599
C48   C     C_R   0.593975 0.494587 0.981660 0.619157
N1    N     N_R   0.073160 0.944083 0.424498 -0.537409
N2    N     N_R   0.925645 0.003469 0.575236 -0.537645
N3    N     N_R   0.426844 0.444113 0.075505 -0.537400
N4    N     N_R   0.574373 0.503525 0.924786 -0.537645
C49   C     C_R   0.025083 0.950924 0.396713 0.582748
C50   C     C_R   0.973694 0.993786 0.602998 0.582224
C51   C     C_R   0.474919 0.450772 0.103290 0.582746
C52   C     C_R   0.526325 0.494045 0.897024 0.582234
C53   C     C_R   0.994655 0.958137 0.426200 -0.031915
C54   C     C_R   0.003978 0.977060 0.573551 -0.031853
C55   C     C_R   0.505350 0.457984 0.073806 -0.031931
C56   C     C_R   0.496038 0.477321 0.926467 -0.031874
C57   C     C_R   0.014217 0.960056 0.484626 -0.014092
C58   C     C_R   0.984369 0.972375 0.515145 -0.013860
C59   C     C_R   0.485791 0.460105 0.015383 -0.014075
C60   C     C_R   0.515643 0.472431 0.984869 -0.013841
C61   C     C_R   0.063577 0.950744 0.512606 -0.037625
C62   C     C_R   0.934998 0.980927 0.487183 -0.037014
C63   C     C_R   0.436433 0.450981 0.987403 -0.037637
C64   C     C_R   0.565013 0.480782 0.012831 -0.037030
C65   C     C_R   0.945289 0.965712 0.398742 -0.135746
C66   C     C_R   0.053303 0.966605 0.601030 -0.135152
C67   C     C_R   0.554714 0.465362 0.101264 -0.135747
C68   C     C_R   0.446714 0.467062 0.898987 -0.135160
C69   C     C_R   0.915827 0.976409 0.428856 -0.138030
C70   C     C_R   0.082722 0.953046 0.570940 -0.137850
C71   C     C_R   0.584179 0.476061 0.071153 -0.138043
C72   C     C_R   0.417292 0.453489 0.929073 -0.137872
O21   O     O_2   0.139878 0.928551 0.507850 -0.522328
O22   O     O_2   0.858652 0.999000 0.492006 -0.523069
O23   O     O_2   0.360130 0.428913 0.992152 -0.522359
O24   O     O_2   0.641360 0.498661 0.008012 -0.523074
O25   O     O_2   0.006758 0.953203 0.340750 -0.522078
O26   O     O_2   0.992193 0.002281 0.658905 -0.521629
O27   O     O_2   0.493242 0.452874 0.159251 -0.522061
O28   O     O_2   0.507830 0.502735 0.841121 -0.521608
H17   H     H_    0.929232 0.964028 0.353865 0.171163
H18   H     H_    0.069377 0.969396 0.645901 0.171386
H19   H     H_    0.570768 0.463517 0.146138 0.171172
H20   H     H_    0.430643 0.470014 0.854120 0.171394
H21   H     H_    0.877990 0.982568 0.406235 0.170295
H22   H     H_    0.120547 0.945913 0.593570 0.170608
H23   H     H_    0.622015 0.482062 0.093775 0.170299
H24   H     H_    0.379468 0.446508 0.906443 0.170610
C73   C     C_R   0.891217 0.879752 0.639980 -0.167846
C74   C     C_R   0.105254 0.791747 0.361342 -0.162988
C75   C     C_R   0.608788 0.379847 0.860027 -0.167836
C76   C     C_R   0.394756 0.291723 0.138666 -0.162945
H25   H     H_    0.910958 0.753589 0.642934 0.139179
H26   H     H_    0.083088 0.673411 0.359418 0.144769
H27   H     H_    0.589040 0.253736 0.857067 0.139188
H28   H     H_    0.416929 0.173363 0.140595 0.144817
C77   C     C_R   0.861855 0.896387 0.669941 -0.276153
C78   C     C_R   0.135052 0.789710 0.331615 -0.278073
C79   C     C_R   0.638143 0.396472 0.830059 -0.276136
C80   C     C_R   0.364958 0.289675 0.168392 -0.278082
H29   H     H_    0.859907 0.781902 0.695742 0.155219
H30   H     H_    0.134818 0.669072 0.306987 0.152715
H31   H     H_    0.640082 0.282030 0.804247 0.155201
H32   H     H_    0.365199 0.169008 0.193024 0.152721
C81   C     C_R   0.835632 0.058158 0.667199 -0.066918
C82   C     C_R   0.164412 0.940938 0.333108 -0.068853
C83   C     C_R   0.664374 0.558179 0.832809 -0.066865
C84   C     C_R   0.335585 0.440926 0.166888 -0.068910
C85   C     C_R   0.839587 0.205547 0.633298 0.114302
C86   C     C_R   0.163195 0.096809 0.365664 0.117299
C87   C     C_R   0.660438 0.705505 0.866730 0.114319
C88   C     C_R   0.336784 0.596820 0.134317 0.117366
C89   C     C_R   0.869797 0.188278 0.603221 0.185814
C90   C     C_R   0.132489 0.098574 0.395321 0.183047
C91   C     C_R   0.630236 0.688246 0.896817 0.185803
C92   C     C_R   0.367496 0.598610 0.104669 0.183045
C93   C     C_R   0.895304 0.024071 0.606317 0.374892
C94   C     C_R   0.103836 0.944793 0.393473 0.374183
C95   C     C_R   0.604715 0.524110 0.893706 0.374902
C96   C     C_R   0.396166 0.444810 0.106529 0.374121
N5    N     N_3   0.812033 0.369674 0.628295 -0.652884
H33   H     H_    0.834849 0.482503 0.640853 0.226029
H34   H     H_    0.790018 0.387354 0.586707 0.224767
N6    N     N_3   0.193873 0.250633 0.369715 -0.651284
H35   H     H_    0.173336 0.368925 0.355543 0.226145
H36   H     H_    0.215666 0.269421 0.411317 0.217625
N7    N     N_3   0.688013 0.869535 0.871751 -0.652988
H37   H     H_    0.665218 0.982483 0.859261 0.226064
H38   H     H_    0.710058 0.886957 0.913329 0.224655
N8    N     N_3   0.306072 0.750624 0.130230 -0.651253
H39   H     H_    0.326581 0.868959 0.144378 0.226094
H40   H     H_    0.284274 0.769365 0.088621 0.217627
N9    N     N_3   0.875248 0.336776 0.569676 -0.641001
H41   H     H_    0.887959 0.452164 0.594908 0.221113
H42   H     H_    0.842226 0.368561 0.539506 0.250271
N10   N     N_3   0.129715 0.256336 0.427228 -0.643000
H43   H     H_    0.119661 0.370584 0.400918 0.221872
H44   H     H_    0.163091 0.281194 0.457625 0.250204
N11   N     N_3   0.624808 0.836677 0.930388 -0.640979
H45   H     H_    0.612091 0.952148 0.905171 0.221126
H46   H     H_    0.657839 0.868333 0.960546 0.250245
N12   N     N_3   0.370257 0.756411 0.072754 -0.642977
H47   H     H_    0.380286 0.870646 0.099055 0.221851
H48   H     H_    0.336881 0.781280 0.042344 0.250207
N13   N     N_3   0.859039 0.168802 0.043320 -0.675852
H49   H     H_    0.833556 0.074699 0.044702 0.241156
H50   H     H_    0.843301 0.299187 0.035050 0.241262
N14   N     N_3   0.140677 0.828575 0.956823 -0.676337
H51   H     H_    0.166202 0.922251 0.955315 0.241151
H52   H     H_    0.156356 0.698108 0.965240 0.240289
N15   N     N_3   0.640628 0.675911 0.456943 -0.675864
H53   H     H_    0.666213 0.582876 0.455214 0.241256
H54   H     H_    0.656203 0.806488 0.465608 0.241181
N16   N     N_3   0.359666 0.321164 0.542897 -0.676336
H55   H     H_    0.334025 0.413681 0.544759 0.241162
H56   H     H_    0.344171 0.190475 0.534071 0.240259

loop_
_geom_bond_atom_site_label_1
_geom_bond_atom_site_label_2
_ccdc_geom_bond_type
O17   V3    S    
C55   C59   A    
N7    H37   S    
C25   C29   A    
C1    C84   S    
O1    C5    A    
N5    H33   S    
C54   C66   A    
C47   N3    A    
O19   V1    S    
O13   V1    S    
C78   H30   S    
O3    C7    A    
C10   C18   A    
C92   N12   S    
C80   H32   S    
O15   V3    S    
C77   C81   A    
C33   C38   A    
C5    C12   S    
C71   H23   S    
C73   H25   S    
C6    C11   S    
N7    H38   S    
C88   N8    S    
C35   C40   A    
C26   C30   A    
C69   H21   S    
C36   C39   A    
C92   C96   A    
C64   C71   A    
O9    V1    S    
C49   O25   S    
C23   H8    S    
C14   C18   A    
N11   H46   S    
C76   C96   A    
C48   C64   A    
C51   C55   A    
C44   H4    S    
C50   C54   A    
C60   C64   A    
O1    V3    S    
C9    C21   A    
O2    V4    S    
C89   C93   A    
O3    V1    S    
C90   N10   S    
N8    H39   S    
C40   H16   S    
C3    C82   S    
C81   C85   A    
C28   C36   A    
C76   H28   S    
C1    O15   A    
C56   C60   A    
C15   C31   A    
C48   N4    A    
C2    O16   A    
C16   C32   A    
C72   H24   S    
O2    C6    A    
C58   C62   A    
N16   H55   S    
C10   C22   A    
C83   C87   A    
C48   O24   S    
C11   C19   A    
C66   C70   A    
C16   C20   A    
C43   H3    S    
C77   H29   S    
C13   C29   A    
C34   C37   A    
N6    H36   S    
C38   H14   S    
C11   C23   A    
C35   C36   A    
O12   C8    A    
C13   C17   A    
C70   H22   S    
C24   H7    S    
C86   N6    S    
N5    H34   S    
C46   C62   A    
O10   V2    S    
C45   C61   A    
N10   H44   S    
N2    C50   A    
O5    V1    S    
N4    C52   A    
C57   C61   A    
C39   C43   A    
O7    V3    S    
C13   N13   S    
C38   C42   A    
C62   C69   A    
C87   C91   A    
O8    V4    S    
C57   C58   A    
C84   C88   A    
C61   C70   A    
C88   C92   A    
C46   N2    A    
C17   H10   S    
C45   N1    A    
O18   V4    S    
C15   C19   A    
N2    C93   S    
N9    H42   S    
C19   H12   S    
C32   C44   A    
C15   N15   S    
N1    C49   A    
O4    V2    S    
C74   C94   A    
C39   H15   S    
C21   H6    S    
C26   C34   A    
C37   H13   S    
C79   H31   S    
N11   H45   S    
C47   O23   S    
C23   C27   A    
C2    C83   S    
C74   C78   A    
C53   C65   A    
C49   C53   A    
O7    C3    A    
C14   C30   A    
C21   C25   A    
O8    C4    A    
C7    C10   S    
C55   C67   A    
O9    C5    A    
C46   O22   S    
C89   N9    S    
C45   O21   S    
C66   H18   S    
O14   V2    S    
C50   O26   S    
C52   O28   S    
C65   H17   S    
N6    H35   S    
O6    V2    S    
C56   C68   A    
C14   N14   S    
C67   H19   S    
C91   C95   A    
N3    C96   S    
C12   C20   A    
C27   C35   A    
N12   H48   S    
C40   C44   A    
N1    C94   S    
C68   C72   A    
C29   C41   A    
N10   H43   S    
N4    C95   S    
O16   V4    S    
C51   O27   S    
C3    O13   A    
C79   C83   A    
C85   N5    S    
C75   C95   A    
C4    C81   S    
C20   H11   S    
O5    C1    A    
N16   H56   S    
C73   C93   A    
C74   H26   S    
C25   C33   A    
C31   C43   A    
O11   V3    S    
C30   C42   A    
C65   C69   A    
O12   V4    S    
C22   C26   A    
C73   C77   A    
C8    C9    S    
C75   H27   S    
C9    C17   A    
N14   H51   S    
C78   C82   A    
O20   V2    S    
C80   C84   A    
C54   C58   A    
C67   C71   A    
O10   C6    A    
C33   C34   A    
C42   H2    S    
C16   N16   S    
O4    C8    A    
C41   H1    S    
C52   C56   A    
O11   C7    A    
C75   C79   A    
C12   C24   A    
C27   C31   A    
C37   C41   A    
C85   C89   A    
N13   H49   S    
N8    H40   S    
C63   C72   A    
C68   H20   S    
O6    C2    A    
C90   C94   A    
N3    C51   A    
N15   H53   S    
C87   N7    S    
C24   C28   A    
C47   C63   A    
C18   H9    S    
C76   C80   A    
N9    H41   S    
C82   C86   A    
C4    O14   A    
C59   C60   A    
C86   C90   A    
C59   C63   A    
C91   N11   S    
N12   H47   S    
C22   H5    S    
C53   C57   A    
C28   C32   A    
N14   H52   S    
N13   H50   S    
N15   H54   S    
