data_mof_unit_10019.cif
_audit_creation_date              2012-12-10T18:46:17-0500
_audit_creation_method            fapswitch 2.2
_symmetry_space_group_name_H-M    P1
_symmetry_Int_Tables_number       1
_space_group_crystal_system       triclinic
_cell_length_a                    9.876739
_cell_length_b                    10.640574
_cell_length_c                    13.128187
_cell_angle_alpha                 90.715886
_cell_angle_beta                  69.962755
_cell_angle_gamma                 90.526673
_cell_volume                      1296.06419068

loop_
_atom_site_label
_atom_site_type_symbol
_atom_type_description
_atom_site_fract_x
_atom_site_fract_y
_atom_site_fract_z
_atom_type_partial_charge
C1    C     C_R   0.498500 0.739744 0.504484 0.839641
C2    C     C_R   0.470625 0.548295 0.966310 0.065499
C3    C     C_R   0.471904 0.478467 0.873980 0.072228
C4    C     C_R   0.569883 0.513720 0.016809 0.086399
C5    C     C_R   0.689709 0.436667 0.961931 0.199655
C6    C     C_R   0.695000 0.375491 0.866557 -0.224578
C7    C     C_R   0.580671 0.387565 0.828874 -0.168349
C8    C     C_R   0.538459 0.534873 0.126771 -0.273572
C9    C     C_R   0.764689 0.442026 0.118789 -0.183857
C10   C     C_R   0.370151 0.505819 0.823888 -0.232911
C11   C     C_R   0.618826 0.934812 0.442083 -0.175779
C12   C     C_R   0.419515 0.496428 0.704834 0.841933
C13   C     C_R   0.619559 0.063307 0.438714 -0.184998
C14   C     C_R   0.497688 0.128025 0.502285 -0.056750
C15   C     C_R   0.376232 0.067219 0.571760 -0.163026
C16   C     C_R   0.375420 0.937610 0.578766 -0.036320
C17   C     C_R   0.497131 0.872491 0.510284 -0.106447
C18   C     C_R   0.960791 0.429274 0.426380 -0.095964
C19   C     C_R   0.104350 0.429318 0.426430 -0.066868
C20   C     C_R   0.040652 0.569794 0.573897 -0.054292
C21   C     C_R   0.896644 0.571013 0.574751 0.049800
C22   C     C_R   0.499596 0.260224 0.499677 0.865424
C23   C     C_R   0.580309 0.500591 0.295843 0.879551
C24   C     C_R   0.792283 0.409526 0.010429 -0.163231
C25   C     C_R   0.632407 0.496949 0.178393 -0.061834
C26   C     C_R   0.247791 0.578469 0.880623 -0.065599
C27   C     C_R   0.253392 0.654468 0.966742 -0.161932
C28   C     C_R   0.372093 0.650763 0.001974 0.058931
H1    H     H_    0.839155 0.412952 0.158200 0.146205
H2    H     H_    0.713454 0.112121 0.385342 0.143614
H3    H     H_    0.285313 0.121486 0.622871 0.179032
H4    H     H_    0.932843 0.372730 0.367358 0.128990
H5    H     H_    0.184684 0.372620 0.367378 0.137808
H6    H     H_    0.072048 0.626159 0.631377 0.174594
H7    H     H_    0.780652 0.309936 0.826613 0.150880
H8    H     H_    0.887292 0.354901 0.967646 0.126773
H9    H     H_    0.432012 0.565723 0.175426 0.161373
H10   H     H_    0.169204 0.722891 0.001955 0.184907
H11   H     H_    0.579795 0.327212 0.762052 0.164881
H12   H     H_    0.711845 0.883833 0.389910 0.155816
N1    N     N_R   0.142790 0.500030 0.500030 -0.104182
N2    N     N_R   0.857180 0.499940 0.500010 -0.122640
O1    O     O_R   0.385370 0.683250 0.500010 -0.620924
O2    O     O_R   0.614700 0.683220 0.500010 -0.640160
O3    O     O_R   0.328400 0.499990 0.653620 -0.638415
O4    O     O_R   0.557730 0.499960 0.653620 -0.623911
O5    O     O_R   0.385300 0.316780 0.499990 -0.613467
O6    O     O_R   0.614630 0.316750 0.499990 -0.616520
O7    O     O_R   0.442270 0.500040 0.346380 -0.615267
O8    O     O_R   0.671600 0.500010 0.346380 -0.614606
Zn1   Zn    Zn3+2 0.346870 0.500020 0.500000 0.937139
Zn2   Zn    Zn3+2 0.653130 0.499980 0.500000 0.930360
C29   C     C_2   0.251956 0.873331 0.660686 0.419773
H13   H     H_    0.260408 0.776351 0.681920 0.080041
O9    O     O_2   0.139460 0.928785 0.706869 -0.541018
C30   C     C_2   0.792934 0.652096 0.657060 0.411955
H14   H     H_    0.696686 0.686049 0.646399 0.123470
O10   O     O_2   0.815448 0.684245 0.739512 -0.563781
C31   C     C_2   0.117806 0.581426 0.848197 0.406200
H15   H     H_    0.097902 0.507124 0.797805 0.085897
O11   O     O_2   0.028751 0.664959 0.880142 -0.526342
C32   C     C_3   0.400808 0.767907 0.060147 -0.461897
C33   C     C_3   0.546419 0.828730 0.996190 -0.258404
C34   C     C_3   0.569921 0.951068 0.049974 -0.863919
H16   H     H_    0.484415 0.019854 0.053611 0.256120
H17   H     H_    0.568826 0.932906 0.133414 0.261544
H18   H     H_    0.676024 0.992353 0.002109 0.267167
H19   H     H_    0.636075 0.763949 0.990982 0.264702
H20   H     H_    0.550159 0.849071 0.912373 0.236363
H21   H     H_    0.315905 0.839120 0.068063 0.204602
H22   H     H_    0.393874 0.750507 0.144455 0.202494

loop_
_geom_bond_atom_site_label_1
_geom_bond_atom_site_label_2
_ccdc_geom_bond_type
C21   C30   S    
C22   O6    A    
C9    C24   A    
C15   H3    S    
C32   C33   S    
C13   C14   A    
O5    Zn1   S    
C26   C31   S    
C1    O2    A    
C1    C17   S    
O8    Zn2   S    
C14   C15   A    
C9    H1    S    
C4    C8    A    
C20   H6    S    
C34   H16   S    
C10   C26   A    
C29   O9    D    
C2    C3    A    
C9    C25   A    
C31   H15   S    
C3    C10   A    
C29   H13   S    
C20   C21   A    
C8    C25   A    
C11   C13   A    
O2    Zn2   S    
C26   C27   A    
C24   H8    S    
C5    C24   A    
C10   C12   S    
O1    Zn1   S    
C5    C6    A    
C2    C4    A    
C28   C32   S    
C12   O4    A    
N1    Zn1   S    
C30   O10   D    
C32   H22   S    
C20   N1    A    
C6    C7    A    
C3    C7    A    
C18   N2    A    
C33   H20   S    
C11   H12   S    
C22   O5    A    
C23   O7    A    
C18   H4    S    
C8    H9    S    
O3    Zn1   S    
C27   H10   S    
C33   C34   S    
C34   H18   S    
O4    Zn2   S    
C13   H2    S    
O6    Zn2   S    
C23   C25   S    
C6    H7    S    
C32   H21   S    
C14   C22   S    
C18   C19   A    
C19   H5    S    
C31   O11   D    
C27   C28   A    
C30   H14   S    
C7    H11   S    
C33   H19   S    
C16   C17   A    
C23   O8    A    
C2    C28   A    
C21   N2    A    
C16   C29   S    
C4    C5    A    
C1    O1    A    
C15   C16   A    
C11   C17   A    
C19   N1    A    
N2    Zn2   S    
C12   O3    A    
O7    Zn1   S    
C34   H17   S    
