data_mof_unit_42722.cif
_audit_creation_date              2012-12-11T15:07:35-0500
_audit_creation_method            fapswitch 2.2
_symmetry_space_group_name_H-M    P1
_symmetry_Int_Tables_number       1
_space_group_crystal_system       triclinic
_cell_length_a                    21.612549
_cell_length_b                    7.209451
_cell_length_c                    18.617473
_cell_angle_alpha                 90.044904
_cell_angle_beta                  95.978774
_cell_angle_gamma                 90.130897
_cell_volume                      2885.08614136

loop_
_atom_site_label
_atom_site_type_symbol
_atom_type_description
_atom_site_fract_x
_atom_site_fract_y
_atom_site_fract_z
_atom_type_partial_charge
O1    O     O_R   0.449650 0.506500 0.414480 -0.532595
O2    O     O_R   0.550350 0.006500 0.585520 -0.531924
O3    O     O_R   0.432010 0.173150 0.560250 -0.539394
O4    O     O_R   0.567990 0.673150 0.439750 -0.539473
C1    C     C_R   0.415599 0.344555 0.580357 0.683468
C2    C     C_R   0.583863 0.844772 0.418938 0.683389
O5    O     O_R   0.442320 0.176650 0.413480 -0.534284
O6    O     O_R   0.557680 0.676650 0.586520 -0.533471
O7    O     O_R   0.560730 0.008380 0.437700 -0.538304
O8    O     O_R   0.439270 0.508380 0.562300 -0.537552
C3    C     C_R   0.428407 0.344890 0.387644 0.674225
C4    C     C_R   0.571529 0.845350 0.612363 0.677335
O9    O     O_3   0.538840 0.339860 0.508120 -0.371583
O10   O     O_3   0.461160 0.839860 0.491880 -0.372976
V1    V     V_3+5 0.492800 0.064220 0.498490 1.414990
V2    V     V_3+5 0.507200 0.564220 0.501510 1.414975
C5    C     C_R   0.873131 0.957677 0.688046 -0.193931
C6    C     C_R   0.128441 0.486833 0.311019 -0.194229
H1    H     H_    0.791356 0.944625 0.571841 0.125846
H2    H     H_    0.210906 0.487243 0.426712 0.125978
H3    H     H_    0.892732 0.974781 0.637162 0.111385
H4    H     H_    0.109587 0.517717 0.361414 0.111504
C7    C     C_R   0.887458 0.940727 0.818764 -0.049711
C8    C     C_R   0.112680 0.443410 0.181234 -0.051361
C9    C     C_R   0.585537 0.830000 0.745040 -0.160972
C10   C     C_R   0.413355 0.310803 0.255520 -0.159641
C11   C     C_R   0.621569 0.833457 0.811381 -0.122842
C12   C     C_R   0.376914 0.306408 0.189461 -0.123118
C13   C     C_R   0.685761 0.859344 0.815224 -0.157803
C14   C     C_R   0.313137 0.339503 0.185418 -0.157611
C15   C     C_R   0.716028 0.882788 0.752005 0.089139
C16   C     C_R   0.283736 0.378818 0.248122 0.089516
C17   C     C_R   0.678504 0.879854 0.683773 0.066197
C18   C     C_R   0.321764 0.385201 0.316002 0.066637
C19   C     C_R   0.782146 0.908708 0.754230 0.077163
C20   C     C_R   0.217981 0.411516 0.245724 0.076973
C21   C     C_R   0.808762 0.931263 0.688195 0.103699
C22   C     C_R   0.192313 0.451548 0.311155 0.103690
C23   C     C_R   0.771114 0.927638 0.622323 -0.186758
C24   C     C_R   0.230440 0.457037 0.376679 -0.186590
C25   C     C_R   0.707171 0.902345 0.620026 -0.190722
C26   C     C_R   0.293964 0.424071 0.379205 -0.191859
C27   C     C_R   0.822989 0.913320 0.819393 -0.275653
C28   C     C_R   0.176634 0.406845 0.180931 -0.274073
C29   C     C_R   0.912639 0.963490 0.752740 0.199617
C30   C     C_R   0.088495 0.483963 0.246632 0.206786
C31   C     C_R   0.612954 0.853251 0.680895 -0.078953
C32   C     C_R   0.386867 0.350428 0.319132 -0.079090
H5    H     H_    0.806315 0.897176 0.871599 0.105086
H6    H     H_    0.192620 0.377913 0.129165 0.105423
H7    H     H_    0.535753 0.809034 0.743689 0.103421
H8    H     H_    0.462722 0.282621 0.257093 0.101269
H9    H     H_    0.710310 0.860056 0.868604 0.108888
H10   H     H_    0.288202 0.332977 0.132301 0.107720
H11   H     H_    0.599498 0.815506 0.860527 0.118363
H12   H     H_    0.398298 0.275968 0.140732 0.117946
H13   H     H_    0.680271 0.900494 0.567595 0.109474
H14   H     H_    0.321238 0.429648 0.431366 0.109775
C33   C     C_R   0.637130 0.018088 0.325924 -0.194453
C34   C     C_R   0.354813 0.210121 0.676440 -0.202024
C35   C     C_R   0.632971 0.857925 0.368648 -0.079908
C36   C     C_R   0.365160 0.356077 0.628915 -0.078104
C37   C     C_R   0.676070 0.713831 0.363172 -0.226181
C38   C     C_R   0.328295 0.517014 0.629609 -0.221376
C39   C     C_R   0.723104 0.730259 0.316618 0.097467
C40   C     C_R   0.282092 0.533103 0.677047 0.101469
C41   C     C_R   0.726555 0.891321 0.273877 0.047886
C42   C     C_R   0.272881 0.387533 0.725484 0.050842
C43   C     C_R   0.683217 0.035108 0.278489 0.053776
C44   C     C_R   0.309473 0.225834 0.725199 0.056824
C45   C     C_R   0.766981 0.588722 0.312258 -0.188585
C46   C     C_R   0.245133 0.692895 0.677128 -0.208898
C47   C     C_R   0.813539 0.605692 0.265792 -0.140254
C48   C     C_R   0.199620 0.709077 0.724972 -0.157917
C49   C     C_R   0.816864 0.763994 0.222428 0.106463
C50   C     C_R   0.190494 0.566500 0.774110 0.104481
C51   C     C_R   0.773361 0.908359 0.226512 -0.002543
C52   C     C_R   0.227197 0.404234 0.774344 -0.005551
C53   C     C_R   0.776540 0.068963 0.183220 0.077218
C54   C     C_R   0.218275 0.259168 0.823308 0.073630
C55   C     C_R   0.732075 0.211365 0.187258 0.199001
C56   C     C_R   0.255982 0.098687 0.823790 0.190680
C57   C     C_R   0.686280 0.193618 0.235376 -0.238946
C58   C     C_R   0.300849 0.083356 0.774379 -0.231387
C59   C     C_R   0.862886 0.779504 0.174941 -0.180435
C60   C     C_R   0.145160 0.583524 0.822710 -0.173210
C61   C     C_R   0.866985 0.938520 0.131759 -0.102989
C62   C     C_R   0.134877 0.438804 0.870648 -0.105622
C63   C     C_R   0.824009 0.083026 0.136765 -0.213249
C64   C     C_R   0.171634 0.277642 0.870461 -0.200019
H15   H     H_    0.603925 0.129634 0.328876 0.126900
H16   H     H_    0.383160 0.086167 0.676838 0.124849
H17   H     H_    0.673688 0.590255 0.395915 0.130961
H18   H     H_    0.335355 0.629974 0.592899 0.130275
H19   H     H_    0.765183 0.464351 0.344630 0.130875
H20   H     H_    0.251583 0.805998 0.640311 0.133128
H21   H     H_    0.846627 0.493761 0.263199 0.129760
H22   H     H_    0.171823 0.834148 0.723923 0.142021
H23   H     H_    0.896004 0.667643 0.172169 0.146024
H24   H     H_    0.116911 0.707734 0.822043 0.147321
H25   H     H_    0.827245 0.205155 0.103529 0.160700
H26   H     H_    0.163768 0.166597 0.907604 0.161982
H27   H     H_    0.652584 0.303611 0.238783 0.126625
H28   H     H_    0.329440 0.959957 0.774646 0.131096
O11   O     O_R   0.060820 0.290050 0.937800 -0.539826
O12   O     O_R   0.939180 0.790050 0.062200 -0.535036
O13   O     O_R   0.057690 0.616620 0.086540 -0.527721
O14   O     O_R   0.942310 0.116620 0.913460 -0.541824
C65   C     C_R   0.071497 0.448983 0.112569 0.721383
C66   C     C_R   0.928556 0.948520 0.887429 0.725190
O15   O     O_R   0.068010 0.619890 0.939770 -0.535457
O16   O     O_R   0.931990 0.119890 0.060230 -0.543463
O17   O     O_R   0.949640 0.787940 0.914460 -0.530348
O18   O     O_R   0.050360 0.287940 0.085540 -0.539614
C67   C     C_R   0.084545 0.451100 0.919319 0.693582
C68   C     C_R   0.915995 0.950993 0.081366 0.699065
O19   O     O_3   0.961210 0.453080 0.991940 -0.376279
O20   O     O_3   0.038790 0.953080 0.008060 -0.373978
V3    V     V_3+5 0.007200 0.728820 0.001500 1.452854
V4    V     V_3+5 0.992800 0.228820 0.998500 1.416044
N1    N     N_3   0.978507 0.990451 0.751831 -0.681950
H29   H     H_    0.989569 0.121538 0.773640 0.226043
H30   H     H_    0.990253 0.992705 0.698757 0.224508
N2    N     N_3   0.023347 0.523666 0.247066 -0.682922
H31   H     H_    0.998773 0.401330 0.233494 0.212744
H32   H     H_    0.013356 0.559960 0.299001 0.224038
N3    N     N_3   0.733291 0.373127 0.142271 -0.673158
H33   H     H_    0.701134 0.471459 0.156308 0.235926
H34   H     H_    0.718805 0.332139 0.089296 0.218812
N4    N     N_3   0.248713 0.951773 0.874475 -0.677116
H35   H     H_    0.276724 0.838608 0.864345 0.235932
H36   H     H_    0.265121 0.001228 0.925763 0.218567

loop_
_geom_bond_atom_site_label_1
_geom_bond_atom_site_label_2
_ccdc_geom_bond_type
C40   C42   A    
C37   C39   A    
C7    C29   A    
O12   V3    S    
C11   C13   A    
O13   C65   A    
O14   V4    S    
O1    C3    A    
O2    C4    A    
C26   H14   S    
C2    O7    A    
N3    H34   S    
C12   H12   S    
O3    V1    S    
C23   C25   A    
C47   H21   S    
C14   H10   S    
C57   H27   S    
C43   C57   A    
C16   C20   A    
C2    C35   S    
O15   V3    S    
C19   C21   A    
C5    C29   A    
N2    H32   S    
H2    C24   S    
C60   C62   A    
C45   H19   S    
C7    C27   A    
C34   C36   A    
C35   C37   A    
O20   V3    S    
C64   H26   S    
C36   C38   A    
O17   V3    S    
C49   C59   A    
C40   C46   A    
C18   C26   A    
C39   C41   A    
C41   C51   A    
C15   C17   A    
O11   V4    S    
C56   N4    S    
C19   C27   A    
C9    C31   A    
C10   C32   A    
C51   C53   A    
O6    V2    S    
C22   C24   A    
C55   N3    S    
C54   C64   A    
C47   C49   A    
C30   N2    S    
C3    C32   S    
C4    C31   S    
C6    C30   A    
O13   V3    S    
C55   C57   A    
O5    C3    A    
C59   C61   A    
C42   C52   A    
C33   C35   A    
C53   C63   A    
C46   C48   A    
O19   V4    S    
C53   C55   A    
C27   H5    S    
C33   H15   S    
O5    V1    S    
C29   N1    S    
C39   C45   A    
C5    H3    S    
O12   C68   A    
C41   C43   A    
C16   C18   A    
O4    V2    S    
N4    H36   S    
C9    H7    S    
C59   H23   S    
C10   H8    S    
C34   C44   A    
O6    C4    A    
N1    H29   S    
C52   C54   A    
O1    V2    S    
C5    C21   A    
O2    V1    S    
C49   C51   A    
C66   O17   A    
C61   C68   S    
H1    C23   S    
C65   O18   A    
C33   C43   A    
C54   C56   A    
C25   H13   S    
C62   C64   A    
C56   C58   A    
C61   C63   A    
C8    C28   A    
C15   C19   A    
C20   C28   A    
O4    C2    A    
C18   C32   A    
C48   C50   A    
N3    H33   S    
C50   C60   A    
O16   C68   A    
C44   C58   A    
O16   V4    S    
C28   H6    S    
C7    C66   S    
C48   H22   S    
C63   H25   S    
C6    H4    S    
O11   C67   A    
C8    C65   S    
C50   C52   A    
O3    C1    A    
C9    C11   A    
C37   H17   S    
C10   C12   A    
C17   C25   A    
C62   C67   S    
C12   C14   A    
N4    H35   S    
O7    V1    S    
C8    C30   A    
C1    O8    A    
C21   C23   A    
O8    V2    S    
C20   C22   A    
C14   C16   A    
C60   H24   S    
C58   H28   S    
C13   H9    S    
C17   C31   A    
C24   C26   A    
O14   C66   A    
C1    C36   S    
C11   H11   S    
C6    C22   A    
N1    H30   S    
C38   H18   S    
C46   H20   S    
C13   C15   A    
O9    V2    S    
C45   C47   A    
C42   C44   A    
O10   V1    S    
O15   C67   A    
C34   H16   S    
O18   V4    S    
C38   C40   A    
N2    H31   S    
