data_mof_unit_11266.cif
_audit_creation_date              2013-03-05T16:45:08-0500
_audit_creation_method            fapswitch 2.2
_symmetry_space_group_name_H-M    P1
_symmetry_Int_Tables_number       1
_space_group_crystal_system       triclinic
_cell_length_a                    14.71764
_cell_length_b                    15.695763
_cell_length_c                    9.989514
_cell_angle_alpha                 91.001302
_cell_angle_beta                  91.859463
_cell_angle_gamma                 89.836924
_cell_volume                      2306.05024829

loop_
_atom_site_label
_atom_site_type_symbol
_atom_site_description
_atom_site_fract_x
_atom_site_fract_y
_atom_site_fract_z
_atom_type_partial_charge
O1    O     O_R   0.408400 0.908380 0.614690 -0.602376
O2    O     O_R   0.408400 0.091620 0.614690 -0.606015
O3    O     O_R   0.908400 0.408380 0.614690 -0.620462
O4    O     O_R   0.908400 0.591620 0.614690 -0.596564
O5    O     O_R   0.408370 0.908370 0.385350 -0.627288
O6    O     O_R   0.408370 0.091630 0.385350 -0.629222
O7    O     O_R   0.908370 0.408370 0.385350 -0.626675
O8    O     O_R   0.908370 0.591630 0.385350 -0.629024
C1    C     C_R   0.380231 0.880220 0.498442 0.897926
C2    C     C_R   0.381930 0.121142 0.499784 0.892582
C3    C     C_R   0.882638 0.378424 0.498213 0.894698
C4    C     C_R   0.880338 0.619878 0.499617 0.896531
Zn1   Zn    Zn3+2 0.500010 0.000000 0.653130 0.949387
Zn2   Zn    Zn3+2 0.000010 0.500000 0.653130 0.955951
Zn3   Zn    Zn3+2 0.499980 0.000000 0.346870 0.936153
Zn4   Zn    Zn3+2 0.999980 0.500000 0.346870 0.936022
O9    O     O_R   0.591610 0.091610 0.614650 -0.616177
O10   O     O_R   0.591610 0.908390 0.614650 -0.615397
O11   O     O_R   0.091610 0.591610 0.614650 -0.613452
O12   O     O_R   0.091610 0.408390 0.614650 -0.616231
O13   O     O_R   0.591590 0.091600 0.385310 -0.632354
O14   O     O_R   0.591590 0.908400 0.385310 -0.642301
O15   O     O_R   0.091590 0.591600 0.385310 -0.641738
O16   O     O_R   0.091590 0.408400 0.385310 -0.636963
C5    C     C_R   0.623197 0.117013 0.502192 0.872270
C6    C     C_R   0.619816 0.880327 0.500312 0.874269
C7    C     C_R   0.119563 0.620073 0.501291 0.869620
C8    C     C_R   0.120763 0.381192 0.500285 0.880648
C9    C     C_R   0.271111 0.207248 0.616594 -0.000831
C10   C     C_R   0.274472 0.792777 0.617976 0.022868
C11   C     C_R   0.769426 0.706239 0.617552 0.016997
C12   C     C_R   0.793821 0.278846 0.619206 0.024500
C13   C     C_R   0.316444 0.187793 0.499491 -0.033696
C14   C     C_R   0.310097 0.817825 0.496968 -0.048442
C15   C     C_R   0.810524 0.682685 0.498482 -0.048271
C16   C     C_R   0.820790 0.309016 0.497038 -0.040629
C17   C     C_R   0.296557 0.232016 0.381822 -0.234043
C18   C     C_R   0.275230 0.783822 0.375985 -0.242012
C19   C     C_R   0.780771 0.718123 0.377115 -0.238088
C20   C     C_R   0.791797 0.268695 0.378355 -0.228437
H1    H     H_    0.334936 0.222021 0.292627 0.167438
H2    H     H_    0.301958 0.801655 0.281104 0.168671
H3    H     H_    0.811191 0.700911 0.283331 0.170395
H4    H     H_    0.820579 0.283051 0.283985 0.166775
C21   C     C_R   0.715448 0.781142 0.377141 -0.217227
C22   C     C_R   0.727252 0.205834 0.381574 -0.209573
C23   C     C_R   0.229581 0.293328 0.380460 -0.217663
C24   C     C_R   0.209753 0.721143 0.377529 -0.210465
H5    H     H_    0.695789 0.809786 0.282608 0.169626
H6    H     H_    0.702713 0.179025 0.287033 0.168433
H7    H     H_    0.214935 0.326365 0.288229 0.165738
H8    H     H_    0.186146 0.693709 0.282440 0.171177
C25   C     C_R   0.681464 0.810510 0.499194 -0.043851
C26   C     C_R   0.695616 0.178254 0.504626 -0.051851
C27   C     C_R   0.186492 0.314728 0.499294 -0.036556
C28   C     C_R   0.180681 0.690530 0.500624 -0.043967
C29   C     C_R   0.705364 0.769668 0.617832 0.057896
C30   C     C_R   0.730558 0.214324 0.625191 0.045845
C31   C     C_R   0.207280 0.271281 0.616297 0.048829
C32   C     C_R   0.209842 0.730095 0.619821 0.059450
C33   C     C_3   0.740685 0.806545 0.748329 -0.546521
C34   C     C_3   0.788801 0.172924 0.733378 -0.566512
C35   C     C_3   0.243188 0.308238 0.745667 -0.541989
C36   C     C_3   0.251726 0.691308 0.742478 -0.559802
C37   C     C_3   0.311798 0.236943 0.748845 0.399923
C38   C     C_3   0.323403 0.760300 0.740702 0.398870
C39   C     C_3   0.811515 0.735990 0.748749 0.395495
C40   C     C_3   0.856427 0.243630 0.724429 0.408673
H9    H     H_    0.769699 0.871368 0.738171 0.217982
H10   H     H_    0.814900 0.108955 0.703588 0.229793
H11   H     H_    0.274597 0.371710 0.732118 0.225567
H12   H     H_    0.278763 0.626174 0.722973 0.223968
H13   H     H_    0.690980 0.800418 0.829045 0.164886
H14   H     H_    0.760254 0.177692 0.834305 0.150600
H15   H     H_    0.192981 0.303970 0.826006 0.161582
H16   H     H_    0.206779 0.698124 0.829308 0.163993
H17   H     H_    0.299683 0.191941 0.830804 0.041882
H18   H     H_    0.321088 0.806334 0.826572 0.053995
H19   H     H_    0.803564 0.688247 0.828741 0.051707
H20   H     H_    0.862183 0.286507 0.814503 0.054984
C41   C     C_R   0.425115 0.973860 0.064578 0.128574
C42   C     C_R   0.924094 0.523919 0.065710 0.125184
N1    N     N_R   0.499140 1.000000 0.142800 -0.135643
N2    N     N_R   0.999140 0.500000 0.142800 -0.135101
C43   C     C_R   0.579459 0.007257 0.075821 0.219378
C44   C     C_R   0.079765 0.495168 0.076042 0.207503
C45   C     C_R   0.578315 0.010520 0.931963 0.178852
C46   C     C_R   0.079594 0.496035 0.932014 0.211896
N3    N     N_R   0.499160 0.000000 0.857150 -0.123083
N4    N     N_R   0.999160 0.500000 0.857150 -0.120327
C47   C     C_R   0.426731 0.971247 0.923793 0.061186
C48   C     C_R   0.924857 0.523417 0.925333 0.059161
C49   C     C_3   0.331043 0.997752 0.903537 -0.481304
C50   C     C_3   0.830591 0.493342 0.903916 -0.468149
C51   C     C_3   0.326998 0.003894 0.056444 0.350041
C52   C     C_3   0.826020 0.493661 0.057102 0.347040
H21   H     H_    0.325917 0.058477 0.850122 0.191404
H22   H     H_    0.288477 0.946688 0.856034 0.174914
H23   H     H_    0.786769 0.541467 0.853218 0.176939
H24   H     H_    0.827743 0.429366 0.855001 0.188982
C53   C     C_3   0.309769 0.095209 0.105241 -0.848546
H25   H     H_    0.289409 0.094228 0.210598 0.263249
H26   H     H_    0.370818 0.135751 0.094839 0.212950
H27   H     H_    0.252064 0.123604 0.046919 0.212726
C54   C     C_3   0.259920 0.939900 0.111949 -0.879361
H28   H     H_    0.275266 0.874060 0.076504 0.205566
H29   H     H_    0.263325 0.942392 0.223007 0.252873
H30   H     H_    0.189508 0.956243 0.077916 0.237839
C55   C     C_3   0.758538 0.560356 0.108873 -0.880983
H31   H     H_    0.774624 0.624835 0.072036 0.205609
H32   H     H_    0.688377 0.543532 0.073732 0.239524
H33   H     H_    0.760678 0.561927 0.219948 0.252846
C56   C     C_3   0.808586 0.404914 0.109982 -0.848877
H34   H     H_    0.787114 0.411106 0.214678 0.259537
H35   H     H_    0.751618 0.374053 0.051925 0.215107
H36   H     H_    0.870043 0.363978 0.102821 0.219993
O17   O     O_3   0.401790 0.266815 0.736340 -0.567309
C57   C     C_3   0.451246 0.255676 0.857920 -0.283609
H37   H     H_    0.459846 0.186785 0.879683 0.166526
H38   H     H_    0.417989 0.289323 0.942346 0.144872
H39   H     H_    0.520015 0.283256 0.848527 0.184996
O18   O     O_3   0.410140 0.727608 0.710103 -0.568341
C58   C     C_3   0.463438 0.720396 0.829091 -0.285588
H40   H     H_    0.429549 0.679847 0.902914 0.149156
H41   H     H_    0.479050 0.784394 0.873552 0.160307
H42   H     H_    0.528982 0.689666 0.804719 0.184423
O19   O     O_3   0.900459 0.767285 0.732683 -0.566850
C59   C     C_3   0.945209 0.774971 0.859171 -0.286587
H43   H     H_    0.957099 0.711203 0.903570 0.158621
H44   H     H_    0.906489 0.816648 0.928567 0.147276
H45   H     H_    0.012592 0.804677 0.846162 0.184782
O20   O     O_3   0.939454 0.215468 0.671222 -0.569436
C60   C     C_3   0.001966 0.198687 0.777366 -0.300605
H46   H     H_    0.974139 0.152353 0.848468 0.151260
H47   H     H_    0.022106 0.258771 0.831009 0.163280
H48   H     H_    0.064042 0.169981 0.735358 0.186790
C61   C     C_3   0.670581 0.008583 0.149568 -0.846112
H49   H     H_    0.668707 0.997843 0.256385 0.288786
H50   H     H_    0.713730 0.956310 0.110084 0.205326
H51   H     H_    0.704578 0.070494 0.135413 0.209346
C62   C     C_3   0.170909 0.492294 0.150735 -0.839242
H52   H     H_    0.168562 0.496794 0.258756 0.289103
H53   H     H_    0.206866 0.432232 0.125746 0.205148
H54   H     H_    0.213162 0.547309 0.123334 0.208179
C63   C     C_3   0.661123 0.034912 0.861012 -0.861591
H55   H     H_    0.725666 0.034239 0.920487 0.210156
H56   H     H_    0.672062 0.993212 0.773493 0.274601
H57   H     H_    0.646664 0.100707 0.832053 0.259242
C64   C     C_3   0.169963 0.499348 0.866533 -0.866608
H58   H     H_    0.212602 0.445278 0.899347 0.217106
H59   H     H_    0.166442 0.499302 0.757729 0.291055
H60   H     H_    0.205494 0.558335 0.899233 0.212109

loop_
_geom_bond_atom_site_label_1
_geom_bond_atom_site_label_2
_geom_bond_distance
_ccdc_geom_bond_type
C30   C34   1.512033 S    
C35   C37   1.505191 S    
C40   H20   1.115311 S    
C53   H25   1.103976 S    
C27   C31   1.388600 A    
O17   C57   1.408825 S    
C46   C64   1.502521 S    
C54   H28   1.111481 S    
O10   C6    1.297328 A    
C12   C30   1.381014 A    
C59   H43   1.112921 S    
C63   H55   1.104072 S    
C58   H40   1.113447 S    
O7    C3    1.297197 A    
C61   H50   1.110870 S    
Zn1   O10   2.008989 S    
C12   C16   1.387034 A    
C3    C16   1.421279 S    
N2    C44   1.381162 A    
C18   H2    1.079590 S    
C24   H8    1.083312 S    
C55   H32   1.110861 S    
C41   C51   1.517880 S    
C44   C46   1.438992 A    
C58   H41   1.112728 S    
C9    C13   1.394214 A    
Zn4   N2    2.038197 S    
C42   C48   1.402592 A    
C34   H10   1.113094 S    
O8    Zn4   2.009310 S    
C40   O20   1.414889 S    
O2    Zn1   2.001989 S    
C57   H37   1.112723 S    
Zn2   N4    2.038506 S    
C51   C54   1.533479 S    
C63   H56   1.098720 S    
O6    Zn3   2.009310 S    
Zn3   O14   2.001763 S    
C9    C31   1.373772 A    
O20   C60   1.408969 S    
C10   C32   1.371192 A    
C60   H48   1.108935 S    
C38   O18   1.415080 S    
O15   C7    1.289786 A    
C17   C23   1.375544 A    
O11   C7    1.303889 A    
C18   C24   1.379732 A    
C12   C40   1.487936 S    
C56   H36   1.111459 S    
C61   H49   1.084426 S    
C21   C25   1.402799 A    
Zn4   O16   2.001763 S    
C17   H1    1.079286 S    
C64   H59   1.086443 S    
C41   N1    1.379116 A    
C8    C27   1.420816 S    
C43   C45   1.438428 A    
C38   H18   1.113176 S    
C54   H30   1.110858 S    
C42   C52   1.520143 S    
C10   C14   1.396281 A    
Zn2   O12   2.008989 S    
C16   C20   1.389496 A    
O1    C1    1.291364 A    
C5    C26   1.436611 S    
C64   H60   1.103841 S    
C25   C29   1.391916 A    
C7    C28   1.427742 S    
C58   H42   1.109485 S    
C19   H3    1.081117 S    
O12   C8    1.298171 A    
C33   H13   1.111729 S    
C13   C17   1.397928 A    
C28   C32   1.389309 A    
C57   H39   1.109337 S    
C36   C38   1.514650 S    
C15   C19   1.399567 A    
O5    C1    1.300722 A    
C39   O19   1.414450 S    
C47   C49   1.475963 S    
C37   H17   1.109699 S    
C54   H29   1.108930 S    
C50   H24   1.109327 S    
C33   C39   1.518673 S    
N4    C48   1.353582 A    
C21   H5    1.083505 S    
O8    C4    1.296761 A    
C22   C26   1.404314 A    
C48   C50   1.474564 S    
C36   H16   1.111308 S    
C39   H19   1.114131 S    
C4    C15   1.421804 S    
C50   C52   1.533825 S    
C10   C38   1.497974 S    
O3    Zn2   1.997858 S    
C9    C37   1.499964 S    
O7    Zn4   2.024365 S    
N1    C43   1.383034 A    
C46   N4    1.381413 A    
Zn4   O15   1.997632 S    
C42   N2    1.380748 A    
C45   N3    1.372314 A    
C60   H46   1.113436 S    
C11   C15   1.395482 A    
C52   C56   1.523733 S    
C55   H33   1.108856 S    
O4    C4    1.294085 A    
C20   C22   1.373080 A    
O19   C59   1.409259 S    
O2    C2    1.293289 A    
C6    C25   1.420828 S    
C49   H21   1.101628 S    
C63   H57   1.095747 S    
C23   C27   1.399242 A    
C56   H34   1.104934 S    
C26   C30   1.404701 A    
C43   C61   1.509046 S    
C33   H9    1.112075 S    
C24   C28   1.407823 A    
O13   C5    1.299349 A    
C45   C63   1.484068 S    
Zn1   N3    2.038506 S    
C14   C18   1.395554 A    
Zn2   O11   2.024040 S    
O16   C8    1.292272 A    
C35   H11   1.111699 S    
C59   H44   1.113944 S    
O6    C2    1.296956 A    
C23   H7    1.080459 S    
C29   C33   1.495328 S    
C62   H54   1.108894 S    
Zn1   O9    2.024040 S    
C53   H27   1.110923 S    
C52   C55   1.535641 S    
C22   H6    1.079001 S    
C31   C35   1.489007 S    
C53   H26   1.111152 S    
C19   C21   1.377411 A    
C32   C36   1.492259 S    
O9    C5    1.299126 A    
C11   C29   1.369245 A    
C62   H53   1.108429 S    
C62   H52   1.081813 S    
C1    C14   1.424440 S    
Zn3   O13   1.997632 S    
C35   H15   1.111412 S    
C50   H23   1.110147 S    
Zn3   N1    2.038197 S    
C61   H51   1.107606 S    
C49   H22   1.109198 S    
C2    C13   1.420382 S    
C34   C40   1.498594 S    
C36   H12   1.112309 S    
O4    Zn2   2.001989 S    
C57   H38   1.113329 S    
O5    Zn3   2.024365 S    
O3    C3    1.293034 A    
C11   C39   1.498999 S    
C41   C47   1.407222 A    
C20   H4    1.073686 S    
O1    Zn1   1.997859 S    
C49   C51   1.531906 S    
N3    C47   1.357379 A    
O14   C6    1.293131 A    
C55   H31   1.111632 S    
C60   H47   1.112654 S    
C37   O17   1.416331 S    
C34   H14   1.106023 S    
O18   C58   1.408776 S    
C64   H58   1.102212 S    
C59   H45   1.109457 S    
C51   C53   1.528949 S    
C44   C62   1.514608 S    
C56   H35   1.111257 S    
