data_mof_unit_16765.cif
_audit_creation_date              2012-12-11T15:42:45-0500
_audit_creation_method            fapswitch 2.2
_symmetry_space_group_name_H-M    P1
_symmetry_Int_Tables_number       1
_space_group_crystal_system       triclinic
_cell_length_a                    6.919402
_cell_length_b                    14.652569
_cell_length_c                    16.118771
_cell_angle_alpha                 90.485025
_cell_angle_beta                  89.736888
_cell_angle_gamma                 90.00636
_cell_volume                      1634.158291

loop_
_atom_site_label
_atom_site_type_symbol
_atom_type_description
_atom_site_fract_x
_atom_site_fract_y
_atom_site_fract_z
_atom_type_partial_charge
O1    O     O_R   0.505810 0.583360 0.413880 -0.546919
O2    O     O_R   0.175870 0.595480 0.585520 -0.513108
O3    O     O_R   0.005540 0.416640 0.586120 -0.542807
C1    C     C_R   0.344607 0.618563 0.614029 0.709854
O4    O     O_R   0.176100 0.594390 0.414490 -0.551394
O5    O     O_R   0.005770 0.415540 0.413870 -0.519092
C2    C     C_R   0.345742 0.616633 0.386214 0.738930
O6    O     O_R   0.505580 0.584460 0.586130 -0.545480
O7    O     O_3   0.339190 0.441320 0.500000 -0.365173
V1    V     V_3+5 0.064350 0.510890 0.500000 1.446532
O8    O     O_R   0.676050 0.404520 0.414480 -0.540431
C3    C     C_R   0.845050 0.384846 0.383515 0.721777
O9    O     O_R   0.675830 0.405610 0.585510 -0.542663
C4    C     C_R   0.844902 0.383779 0.613878 0.744964
V2    V     V_3+5 0.564340 0.489110 0.500000 1.419576
O10   O     O_3   0.839370 0.558680 0.500000 -0.377831
C5    C     C_2   0.720273 0.210235 0.787353 -0.132561
C6    C     C_2   0.885994 0.182505 0.823174 -0.313619
H1    H     H_    0.583912 0.182000 0.808761 0.134007
C7    C     C_2   0.707672 0.278635 0.719448 -0.138892
C8    C     C_2   0.861359 0.315758 0.680771 -0.311823
H2    H     H_    0.563275 0.298281 0.700409 0.133275
H3    H     H_    0.006845 0.296814 0.698032 0.127985
C9    C     C_R   0.022645 0.257823 0.188461 0.355960
C10   C     C_R   0.012255 0.322281 0.254018 0.369054
C11   C     C_R   0.855371 0.320815 0.311122 -0.221778
C12   C     C_R   0.705100 0.258124 0.297604 -0.181610
H4    H     H_    0.581036 0.256557 0.338792 0.165413
C13   C     C_R   0.715109 0.194488 0.232697 -0.188588
H5    H     H_    0.598580 0.145634 0.226058 0.164716
C14   C     C_R   0.876477 0.190843 0.179446 -0.236496
C15   C     C_R   0.194742 0.742892 0.704917 0.416378
C16   C     C_R   0.206998 0.802844 0.773275 -0.239274
H6    H     H_    0.080933 0.843006 0.789846 0.133949
C17   C     C_R   0.379667 0.812884 0.818212 -0.104786
C18   C     C_R   0.540541 0.760448 0.794070 -0.152524
H7    H     H_    0.676065 0.766620 0.827014 0.137792
C19   C     C_R   0.527808 0.698157 0.727885 -0.202850
H8    H     H_    0.654038 0.657677 0.712391 0.179846
C20   C     C_R   0.354963 0.687475 0.682816 -0.157722
C21   C     C_R   0.198056 0.737909 0.298814 -0.290457
H9    H     H_    0.064881 0.727121 0.332652 0.124944
C22   C     C_R   0.209557 0.806818 0.238051 0.403108
C23   C     C_R   0.379377 0.813657 0.188175 -0.236024
C24   C     C_R   0.539223 0.756189 0.205717 0.382740
C25   C     C_R   0.529568 0.696127 0.273514 -0.288809
H10   H     H_    0.655563 0.656534 0.289800 0.125271
C26   C     C_R   0.358147 0.684702 0.318723 -0.137530
O11   O     O_R   0.230120 0.912300 0.917180 -0.547299
O12   O     O_R   0.559740 0.902430 0.088770 -0.509801
O13   O     O_R   0.729930 0.081310 0.089370 -0.545526
C27   C     C_R   0.390516 0.881057 0.118533 0.759304
O14   O     O_R   0.559840 0.901330 0.917750 -0.548708
O15   O     O_R   0.730030 0.080210 0.917120 -0.544757
C28   C     C_R   0.391020 0.879382 0.888494 0.687695
O16   O     O_R   0.230020 0.913400 0.089430 -0.510066
O17   O     O_3   0.396460 0.055470 0.003290 -0.379560
V3    V     V_3+5 0.671360 0.985960 0.003250 1.460359
O18   O     O_R   0.059740 0.091300 0.917690 -0.552640
C29   C     C_R   0.891132 0.113538 0.889664 0.713218
O19   O     O_R   0.059640 0.092400 0.088720 -0.512079
C30   C     C_R   0.889796 0.117145 0.115389 0.747040
V4    V     V_3+5 0.171350 0.007820 0.003190 1.468023
O20   O     O_3   0.896380 0.938200 0.003220 -0.355943
O21   O     O_3   0.056000 0.866390 0.224014 -0.521830
C31   C     C_3   0.957273 0.890813 0.298192 0.140447
H11   H     H_    0.058044 0.900573 0.351386 0.086411
H12   H     H_    0.847825 0.838040 0.313626 0.134126
C32   C     C_3   0.851332 0.980123 0.285906 -0.701320
H13   H     H_    0.767238 0.997801 0.342643 0.161214
H14   H     H_    0.957977 0.035069 0.274105 0.209299
H15   H     H_    0.750543 0.973973 0.232780 0.231150
O22   O     O_3   0.708753 0.764800 0.159829 -0.521541
C33   C     C_3   0.775753 0.679001 0.130977 0.120196
H16   H     H_    0.654913 0.633566 0.110905 0.092668
H17   H     H_    0.860995 0.644948 0.180103 0.102192
C34   C     C_3   0.908447 0.693404 0.056734 -0.658061
H18   H     H_    0.033129 0.736818 0.074794 0.228571
H19   H     H_    0.963588 0.626546 0.033906 0.149010
H20   H     H_    0.828014 0.727176 0.006009 0.212166
H21   H     H_    0.024029 0.210310 0.804141 0.126998
O23   O     O_3   0.182312 0.258901 0.136272 -0.530870
C35   C     C_3   0.131053 0.299785 0.060255 0.148468
H22   H     H_    0.075219 0.370136 0.070036 0.092615
H23   H     H_    0.018856 0.259537 0.027019 0.083437
C36   C     C_3   0.308812 0.304937 0.004566 -0.689700
H24   H     H_    0.363096 0.235288 0.990377 0.231883
H25   H     H_    0.271137 0.338870 0.945456 0.156336
H26   H     H_    0.424894 0.344506 0.035762 0.208307
O24   O     O_3   0.159641 0.385549 0.261661 -0.532982
C37   C     C_3   0.101743 0.469465 0.226488 0.133067
H27   H     H_    0.051382 0.516218 0.276557 0.121494
H28   H     H_    0.982192 0.463397 0.180454 0.053109
C38   C     C_3   0.274538 0.512699 0.183234 -0.715539
H29   H     H_    0.317861 0.471273 0.128417 0.216268
H30   H     H_    0.236790 0.582462 0.162346 0.173586
H31   H     H_    0.399093 0.516492 0.226235 0.218843
O25   O     O_3   0.022963 0.737425 0.661647 -0.552779
C39   C     C_3   0.021341 0.807180 0.601668 0.107245
H32   H     H_    0.141989 0.797734 0.556326 0.095743
H33   H     H_    0.033513 0.875866 0.631435 0.105052
C40   C     C_3   0.831733 0.803848 0.554289 -0.707553
H34   H     H_    0.708326 0.814622 0.597552 0.218379
H35   H     H_    0.830053 0.858252 0.506732 0.153543
H36   H     H_    0.815346 0.736770 0.522721 0.235259

loop_
_geom_bond_atom_site_label_1
_geom_bond_atom_site_label_2
_ccdc_geom_bond_type
C31   H12   S    
O11   V4    S    
C12   C13   A    
C21   H9    S    
C17   C18   A    
C1    O6    A    
C6    H21   S    
O17   V3    S    
O15   C29   A    
C24   C25   A    
C11   C12   A    
C33   H17   S    
C35   H22   S    
C4    C8    S    
C18   H7    S    
C32   H13   S    
O5    C3    A    
C19   H8    S    
C36   H25   S    
C31   C32   S    
V2    O10   S    
C5    C7    S    
C40   H36   S    
C24   O22   S    
O22   C33   S    
C32   H14   S    
C9    O23   S    
C5    H1    S    
O8    V2    S    
C1    C20   S    
C15   O25   S    
C33   C34   S    
O12   C27   A    
O1    V2    S    
O7    V1    S    
C34   H18   S    
C38   H30   S    
C23   C27   S    
C34   H19   S    
C31   H11   S    
O18   C29   A    
O9    C4    A    
C21   C22   A    
C14   C30   S    
C38   H29   S    
O13   C30   A    
O17   V4    S    
O14   C28   A    
V3    O20   S    
C25   C26   A    
C33   H16   S    
C17   C28   S    
C40   H34   S    
O12   V3    S    
C9    C10   A    
C37   H27   S    
O4    C2    A    
C36   H24   S    
C38   H31   S    
C10   C11   A    
O11   C28   A    
C3    C11   S    
C32   H15   S    
O2    C1    A    
C22   C23   A    
C13   H5    S    
C37   H28   S    
C39   H32   S    
C22   O21   S    
C39   C40   S    
O19   V4    S    
C5    C6    D    
C10   O24   S    
O16   V4    S    
O13   V3    S    
C40   H35   S    
O3    C4    A    
C6    C29   S    
C35   H23   S    
C7    H2    S    
O23   C35   S    
O6    V2    S    
O9    V2    S    
O21   C31   S    
O2    V1    S    
C23   C24   A    
O15   V3    S    
C34   H20   S    
C25   H10   S    
C39   H33   S    
O1    C2    A    
C36   H26   S    
O5    V1    S    
O14   V3    S    
O18   V4    S    
C2    C26   S    
C8    H3    S    
O7    V2    S    
C9    C14   A    
O4    V1    S    
C13   C14   A    
O3    V1    S    
V1    O10   S    
C15   C16   A    
C37   C38   S    
C19   C20   A    
O24   C37   S    
C18   C19   A    
C16   C17   A    
C21   C26   A    
C16   H6    S    
C15   C20   A    
O19   C30   A    
V4    O20   S    
C35   C36   S    
C7    C8    D    
O25   C39   S    
C12   H4    S    
C27   O16   A    
O8    C3    A    
