data_mof_unit_22889.cif
_audit_creation_date              2012-12-10T17:54:21-0500
_audit_creation_method            fapswitch 2.2
_symmetry_space_group_name_H-M    P1
_symmetry_Int_Tables_number       1
_space_group_crystal_system       triclinic
_cell_length_a                    27.669056
_cell_length_b                    10.707531
_cell_length_c                    9.868158
_cell_angle_alpha                 89.137361
_cell_angle_beta                  90.02389
_cell_angle_gamma                 91.733449
_cell_volume                      2921.94314188

loop_
_atom_site_label
_atom_site_type_symbol
_atom_type_description
_atom_site_fract_x
_atom_site_fract_y
_atom_site_fract_z
_atom_type_partial_charge
C1    C     C_R   0.502816 0.259705 0.502113 0.869086
C2    C     C_R   0.276861 0.484391 0.381418 -0.102070
C3    C     C_R   0.252555 0.473201 0.505413 0.326389
C4    C     C_R   0.101376 0.466074 0.531877 -0.055863
C5    C     C_R   0.126721 0.355076 0.550540 -0.021034
C6    C     C_R   0.101306 0.243395 0.580978 -0.134177
C7    C     C_R   0.126860 0.578171 0.498583 -0.022275
C8    C     C_R   0.353185 0.491201 0.501310 -0.033921
C9    C     C_R   0.646734 0.489937 0.503663 -0.094054
C10   C     C_R   0.973569 0.348125 0.558899 0.043196
C11   C     C_R   0.975526 0.578434 0.563782 -0.008272
C12   C     C_R   0.405979 0.498469 0.500113 0.849321
C13   C     C_R   0.949118 0.462459 0.560816 0.063168
C14   C     C_R   0.946229 0.235679 0.546807 -0.249504
C15   C     C_R   0.895969 0.234161 0.538458 0.002080
C16   C     C_R   0.871008 0.347550 0.543762 -0.063051
C17   C     C_R   0.897961 0.461228 0.558606 -0.061079
C18   C     C_R   0.873783 0.574519 0.569948 -0.038320
C19   C     C_R   0.823492 0.574202 0.561043 0.522240
C20   C     C_R   0.820166 0.353119 0.532672 0.505572
C21   C     C_R   0.716903 0.419565 0.627106 -0.091121
C22   C     C_R   0.667207 0.429656 0.616507 -0.222986
C23   C     C_R   0.494742 0.738740 0.499554 0.897447
C24   C     C_R   0.677146 0.539327 0.399663 -0.034272
C25   C     C_R   0.727077 0.528069 0.411207 -0.132418
C26   C     C_R   0.746858 0.469258 0.525003 0.294739
C27   C     C_R   0.024716 0.349908 0.565285 0.051645
C28   C     C_R   0.050516 0.464914 0.545492 0.078281
C29   C     C_R   0.025833 0.578652 0.536747 0.041555
C30   C     C_R   0.051126 0.240474 0.587537 -0.216810
C31   C     C_R   0.101571 0.687426 0.475621 -0.137280
C32   C     C_R   0.950211 0.688356 0.594027 -0.019122
C33   C     C_R   0.899978 0.685607 0.593381 -0.170434
C34   C     C_R   0.594032 0.499612 0.500244 0.883786
C35   C     C_R   0.051788 0.687248 0.492576 -0.199186
C36   C     C_R   0.507485 0.105733 0.762750 -0.189569
C37   C     C_R   0.491952 0.041034 0.879415 -0.192041
C38   C     C_R   0.466500 0.927555 0.868122 0.064607
C39   C     C_R   0.460880 0.873946 0.740880 -0.205481
C40   C     C_R   0.481306 0.933162 0.623958 0.078124
C41   C     C_R   0.497860 0.057254 0.631918 0.091817
C42   C     C_R   0.504188 0.125552 0.507877 -0.113536
C43   C     C_R   0.504186 0.064459 0.383663 -0.214500
C44   C     C_R   0.498000 0.937508 0.380454 -0.195065
C45   C     C_R   0.177159 0.359088 0.539397 0.503179
C46   C     C_R   0.488085 0.871061 0.500245 -0.117516
C47   C     C_R   0.436485 0.335958 0.142359 -0.215929
C48   C     C_R   0.405000 0.255615 0.073266 -0.215694
C49   C     C_R   0.404659 0.254941 0.931686 0.129183
C50   C     C_R   0.436530 0.336581 0.861755 -0.230957
C51   C     C_R   0.468805 0.418912 0.928863 0.135644
C52   C     C_R   0.468840 0.418745 0.073468 0.174376
C53   C     C_R   0.529007 0.579558 0.070331 -0.091968
C54   C     C_R   0.529193 0.579132 0.926944 -0.104415
C55   C     C_R   0.177193 0.577628 0.487098 0.506582
C56   C     C_R   0.278309 0.470355 0.627112 -0.113657
C57   C     C_R   0.328423 0.479556 0.625302 -0.241789
C58   C     C_R   0.327109 0.492972 0.379189 -0.217914
H1    H     H_    0.345435 0.501267 0.282380 0.169188
H2    H     H_    0.259358 0.462261 0.723009 0.138314
H3    H     H_    0.120092 0.773494 0.443699 0.192470
H4    H     H_    0.881287 0.771033 0.613236 0.201915
H5    H     H_    0.750929 0.567105 0.333274 0.147847
H6    H     H_    0.033919 0.771928 0.464263 0.158842
H7    H     H_    0.509827 0.114355 0.288317 0.174073
H8    H     H_    0.528632 0.190605 0.778233 0.182073
H9    H     H_    0.498942 0.080948 0.978055 0.148458
H10   H     H_    0.256765 0.486894 0.287266 0.138786
H11   H     H_    0.440789 0.785856 0.734079 0.165737
H12   H     H_    0.502209 0.891440 0.284362 0.182782
H13   H     H_    0.552187 0.645366 0.123405 0.163415
H14   H     H_    0.434022 0.330730 0.249811 0.216228
H15   H     H_    0.380967 0.194841 0.132364 0.153084
H16   H     H_    0.435283 0.332112 0.754351 0.212931
H17   H     H_    0.552949 0.643832 0.871743 0.160782
H18   H     H_    0.120063 0.157282 0.598564 0.193035
H19   H     H_    0.644701 0.390162 0.697126 0.167629
H20   H     H_    0.732260 0.374633 0.715524 0.150062
H21   H     H_    0.963430 0.147064 0.537282 0.149548
H22   H     H_    0.033974 0.151606 0.613738 0.161661
H23   H     H_    0.347668 0.477343 0.720862 0.165143
N1    N     N_R   0.201090 0.469385 0.508802 -0.357889
N2    N     N_R   0.798094 0.465231 0.539819 -0.352634
N3    N     N_R   0.499540 0.498800 0.142780 -0.119329
N4    N     N_R   0.499520 0.498720 0.857170 -0.124815
O1    O     O_R   0.500000 0.316780 0.614690 -0.655612
O2    O     O_2   0.792761 0.248674 0.512970 -0.544142
O3    O     O_2   0.202227 0.684534 0.456514 -0.554363
O4    O     O_2   0.799919 0.682112 0.573010 -0.543469
O5    O     O_R   0.500000 0.316750 0.385360 -0.638623
O6    O     O_R   0.428760 0.500030 0.614650 -0.647384
O7    O     O_R   0.428750 0.500010 0.385320 -0.634097
O8    O     O_R   0.500000 0.683250 0.614640 -0.622104
O9    O     O_R   0.500000 0.683220 0.385310 -0.611848
O10   O     O_R   0.571250 0.499990 0.614680 -0.616055
O11   O     O_R   0.571240 0.499970 0.385350 -0.606144
O12   O     O_2   0.202174 0.254007 0.558754 -0.563612
Zn1   Zn    Zn3+2 0.500000 0.500020 0.653130 0.929896
Zn2   Zn    Zn3+2 0.500000 0.499980 0.346870 0.955957
C59   C     C_1   0.973678 0.801350 0.643503 0.153483
N5    N     N_1   0.992242 0.891869 0.683501 -0.220651
C60   C     C_1   0.658881 0.607521 0.284276 0.205628
N6    N     N_1   0.644706 0.662742 0.191551 -0.212945
C61   C     C_1   0.448112 0.863041 0.987295 0.113446
N7    N     N_1   0.433283 0.810973 0.082865 -0.205460
C62   C     C_3   0.371499 0.169957 0.848972 -0.418553
C63   C     C_3   0.340052 0.075579 0.931144 -0.360711
C64   C     C_3   0.311028 0.989134 0.837844 -0.797937
H24   H     H_    0.287040 0.044237 0.771089 0.279924
H25   H     H_    0.335751 0.934754 0.774357 0.257425
H26   H     H_    0.288330 0.922712 0.899677 0.253699
H27   H     H_    0.363306 0.017441 0.996871 0.235397
H28   H     H_    0.314458 0.126188 0.995767 0.228870
H29   H     H_    0.347478 0.229443 0.786881 0.206875
H30   H     H_    0.394218 0.117445 0.777921 0.216428
C65   C     C_1   0.871890 0.113182 0.524388 0.279926
N8    N     N_1   0.852836 0.016158 0.513120 -0.147311

loop_
_geom_bond_atom_site_label_1
_geom_bond_atom_site_label_2
_ccdc_geom_bond_type
C10   C27   A    
C21   C26   A    
C20   O2    S    
C1    O5    A    
C41   C42   A    
C31   H3    S    
C12   O6    A    
C45   N1    A    
C7    C55   A    
C51   N4    A    
O10   Zn1   S    
C53   C54   A    
C56   C57   A    
C40   C46   A    
C26   N2    S    
C62   H29   S    
C53   N3    A    
C16   C20   A    
C34   O11   A    
C2    H10   S    
C50   H16   S    
C25   H5    S    
C5    C6    A    
C36   H8    S    
C9    C22   A    
C62   C63   S    
C15   C16   A    
O11   Zn2   S    
C64   H24   S    
C18   C19   A    
C63   H27   S    
C55   O3    S    
C52   N3    A    
C63   H28   S    
C38   C61   S    
N4    Zn1   S    
C8    C58   A    
C33   H4    S    
C21   H20   S    
C63   C64   S    
C44   H12   S    
C35   H6    S    
C24   C60   S    
C43   H7    S    
C30   H22   S    
C23   C46   S    
C21   C22   A    
C27   C30   A    
C36   C41   A    
C4    C7    A    
C19   N2    A    
C61   N7    T    
C4    C28   A    
C44   C46   A    
C50   C51   A    
C7    C31   A    
C51   C52   A    
C24   C25   A    
C10   C14   A    
C39   C40   A    
C16   C17   A    
C58   H1    S    
C5    C45   A    
C32   C59   S    
C43   C44   A    
C37   C38   A    
C19   O4    S    
C8    C57   A    
C3    C56   A    
C47   C48   A    
C8    C12   S    
C3    N1    S    
C17   C18   A    
C39   H11   S    
C14   H21   S    
C34   O10   A    
C55   N1    A    
C47   C52   A    
C40   C41   A    
C6    C30   A    
C11   C32   A    
C9    C34   S    
C31   C35   A    
C42   C43   A    
C53   H13   S    
O5    Zn2   S    
C1    O1    A    
C28   C29   A    
C15   C65   S    
N3    Zn2   S    
C48   H15   S    
C12   O7    A    
C22   H19   S    
C4    C5    A    
C10   C13   A    
C54   N4    A    
C2    C58   A    
C9    C24   A    
C6    H18   S    
C49   C62   S    
C29   C35   A    
C64   H26   S    
C13   C17   A    
C62   H30   S    
C32   C33   A    
C2    C3    A    
C25   C26   A    
C45   O12   S    
C11   C13   A    
C38   C39   A    
O9    Zn2   S    
C48   C49   A    
C37   H9    S    
C59   N5    T    
C64   H25   S    
C65   N8    T    
C57   H23   S    
O6    Zn1   S    
C60   N6    T    
O1    Zn1   S    
C18   C33   A    
C47   H14   S    
C54   H17   S    
C23   O9    A    
C23   O8    A    
C1    C42   S    
C56   H2    S    
C11   C29   A    
C36   C37   A    
C49   C50   A    
C20   N2    A    
C27   C28   A    
C14   C15   A    
O8    Zn1   S    
O7    Zn2   S    
