data_mof_unit_66916.cif
_audit_creation_date              2013-03-05T15:57:27-0500
_audit_creation_method            fapswitch 2.2
_symmetry_space_group_name_H-M    P1
_symmetry_Int_Tables_number       1
_space_group_crystal_system       triclinic
_cell_length_a                    17.135045
_cell_length_b                    18.425921
_cell_length_c                    8.4463
_cell_angle_alpha                 90.000023
_cell_angle_beta                  101.695087
_cell_angle_gamma                 89.999138
_cell_volume                      2611.38069332

loop_
_atom_site_label
_atom_site_type_symbol
_atom_site_description
_atom_site_fract_x
_atom_site_fract_y
_atom_site_fract_z
_atom_type_partial_charge
P1    P     P_3+3 0.834140 0.419320 0.003900 0.435288
P2    P     P_3+3 0.834140 0.580680 0.503900 0.435309
P3    P     P_3+3 0.334140 0.919320 0.003900 0.435280
P4    P     P_3+3 0.334140 0.080680 0.503900 0.435302
O1    O     O_2   0.841960 0.394640 0.833410 -0.379302
O2    O     O_2   0.841960 0.605360 0.333410 -0.379272
O3    O     O_2   0.341960 0.894640 0.833410 -0.379295
O4    O     O_2   0.341960 0.105360 0.333410 -0.379313
O5    O     O_3   0.907950 0.463080 0.102990 -0.404931
O6    O     O_3   0.907950 0.536920 0.602990 -0.404920
O7    O     O_3   0.407950 0.963080 0.102990 -0.404946
O8    O     O_3   0.407950 0.036920 0.602990 -0.404912
O9    O     O_3   0.972780 0.329600 0.629720 -0.408963
O10   O     O_3   0.972780 0.670400 0.129720 -0.409102
O11   O     O_3   0.472780 0.829600 0.629720 -0.408963
O12   O     O_3   0.472780 0.170400 0.129720 -0.409048
O13   O     O_2   0.846616 0.265797 0.718028 -0.391024
O14   O     O_2   0.846567 0.734130 0.217997 -0.390747
O15   O     O_2   0.346616 0.765796 0.718027 -0.391024
O16   O     O_2   0.346595 0.234168 0.218021 -0.390843
O17   O     O_3   0.756269 0.480953 0.934628 -0.595632
O18   O     O_3   0.756276 0.519039 0.434632 -0.595603
O19   O     O_3   0.256264 0.980946 0.934617 -0.595638
O20   O     O_3   0.256279 0.019037 0.434625 -0.595580
O21   O     O_3   0.936610 0.177542 0.594842 -0.574646
O22   O     O_3   0.936508 0.822489 0.095010 -0.574438
O23   O     O_3   0.436610 0.677543 0.594834 -0.574651
O24   O     O_3   0.436555 0.322475 0.094920 -0.574526
H1    H     H_    0.012900 0.215730 0.803396 0.179091
H2    H     H_    0.013263 0.784153 0.302905 0.179264
H3    H     H_    0.512897 0.715730 0.803395 0.179090
H4    H     H_    0.513156 0.284189 0.303042 0.179205
C1    C     C_3   0.024929 0.101549 0.771848 -0.989410
C2    C     C_3   0.025069 0.898382 0.271728 -0.988653
C3    C     C_3   0.524921 0.601548 0.771851 -0.989430
C4    C     C_3   0.525019 0.398404 0.271746 -0.988815
H5    H     H_    0.586518 0.597414 0.843542 0.253507
H6    H     H_    0.482570 0.410114 0.351402 0.275831
H7    H     H_    0.086528 0.097415 0.843527 0.253505
H8    H     H_    0.982643 0.910076 0.351446 0.275920
P5    P     P_3+3 0.165830 0.418670 0.685610 0.448456
P6    P     P_3+3 0.165830 0.581330 0.185610 0.448500
P7    P     P_3+3 0.665830 0.918670 0.685610 0.448475
P8    P     P_3+3 0.665830 0.081330 0.185610 0.448503
P9    P     P_3+3 0.099412 0.262323 0.117307 0.421853
P10   P     P_3+3 0.099399 0.737684 0.617292 0.421929
P11   P     P_3+3 0.599410 0.762322 0.117309 0.421847
P12   P     P_3+3 0.599398 0.237685 0.617297 0.421895
O25   O     O_2   0.157990 0.394030 0.856030 -0.377246
O26   O     O_2   0.157990 0.605970 0.356030 -0.377431
O27   O     O_2   0.657990 0.894030 0.856030 -0.377293
O28   O     O_2   0.657990 0.105970 0.356030 -0.377396
O29   O     O_3   0.027110 0.329490 0.059550 -0.383419
O30   O     O_3   0.027110 0.670510 0.559550 -0.383333
O31   O     O_3   0.527110 0.829490 0.059550 -0.383422
O32   O     O_3   0.527110 0.170510 0.559550 -0.383352
O33   O     O_2   0.153357 0.260644 0.990821 -0.400993
O34   O     O_2   0.153367 0.739336 0.490847 -0.401014
O35   O     O_2   0.653357 0.760643 0.990824 -0.400987
O36   O     O_2   0.653360 0.239347 0.490841 -0.401019
O37   O     O_3   0.249735 0.474900 0.723185 -0.570245
O38   O     O_3   0.249737 0.525101 0.223111 -0.570192
O39   O     O_3   0.749736 0.974900 0.723179 -0.570231
O40   O     O_3   0.749740 0.025104 0.223134 -0.570199
O41   O     O_3   0.049614 0.179003 0.094819 -0.547991
O42   O     O_3   0.049579 0.820991 0.594676 -0.547821
O43   O     O_3   0.549611 0.679003 0.094817 -0.547978
O44   O     O_3   0.549579 0.320994 0.594715 -0.547861
C5    C     C_3   0.980930 0.184384 0.162116 0.398808
C6    C     C_3   0.980921 0.815634 0.662071 0.399021
C7    C     C_3   0.480927 0.684384 0.162117 0.398820
C8    C     C_3   0.480921 0.315628 0.662108 0.398905
H9    H     H_    0.930302 0.203840 0.067740 0.106875
H10   H     H_    0.930271 0.796160 0.567763 0.106951
H11   H     H_    0.430299 0.703841 0.067743 0.106867
H12   H     H_    0.430280 0.296126 0.567815 0.106917
H13   H     H_    0.988435 0.221609 0.268258 0.062194
H14   H     H_    0.988453 0.778433 0.768263 0.061911
H15   H     H_    0.488434 0.721608 0.268260 0.062193
H16   H     H_    0.488470 0.278445 0.768331 0.062009
C9    C     C_3   0.960728 0.109837 0.220032 -0.967184
C10   C     C_3   0.960739 0.890196 0.719940 -0.967315
C11   C     C_3   0.460726 0.609836 0.220031 -0.967163
C12   C     C_3   0.460708 0.390193 0.719910 -0.967062
H17   H     H_    0.401233 0.611028 0.252843 0.257315
H18   H     H_    0.401260 0.388984 0.752937 0.257339
H19   H     H_    0.960333 0.068612 0.124296 0.257096
H20   H     H_    0.901291 0.888999 0.752971 0.257356
H21   H     H_    0.005744 0.094070 0.328211 0.258088
H22   H     H_    0.960248 0.931389 0.624088 0.257087
H23   H     H_    0.460329 0.568613 0.124293 0.257105
H24   H     H_    0.460198 0.431372 0.624026 0.257041
C13   C     C_3   0.229213 0.456941 0.274447 0.415087
C14   C     C_3   0.229174 0.543087 0.774314 0.415508
C15   C     C_3   0.729209 0.956933 0.274394 0.415155
C16   C     C_3   0.729178 0.043085 0.774322 0.415523
H25   H     H_    0.204793 0.462584 0.385499 0.104975
H26   H     H_    0.204554 0.537496 0.885129 0.104971
H27   H     H_    0.704717 0.962554 0.385364 0.104941
H28   H     H_    0.704564 0.037491 0.885143 0.104938
H29   H     H_    0.185420 0.429445 0.177994 0.124623
H30   H     H_    0.185529 0.570588 0.677617 0.124693
H31   H     H_    0.685471 0.929434 0.177847 0.124653
H32   H     H_    0.685530 0.070588 0.677635 0.124691
C17   C     C_3   0.304412 0.411140 0.312255 -0.949188
C18   C     C_3   0.304395 0.588838 0.812555 -0.950222
C19   C     C_3   0.804424 0.911156 0.312354 -0.949343
C20   C     C_3   0.804400 0.088835 0.812556 -0.950226
H33   H     H_    0.349131 0.438405 0.406736 0.255309
H34   H     H_    0.348887 0.561656 0.907579 0.255462
H35   H     H_    0.849055 0.938384 0.407067 0.255331
H36   H     H_    0.848896 0.061649 0.907566 0.255455
H37   H     H_    0.291715 0.356807 0.356724 0.234280
H38   H     H_    0.291630 0.643253 0.856467 0.234521
H39   H     H_    0.791701 0.856784 0.356576 0.234347
H40   H     H_    0.791638 0.143248 0.856484 0.234515
H41   H     H_    0.329196 0.404595 0.201454 0.295396
H42   H     H_    0.329490 0.595186 0.702104 0.295450
H43   H     H_    0.829335 0.904704 0.201682 0.295453
H44   H     H_    0.829488 0.095188 0.702098 0.295458
Ba1   Ba    Ba6+2 0.000000 0.447380 0.844850 1.508671
Ba2   Ba    Ba6+2 0.000000 0.552620 0.344850 1.508687
Ba3   Ba    Ba6+2 0.500000 0.947380 0.844850 1.508671
Ba4   Ba    Ba6+2 0.500000 0.052620 0.344850 1.508681
C21   C     C_3   0.729325 0.515896 0.059378 0.352273
C22   C     C_3   0.729307 0.484124 0.559379 0.352334
C23   C     C_3   0.229342 0.015919 0.059361 0.352198
C24   C     C_3   0.229307 0.984122 0.559369 0.352365
H45   H     H_    0.714193 0.572732 0.021554 0.100376
H46   H     H_    0.714194 0.427279 0.521611 0.100365
H47   H     H_    0.214220 0.072753 0.021498 0.100345
H48   H     H_    0.214203 0.927275 0.521609 0.100347
H49   H     H_    0.775083 0.518652 0.167455 0.165788
H50   H     H_    0.775047 0.481391 0.667489 0.165748
H51   H     H_    0.275109 0.018679 0.167422 0.165809
H52   H     H_    0.275042 0.981396 0.667488 0.165737
C25   C     C_3   0.655334 0.478987 0.092034 -0.985800
C26   C     C_3   0.655291 0.521031 0.591922 -0.985832
C27   C     C_3   0.155351 0.979031 0.092080 -0.985603
C28   C     C_3   0.155284 0.021023 0.591888 -0.985840
H53   H     H_    0.609823 0.475048 0.978695 0.258964
H54   H     H_    0.609765 0.524869 0.478579 0.259007
H55   H     H_    0.109851 0.975036 0.978729 0.258951
H56   H     H_    0.109761 0.024850 0.478538 0.259026
H57   H     H_    0.630779 0.511706 0.180884 0.266903
H58   H     H_    0.630773 0.488367 0.680905 0.266867
H59   H     H_    0.130777 0.011798 0.180842 0.266904
H60   H     H_    0.130766 0.988362 0.680878 0.266862
O45   O     O_3   0.092100 0.536880 0.086720 -0.411164
O46   O     O_3   0.092100 0.463120 0.586720 -0.411252
O47   O     O_3   0.592100 0.036880 0.086720 -0.411188
O48   O     O_3   0.592100 0.963120 0.586720 -0.411239
P13   P     P_3+3 0.895561 0.735391 0.083030 0.418548
P14   P     P_3+3 0.895575 0.264602 0.582999 0.418454
P15   P     P_3+3 0.395569 0.235395 0.083018 0.418482
P16   P     P_3+3 0.395575 0.764603 0.582997 0.418454
C29   C     C_3   0.010592 0.177295 0.701696 0.518846
C30   C     C_3   0.010681 0.822693 0.201282 0.518022
C31   C     C_3   0.510590 0.677295 0.701697 0.518855
C32   C     C_3   0.510662 0.322697 0.201395 0.518374
H61   H     H_    0.058106 0.191219 0.634629 0.050001
H62   H     H_    0.058017 0.808905 0.133611 0.049664
H63   H     H_    0.558106 0.691215 0.634637 0.050005
H64   H     H_    0.558062 0.308872 0.133934 0.049746
H65   H     H_    0.515240 0.560909 0.673064 0.264447
H66   H     H_    0.586625 0.402510 0.343393 0.253377
H67   H     H_    0.015243 0.060911 0.673059 0.264446
H68   H     H_    0.086686 0.902463 0.343331 0.253347
H69   H     H_    0.505742 0.594069 0.328207 0.258088
H70   H     H_    0.505787 0.406040 0.827935 0.257997
H71   H     H_    0.901235 0.111028 0.252840 0.257329
H72   H     H_    0.005827 0.906014 0.827979 0.257985
C33   C     C_R   0.140845 0.674946 0.922581 -0.530049
C34   C     C_R   0.140879 0.325077 0.422566 -0.530080
C35   C     C_R   0.640850 0.174944 0.922581 -0.530033
C36   C     C_R   0.640876 0.825075 0.422568 -0.530063
C37   C     C_R   0.839087 0.337481 0.289368 -0.232940
C38   C     C_R   0.839091 0.662519 0.789376 -0.232833
C39   C     C_R   0.339085 0.837481 0.289366 -0.232975
C40   C     C_R   0.339087 0.162517 0.789377 -0.232832
C41   C     C_R   0.784854 0.217054 0.307572 -0.228990
C42   C     C_R   0.784861 0.782949 0.807577 -0.229011
C43   C     C_R   0.284853 0.717055 0.307569 -0.228996
C44   C     C_R   0.284857 0.282947 0.807580 -0.228999
C45   C     C_R   0.832068 0.274960 0.378852 0.268034
C46   C     C_R   0.832072 0.725041 0.878860 0.267869
C47   C     C_R   0.332067 0.774960 0.378850 0.268045
C48   C     C_R   0.332068 0.225039 0.878862 0.267897
C49   C     C_R   0.806847 0.339551 0.121197 0.238410
C50   C     C_R   0.806851 0.660450 0.621203 0.238364
C51   C     C_R   0.306845 0.839552 0.121195 0.238440
C52   C     C_R   0.306848 0.160448 0.621204 0.238354
C53   C     C_R   0.752617 0.283368 0.052011 -0.108032
C54   C     C_R   0.752628 0.716637 0.552015 -0.108128
C55   C     C_R   0.252614 0.783370 0.052010 -0.107999
C56   C     C_R   0.252627 0.216637 0.552015 -0.108131
C57   C     C_R   0.240228 0.721803 0.148017 -0.077096
C58   C     C_R   0.240239 0.278202 0.648023 -0.077005
C59   C     C_R   0.740230 0.221802 0.148019 -0.077082
C60   C     C_R   0.740242 0.778204 0.648021 -0.077005
C61   C     C_R   0.183413 0.667187 0.080777 0.308653
C62   C     C_R   0.183429 0.332823 0.580775 0.308499
C63   C     C_R   0.683415 0.167186 0.080778 0.308648
C64   C     C_R   0.683430 0.832823 0.580775 0.308559
C65   C     C_R   0.156006 0.732082 0.826210 0.238064
C66   C     C_R   0.156040 0.267940 0.326199 0.238336
C67   C     C_R   0.656012 0.232079 0.826209 0.238094
C68   C     C_R   0.656037 0.767938 0.326202 0.238276
C69   C     C_R   0.209306 0.787125 0.891103 -0.155926
C70   C     C_R   0.209325 0.212888 0.391102 -0.155808
C71   C     C_R   0.709310 0.287122 0.891102 -0.155896
C72   C     C_R   0.709323 0.712886 0.391105 -0.155800
H73   H     H_    0.283416 0.668886 0.379458 0.198771
H74   H     H_    0.283418 0.331115 0.879469 0.198727
H75   H     H_    0.783416 0.168886 0.379461 0.198777
H76   H     H_    0.783421 0.831117 0.879467 0.198759
H77   H     H_    0.714550 0.333175 0.815104 0.183393
H78   H     H_    0.714554 0.666829 0.315114 0.183410
H79   H     H_    0.214548 0.833177 0.815104 0.183394
H80   H     H_    0.214557 0.166831 0.315109 0.183397
H81   H     H_    0.097392 0.634379 0.870973 0.164056
H82   H     H_    0.097433 0.365649 0.370952 0.164064
H83   H     H_    0.597396 0.134377 0.870972 0.164053
H84   H     H_    0.597428 0.865646 0.370955 0.164063
H85   H     H_    0.670188 0.423760 0.141220 0.245959
H86   H     H_    0.670104 0.576298 0.640899 0.245972
H87   H     H_    0.170217 0.923826 0.141409 0.245926
H88   H     H_    0.170086 0.076295 0.640847 0.245965
C73   C     C_3   0.879149 0.402349 0.378944 -0.564639
H89   H     H_    0.853748 0.452769 0.326824 0.230766
H90   H     H_    0.866559 0.405854 0.502132 0.232889
H91   H     H_    0.944084 0.401589 0.380862 0.237028
C74   C     C_3   0.879154 0.597650 0.878952 -0.564669
H92   H     H_    0.853758 0.547229 0.826834 0.230752
H93   H     H_    0.944089 0.598410 0.880875 0.237019
H94   H     H_    0.866560 0.594144 0.002137 0.232887
C75   C     C_3   0.379146 0.902349 0.378942 -0.564648
H95   H     H_    0.353742 0.952768 0.326818 0.230774
H96   H     H_    0.366557 0.905854 0.502131 0.232890
H97   H     H_    0.444081 0.901591 0.380859 0.237032
C76   C     C_3   0.379153 0.097649 0.878952 -0.564708
H98   H     H_    0.353758 0.047228 0.826837 0.230751
H99   H     H_    0.444088 0.098411 0.880870 0.237029
H100  H     H_    0.366563 0.094144 0.002140 0.232864
H101  H     H_    0.982463 0.089785 0.851444 0.275768
H102  H     H_    0.015343 0.939099 0.173101 0.264258
H103  H     H_    0.482451 0.589786 0.851437 0.275765
H104  H     H_    0.515307 0.439096 0.173067 0.264313

loop_
_geom_bond_atom_site_label_1
_geom_bond_atom_site_label_2
_geom_bond_distance
_ccdc_geom_bond_type
C43   H73   1.078472 S    
P10   C65   1.836127 S    
C59   C63   1.434908 A    
O10   P13   1.768820 S    
P1    O17   1.759517 S    
P9    C66   1.836074 S    
O10   Ba2   2.808097 S    
O16   P15   1.546888 D    
C13   H25   1.106705 S    
C6    H14   1.115367 S    
O27   Ba3   2.863613 S    
C5    H13   1.115341 S    
C20   H44   1.109734 S    
P3    O19   1.759508 S    
O7    Ba4   2.841967 S    
C34   H82   1.082383 S    
P5    O37   1.748233 S    
C8    H12   1.111851 S    
O6    Ba1   2.841940 S    
C33   H81   1.082383 S    
C28   H60   1.109789 S    
C7    H15   1.115340 S    
P7    O39   1.748232 S    
Ba3   Ba4   4.647072 S    
P2    O2    1.541627 D    
C40   C76   1.503909 S    
P8    O40   1.748220 S    
P9    O33   1.548259 D    
C43   C57   1.410918 A    
P1    C49   1.883738 S    
O11   Ba3   2.808107 S    
P11   C68   1.836076 S    
C18   H38   1.106169 S    
P1    O1    1.541625 D    
C32   H64   1.112140 S    
C25   H57   1.109808 S    
C1    H101  1.107598 S    
C3    H5    1.107862 S    
C12   H18   1.109572 S    
C55   C69   1.411984 A    
C73   H91   1.109583 S    
P3    O3    1.541625 D    
P15   C48   1.852873 S    
C24   H52   1.077255 S    
C37   C73   1.503908 S    
P4    O20   1.759543 S    
C14   C18   1.519057 S    
C27   H59   1.109892 S    
O18   C22   1.391054 S    
C39   C47   1.396311 A    
P13   C46   1.852879 S    
C14   H26   1.106666 S    
C15   H27   1.106726 S    
C21   H49   1.077249 S    
O1    Ba1   2.860260 S    
O41   C5    1.410408 S    
O24   C32   1.399379 S    
C37   C45   1.396314 A    
Ba1   O46   2.953471 S    
P4    Ba4   3.420064 S    
C27   H87   1.109130 S    
C76   H98   1.081032 S    
C42   C46   1.399259 A    
C29   H61   1.111981 S    
P5    Ba1   3.422328 S    
C26   H86   1.109066 S    
P6    O45   1.592733 S    
P4    C52   1.883743 S    
C25   H85   1.109051 S    
C40   C48   1.396328 A    
C13   C17   1.519103 S    
P7    O27   1.540940 D    
C27   H55   1.107823 S    
P5    O25   1.540940 D    
C54   C60   1.435010 A    
P1    O5    1.587793 S    
C15   H31   1.111592 S    
C53   C71   1.411983 A    
O26   Ba2   2.863640 S    
C6    H10   1.111851 S    
O24   P15   1.746217 S    
C5    H9    1.111824 S    
C35   C67   1.387142 A    
P4    O8    1.587774 S    
C74   H92   1.081031 S    
P6    O38   1.748216 S    
P12   O32   1.749100 S    
C49   C53   1.434056 A    
P4    O4    1.541627 D    
O28   Ba4   2.863640 S    
C56   C70   1.411976 A    
P8    O28   1.540939 D    
Ba4   O48   2.841913 S    
P9    O29   1.749131 S    
C36   C64   1.393784 A    
C7    H11   1.111824 S    
C75   H95   1.081042 S    
P10   O34   1.548256 D    
C67   C71   1.400074 A    
O15   P16   1.546895 D    
C17   H41   1.109891 S    
C1    H67   1.108293 S    
C23   C27   1.512566 S    
C2    H68   1.107834 S    
O13   P14   1.546895 D    
C24   H48   1.110143 S    
C19   H43   1.109895 S    
C68   C72   1.400067 A    
P3    Ba3   3.420077 S    
P12   O36   1.548258 D    
C7    C11   1.521367 S    
P2    Ba2   3.420064 S    
C71   H77   1.078670 S    
P14   C45   1.852861 S    
O31   Ba3   2.807372 S    
C28   H88   1.109071 S    
P8    O47   1.592733 S    
C37   C49   1.416377 A    
C69   H79   1.078670 S    
Ba2   O45   2.953467 S    
C28   H56   1.107814 S    
C18   H42   1.109735 S    
C5    C9    1.521367 S    
C56   C58   1.435011 A    
C40   C52   1.416387 A    
C70   H80   1.078671 S    
C13   H29   1.111587 S    
C22   H46   1.110148 S    
C4    C32   1.516682 S    
O37   C14   1.396727 S    
O4    Ba4   2.860232 S    
C33   C61   1.393804 A    
H1    C29   1.107781 S    
P5    O46   1.592714 S    
C51   C55   1.434053 A    
C21   C25   1.512546 S    
C53   C59   1.435022 A    
C54   C72   1.411977 A    
O39   C16   1.396726 S    
P8    Ba4   3.422342 S    
C20   H36   1.108221 S    
C76   H99   1.109582 S    
C52   C56   1.434046 A    
C30   H62   1.112236 S    
C2    H102  1.108295 S    
C73   H89   1.081037 S    
C43   C47   1.399263 A    
C60   C64   1.434897 A    
P8    C63   1.866979 S    
O9    Ba1   2.808107 S    
C66   C70   1.400068 A    
C44   H74   1.078470 S    
Ba2   O46   2.841913 S    
C34   C62   1.393783 A    
C65   C69   1.400074 A    
O44   C8    1.410428 S    
O25   Ba1   2.863613 S    
P10   O30   1.749084 S    
O12   P15   1.768776 S    
C4    H66   1.107831 S    
O5    Ba2   2.841967 S    
Ba1   Ba2   4.647072 S    
C42   C60   1.410911 A    
P11   O43   1.747988 S    
C1    H7    1.107864 S    
P12   O44   1.747975 S    
C57   C61   1.434908 A    
C74   H93   1.109580 S    
C19   H39   1.106247 S    
O11   P16   1.768772 S    
C8    C12   1.521373 S    
O14   P13   1.546880 D    
C15   C19   1.519125 S    
P6    O26   1.540939 D    
C10   H72   1.108480 S    
C58   C62   1.434896 A    
C2    C30   1.516699 S    
C11   H17   1.109508 S    
Ba4   O47   2.953467 S    
C44   C58   1.410908 A    
C3    H103  1.107593 S    
C75   H96   1.106488 S    
C21   H45   1.110159 S    
P9    O41   1.747991 S    
C4    H104  1.108287 S    
C31   H63   1.111979 S    
O38   C13   1.396725 S    
C2    H8    1.107569 S    
O2    Ba2   2.860232 S    
P7    Ba3   3.422328 S    
O17   C21   1.391100 S    
C4    H6    1.107546 S    
P2    O6    1.587774 S    
O32   Ba4   2.807381 S    
P6    Ba2   3.422342 S    
P11   O31   1.749130 S    
C18   H34   1.108218 S    
P16   C47   1.852862 S    
C17   H37   1.106262 S    
O23   P16   1.746196 S    
H2    C30   1.107975 S    
C25   H53   1.107781 S    
Ba3   O48   2.953471 S    
C22   C26   1.512550 S    
C41   C45   1.399262 A    
C36   H84   1.082385 S    
O21   P14   1.746196 S    
C19   H35   1.108385 S    
C38   C50   1.416387 A    
Ba3   O47   2.841939 S    
P2    C50   1.883743 S    
O40   C15   1.396722 S    
C23   H51   1.077247 S    
O22   P13   1.746234 S    
C38   C74   1.503910 S    
C42   H76   1.078471 S    
C73   H90   1.106489 S    
P10   O42   1.747965 S    
C11   H23   1.108456 S    
C16   H28   1.106667 S    
O19   C23   1.391121 S    
C12   H70   1.108465 S    
C10   H22   1.108535 S    
C76   H100  1.106485 S    
C20   H40   1.106170 S    
C23   H47   1.110176 S    
C16   H32   1.111513 S    
O12   Ba4   2.808097 S    
C35   C63   1.393801 A    
C8    H16   1.115361 S    
O29   Ba1   2.807372 S    
P2    O18   1.759539 S    
O21   C29   1.399213 S    
C9    H19   1.108458 S    
C36   C68   1.387119 A    
O42   C6    1.410440 S    
O8    Ba3   2.841940 S    
C72   H78   1.078670 S    
C26   H58   1.109784 S    
C10   H20   1.109589 S    
C34   C66   1.387120 A    
C11   H69   1.108373 S    
P12   C67   1.836121 S    
C26   H54   1.107816 S    
C3    H65   1.108294 S    
Ba1   O45   2.841939 S    
O22   C30   1.399486 S    
C17   H33   1.108370 S    
O43   C7    1.410407 S    
C9    H71   1.109506 S    
C9    H21   1.108374 S    
O30   Ba2   2.807381 S    
P3    C51   1.883735 S    
C6    C10   1.521369 S    
C74   H94   1.106487 S    
P1    Ba1   3.420077 S    
O9    P14   1.768770 S    
C1    C29   1.516707 S    
C3    C31   1.516701 S    
P3    O7    1.587793 S    
C50   C54   1.434047 A    
P11   O35   1.548261 D    
C38   C46   1.396332 A    
C44   C48   1.399258 A    
C41   H75   1.078471 S    
C39   C51   1.416374 A    
C22   H50   1.077253 S    
C39   C75   1.503904 S    
C75   H97   1.109582 S    
P7    C64   1.866916 S    
O20   C24   1.391058 S    
C35   H83   1.082384 S    
C16   C20   1.519061 S    
P6    C61   1.866987 S    
C33   C65   1.387146 A    
C12   H24   1.108521 S    
H4    C32   1.107921 S    
P5    C62   1.866914 S    
O23   C31   1.399212 S    
H3    C31   1.107783 S    
P7    O48   1.592714 S    
C14   H30   1.111512 S    
O3    Ba3   2.860260 S    
C24   C28   1.512543 S    
C55   C57   1.435025 A    
C41   C59   1.410916 A    
