data_mof_unit_30124.cif
_audit_creation_date              2012-12-11T15:20:39-0500
_audit_creation_method            fapswitch 2.2
_symmetry_space_group_name_H-M    P1
_symmetry_Int_Tables_number       1
_space_group_crystal_system       triclinic
_cell_length_a                    12.995062
_cell_length_b                    13.003455
_cell_length_c                    15.306513
_cell_angle_alpha                 117.272631
_cell_angle_beta                  63.870799
_cell_angle_gamma                 97.460723
_cell_volume                      2055.6236162

loop_
_atom_site_label
_atom_site_type_symbol
_atom_type_description
_atom_site_fract_x
_atom_site_fract_y
_atom_site_fract_z
_atom_type_partial_charge
C1    C     C_R   0.997655 0.833175 0.058204 -0.040980
C2    C     C_R   0.300785 0.592248 0.791566 -0.112099
C3    C     C_R   0.259078 0.416999 0.048007 -0.095831
C4    C     C_R   0.679318 0.467685 0.218771 -0.060563
C5    C     C_R   0.059395 0.281136 0.684882 -0.071861
C6    C     C_R   0.361664 0.435604 0.975602 0.110270
C7    C     C_R   0.060965 0.170511 0.675146 0.056099
C8    C     C_R   0.296794 0.563289 0.695574 0.027842
C9    C     C_R   0.005551 0.152081 0.045572 0.064976
C10   C     C_R   0.159694 0.982152 0.383677 -0.151725
C11   C     C_R   0.174209 0.071024 0.471810 -0.110553
C12   C     C_R   0.672096 0.536038 0.321358 0.023414
C13   C     C_R   0.121078 0.065414 0.572174 0.076204
C14   C     C_R   0.102204 0.956009 0.569794 -0.160951
C15   C     C_R   0.110944 0.860204 0.473879 -0.179675
C16   C     C_R   0.756498 0.515182 0.890296 -0.217037
C17   C     C_R   0.122505 0.876341 0.385237 0.154625
C18   C     C_R   0.588078 0.493948 0.477996 -0.089103
C19   C     C_R   0.495253 0.509247 0.573820 -0.197781
C20   C     C_R   0.391763 0.564054 0.603620 0.136120
C21   C     C_R   0.378370 0.607198 0.540872 -0.161377
C22   C     C_R   0.472351 0.598074 0.447284 -0.163507
C23   C     C_R   0.667507 0.447678 0.916825 0.123790
C24   C     C_R   0.576409 0.542959 0.417015 0.058637
C25   C     C_2   0.473933 0.395855 0.950246 -0.192976
C26   C     C_2   0.569797 0.429257 0.890626 -0.166549
C27   C     C_2   0.829572 0.958013 0.096980 -0.230158
C28   C     C_R   0.018160 0.699394 0.303048 -0.186045
C29   C     C_2   0.819818 0.044393 0.192470 -0.043105
C30   C     C_R   0.683760 0.408963 0.980243 0.299154
C31   C     C_R   0.110105 0.791111 0.202181 -0.094294
C32   C     C_R   0.780760 0.557693 0.315246 -0.087301
C33   C     C_R   0.899376 0.747970 0.958764 -0.132509
C34   C     C_R   0.085164 0.792012 0.301174 -0.060888
C35   C     C_R   0.909944 0.852945 0.037261 0.085258
C36   C     C_2   0.249227 0.162835 0.454660 0.985580
C37   C     C_2   0.691587 0.420451 0.441453 1.023745
C38   C     C_2   0.001264 0.638455 0.368730 0.985816
C39   C     C_3   0.656334 0.291665 0.978116 -1.045226
C40   C     C_2   0.220843 0.822092 0.135847 0.955467
C41   C     C_R   0.338551 0.516919 0.951272 -0.077658
C42   C     C_R   0.985320 0.178275 0.777975 -0.122211
C43   C     C_R   0.199953 0.507836 0.694705 -0.070833
C44   C     C_R   0.050728 0.255883 0.088931 -0.096992
C45   C     C_R   0.949210 0.171821 0.995046 -0.108139
H1    H     H_    0.023484 0.894876 0.119962 0.117152
H2    H     H_    0.074304 0.945238 0.642721 0.126762
H3    H     H_    0.610009 0.430787 0.196801 0.111310
H4    H     H_    0.101410 0.776942 0.473654 0.157258
H5    H     H_    0.500965 0.471591 0.622060 0.150695
H6    H     H_    0.296361 0.647681 0.564604 0.127483
H7    H     H_    0.464367 0.633246 0.398366 0.134022
H8    H     H_    0.472473 0.360350 0.001798 0.156940
H9    H     H_    0.568907 0.466140 0.840132 0.140391
H10   H     H_    0.772382 0.963515 0.064461 0.150836
H11   H     H_    0.872071 0.043887 0.231357 0.109757
H12   H     H_    0.962527 0.107111 0.798611 0.097089
H13   H     H_    0.777307 0.546467 0.830531 0.134187
H14   H     H_    0.801735 0.603142 0.383060 0.115851
H15   H     H_    0.835425 0.730940 0.927853 0.115560
H16   H     H_    0.398373 0.556386 0.902534 0.095033
H17   H     H_    0.317339 0.254288 0.368543 0.329165
H18   H     H_    0.820454 0.297934 0.317238 0.326656
H19   H     H_    0.887346 0.765598 0.507073 0.279565
H20   H     H_    0.577852 0.299657 0.051688 0.239901
H21   H     H_    0.644584 0.231478 0.903884 0.263938
H22   H     H_    0.727798 0.251580 0.976619 0.256643
H23   H     H_    0.167377 0.483227 0.634499 0.102379
H24   H     H_    0.387767 0.846442 0.104044 0.327878
H25   H     H_    0.088013 0.276301 0.145019 0.128414
H26   H     H_    0.892352 0.114250 0.964303 0.095321
H27   H     H_    0.360238 0.646047 0.821192 0.126461
H28   H     H_    0.248597 0.362957 0.087262 0.114183
H29   H     H_    0.099050 0.309914 0.622942 0.102559
H30   H     H_    0.176028 0.998012 0.315691 0.159053
N1    N     N_R   0.037310 0.720000 0.995790 -0.036560
N2    N     N_R   0.824890 0.517960 0.936420 -0.058431
N3    N     N_R   0.003210 0.648190 0.211380 -0.064246
N4    N     N_R   0.774330 0.457010 0.995840 -0.064101
N5    N     N_R   0.053760 0.709140 0.151960 -0.071918
N6    N     N_R   0.853860 0.498840 0.211410 -0.032948
N7    N     N_R   0.974240 0.667310 0.936390 -0.051730
N8    N     N_R   0.225670 0.542990 0.004160 -0.055978
N9    N     N_R   0.946240 0.290860 0.848040 -0.044432
N10   N     N_R   0.146140 0.501160 0.788590 -0.047151
N11   N     N_R   0.025760 0.332690 0.063610 -0.039413
N12   N     N_R   0.962690 0.280000 0.004210 -0.048169
N13   N     N_R   0.209210 0.553840 0.847990 -0.040967
N14   N     N_R   0.175110 0.482040 0.063580 -0.040690
N15   N     N_R   0.996790 0.351810 0.788620 -0.048326
N16   N     N_R   0.790790 0.446160 0.152010 -0.040495
Ni1   Ni    Ni4+2 0.130310 0.630310 0.999970 0.264380
Ni2   Ni    Ni4+2 0.869690 0.369690 0.000030 0.216495
Ni3   Ni    Ni4+2 0.985640 0.509470 0.863740 0.218684
Ni4   Ni    Ni4+2 0.014360 0.490530 0.136260 0.276779
O1    O     O_2   0.301684 0.211380 0.510374 -0.641218
O2    O     O_R   0.263466 0.191046 0.372364 -0.802534
O3    O     O_2   0.722955 0.426715 0.508149 -0.630707
O4    O     O_R   0.750859 0.341359 0.331700 -0.793416
O5    O     O_2   0.049220 0.541377 0.324393 -0.607291
O6    O     O_R   0.926424 0.687307 0.479923 -0.781276
O7    O     O_2   0.230661 0.836207 0.059038 -0.670729
O8    O     O_R   0.316691 0.827273 0.156337 -0.795126

loop_
_geom_bond_atom_site_label_1
_geom_bond_atom_site_label_2
_ccdc_geom_bond_type
C9    C45   A    
N7    Ni3   S    
N14   Ni4   S    
C27   C29   D    
C19   C20   A    
C19   H5    S    
C8    C43   A    
C41   H16   S    
C3    C6    A    
C31   N5    A    
N8    Ni1   S    
C8    C20   S    
C18   C24   A    
C11   C36   S    
C45   N12   A    
C18   C37   S    
C25   H8    S    
N4    Ni2   S    
C38   O6    S    
N6    Ni4   S    
N3    N5    A    
C1    H1    S    
C7    C42   A    
C6    C25   S    
C45   H26   S    
C10   C17   A    
C41   N8    A    
N2    Ni3   S    
C31   C40   S    
C16   N2    A    
N10   Ni3   S    
C23   C26   S    
C5    H29   S    
H18   O4    S    
N13   Ni1   S    
C43   H23   S    
C6    C41   A    
C44   H25   S    
C36   O2    S    
C4    C12   A    
C28   N3    A    
C33   N7    A    
C5    N15   A    
C4    N16   A    
C2    H27   S    
N2    N4    A    
C28   C34   A    
C13   C14   A    
C12   C32   A    
C39   H20   S    
N9    N15   A    
C44   N11   A    
C26   H9    S    
C42   H12   S    
C37   O3    D    
N15   Ni3   S    
H24   O8    S    
H19   O6    S    
N8    N14   A    
C43   N10   A    
C23   C30   A    
C42   N9    A    
C38   O5    D    
N11   Ni4   S    
N1    N7    A    
C5    C7    A    
N11   N12   A    
C18   C19   A    
C27   C35   S    
C25   C26   D    
N5    Ni1   S    
C32   N6    A    
N16   Ni2   S    
H17   O2    S    
C10   H30   S    
C36   O1    D    
C28   C38   S    
N3    Ni4   S    
C31   C34   A    
C16   H13   S    
C2    N13   A    
N1    Ni1   S    
C30   N4    A    
C16   C23   A    
C39   H21   S    
C22   C24   A    
C17   C34   S    
C21   H6    S    
C1    C35   A    
C22   H7    S    
C4    H3    S    
N10   N13   A    
C15   C17   A    
C9    C44   A    
C1    N1    A    
C39   H22   S    
C2    C8    A    
C14   H2    S    
C29   H11   S    
C33   H15   S    
C12   C24   S    
C3    N14   A    
C40   O8    S    
C11   C13   A    
C37   O4    S    
N12   Ni2   S    
C33   C35   A    
C30   C39   S    
C27   H10   S    
N9    Ni2   S    
C15   H4    S    
C3    H28   S    
C10   C11   A    
C40   O7    D    
N6    N16   A    
C7    C13   S    
C20   C21   A    
C14   C15   A    
C32   H14   S    
C21   C22   A    
