data_mof_unit_42862.cif
_audit_creation_date              2012-12-10T18:47:46-0500
_audit_creation_method            fapswitch 2.2
_symmetry_space_group_name_H-M    P1
_symmetry_Int_Tables_number       1
_space_group_crystal_system       triclinic
_cell_length_a                    10.026736
_cell_length_b                    10.583559
_cell_length_c                    15.354609
_cell_angle_alpha                 92.695338
_cell_angle_beta                  69.831863
_cell_angle_gamma                 89.656757
_cell_volume                      1527.38100177

loop_
_atom_site_label
_atom_site_type_symbol
_atom_type_description
_atom_site_fract_x
_atom_site_fract_y
_atom_site_fract_z
_atom_type_partial_charge
C1    C     C_R   0.506110 0.738424 0.487565 0.870738
C2    C     C_R   0.388096 0.939609 0.479694 -0.059101
C3    C     C_R   0.490872 0.125195 0.523825 -0.187705
C4    C     C_R   0.514226 0.872462 0.469988 -0.275931
C5    C     C_R   0.952652 0.404451 0.453837 -0.056284
C6    C     C_R   0.047699 0.597676 0.543153 -0.019515
C7    C     C_R   0.094681 0.402334 0.456914 -0.028257
C8    C     C_R   0.904220 0.596306 0.544275 -0.023143
C9    C     C_R   0.411518 0.498630 0.675974 0.961714
C10   C     C_R   0.588149 0.507204 0.324320 0.855394
C11   C     C_R   0.360239 0.517063 0.778365 -0.102830
C12   C     C_R   0.495199 0.260663 0.510625 0.920392
C13   C     C_R   0.636215 0.548834 0.227115 -0.149672
C14   C     C_R   0.182002 0.613057 0.915969 -0.174342
C15   C     C_R   0.806566 0.657303 0.100136 -0.208574
C16   C     C_R   0.217134 0.550812 0.828960 -0.045631
C17   C     C_R   0.772005 0.601980 0.185810 -0.020203
C18   C     C_R   0.460978 0.523311 0.824039 -0.056214
C19   C     C_R   0.538452 0.553317 0.178944 -0.138714
C20   C     C_R   0.427061 0.596510 0.908436 -0.000157
C21   C     C_R   0.575050 0.613747 0.094413 0.038267
C22   C     C_R   0.285207 0.639400 0.955875 0.158864
C23   C     C_R   0.337824 0.672430 0.096980 -0.281449
C24   C     C_R   0.713535 0.656141 0.050358 0.133314
C25   C     C_R   0.526409 0.619927 0.952586 0.062333
C26   C     C_R   0.477114 0.628478 0.049368 0.115366
C27   C     C_2   0.132984 0.789884 0.087556 0.406505
C28   C     C_2   0.880171 0.764183 0.908627 0.407282
C29   C     C_2   0.406529 0.479268 0.207389 0.542983
C30   C     C_2   0.585724 0.432811 0.794468 0.505569
C31   C     C_1   0.881602 0.598010 0.227042 0.170268
C32   C     C_1   0.102260 0.512134 0.797796 0.299905
C33   C     C_2   0.779891 0.882266 0.412070 0.460308
C34   C     C_R   0.666092 0.656042 0.905464 -0.315436
C35   C     C_2   0.223501 0.107084 0.581613 0.431425
C36   C     C_2   0.718857 0.106997 0.558052 0.550598
C37   C     C_2   0.290837 0.889919 0.431695 0.377483
C38   C     C_2   0.909692 0.309483 0.394540 0.423963
C39   C     C_2   0.090253 0.706384 0.591114 0.415140
C40   C     C_2   0.188155 0.291336 0.415652 0.584204
C41   C     C_2   0.806194 0.701439 0.593769 0.430380
C42   C     C_R   0.248524 0.695026 0.047049 -0.025229
C43   C     C_R   0.754192 0.689969 0.956113 -0.033665
C44   C     C_R   0.636781 0.936562 0.469436 -0.002485
C45   C     C_R   0.369086 0.060404 0.522823 0.008996
C46   C     C_R   0.619291 0.058540 0.511234 -0.039573
H1    H     H_    0.072674 0.634178 0.954067 0.137716
H2    H     H_    0.129962 0.058398 0.579399 0.137170
H3    H     H_    0.700793 0.198687 0.594803 0.124668
H4    H     H_    0.313625 0.799325 0.392898 0.084655
H5    H     H_    0.832024 0.333736 0.364109 0.145584
H6    H     H_    0.061329 0.801907 0.580793 0.056761
H7    H     H_    0.154468 0.198691 0.440163 0.126379
H8    H     H_    0.830900 0.797228 0.572933 0.100049
H9    H     H_    0.907277 0.699573 0.072415 0.179274
H10   H     H_    0.306383 0.704779 0.169493 0.134761
H11   H     H_    0.699980 0.671881 0.831921 0.193310
H12   H     H_    0.082493 0.802604 0.162342 0.099391
H13   H     H_    0.935446 0.748342 0.834475 0.098600
H14   H     H_    0.313875 0.513497 0.265090 0.076454
H15   H     H_    0.677467 0.448100 0.814926 0.084486
H16   H     H_    0.790631 0.787358 0.380603 0.056951
N1    N     N_R   0.142780 0.500030 0.500020 -0.115271
N2    N     N_R   0.857220 0.499970 0.499980 -0.131346
N3    N     N_1   0.969534 0.594133 0.259849 -0.234226
N4    N     N_1   0.009999 0.480468 0.773347 -0.169095
O1    O     O_R   0.385370 0.683250 0.500010 -0.606068
O2    O     O_2   0.915900 0.851168 0.949936 -0.472109
O3    O     O_2   0.399258 0.382470 0.162921 -0.492320
O4    O     O_2   0.583207 0.333968 0.750792 -0.582669
O5    O     O_2   0.886542 0.945456 0.392767 -0.448735
O6    O     O_2   0.206112 0.195777 0.638570 -0.552229
O7    O     O_2   0.816549 0.041714 0.562845 -0.548206
O8    O     O_2   0.189844 0.952309 0.428875 -0.552358
O9    O     O_2   0.960512 0.202414 0.377753 -0.518859
O10   O     O_2   0.149092 0.691233 0.647233 -0.543088
O11   O     O_2   0.300031 0.300483 0.351897 -0.530317
O12   O     O_R   0.614630 0.316750 0.499990 -0.679454
O13   O     O_2   0.701672 0.683265 0.661276 -0.564375
O14   O     O_R   0.614700 0.683220 0.500000 -0.620350
O15   O     O_R   0.385300 0.316780 0.500000 -0.566473
O16   O     O_R   0.319830 0.500020 0.632250 -0.550619
O17   O     O_R   0.680170 0.499980 0.367750 -0.645299
O18   O     O_R   0.549160 0.499990 0.632240 -0.545331
O19   O     O_R   0.450840 0.500010 0.367760 -0.608057
O20   O     O_2   0.101822 0.862790 0.038115 -0.468944
Zn1   Zn    Zn3+2 0.346870 0.500020 0.500000 1.036173
Zn2   Zn    Zn3+2 0.653130 0.499980 0.500000 0.986132

loop_
_geom_bond_atom_site_label_1
_geom_bond_atom_site_label_2
_ccdc_geom_bond_type
C21   C26   A    
C10   O19   A    
C27   C42   S    
C37   O8    D    
C23   H10   S    
C11   C18   A    
C23   C42   A    
C28   O2    D    
C20   C25   A    
O16   Zn1   S    
C10   O17   A    
C31   N3    T    
C23   C26   A    
C3    C12   S    
C33   H16   S    
C12   O12   A    
C34   H11   S    
C7    C40   S    
C10   C13   S    
C36   C46   S    
C18   C30   S    
C9    O16   A    
O17   Zn2   S    
C5    C38   S    
C35   H2    S    
C30   O4    D    
C44   C46   A    
C29   O3    D    
C38   O9    D    
O19   Zn1   S    
C2    C45   A    
C13   C19   A    
C8    C41   S    
C5    C7    A    
C6    C8    A    
C38   H5    S    
C4    C44   A    
C25   C26   A    
C3    C45   A    
C5    N2    A    
C15   H9    S    
C6    N1    A    
C27   O20   D    
C2    C4    A    
C11   C16   A    
C29   H14   S    
C39   O10   D    
C9    C11   S    
C7    N1    A    
O15   Zn1   S    
C8    N2    A    
C15   C24   A    
C20   C22   A    
C35   O6    D    
C17   C31   S    
C14   C16   A    
C30   H15   S    
C19   C29   S    
C32   N4    T    
C28   H13   S    
O12   Zn2   S    
C15   C17   A    
C3    C46   A    
N1    Zn1   S    
C40   O11   D    
C33   C44   S    
C34   C43   A    
O18   Zn2   S    
C27   H12   S    
C41   O13   D    
C14   H1    S    
C16   C32   S    
C25   C34   A    
C28   C43   S    
O1    Zn1   S    
C13   C17   A    
C1    C4    S    
C14   C22   A    
O14   Zn2   S    
C37   H4    S    
C2    C37   S    
C22   C42   A    
C1    O1    A    
C12   O15   A    
C39   H6    S    
C18   C20   A    
C41   H8    S    
C36   O7    D    
C33   O5    D    
C9    O18   A    
C40   H7    S    
C21   C24   A    
C24   C43   A    
C6    C39   S    
C1    O14   A    
N2    Zn2   S    
C36   H3    S    
C19   C21   A    
C35   C45   S    
