data_mof_unit_40359.cif
_audit_creation_date              2012-10-26T18:33:02-0400
_audit_creation_method            fapswitch 2.2
_symmetry_space_group_name_H-M    P1
_symmetry_Int_Tables_number       1
_space_group_crystal_system       triclinic
_cell_length_a                    13.727772
_cell_length_b                    13.902751
_cell_length_c                    15.05185
_cell_angle_alpha                 89.23671
_cell_angle_beta                  90.589443
_cell_angle_gamma                 84.902443
_cell_volume                      2860.89706874

loop_
_atom_site_label
_atom_site_type_symbol
_atom_type_description
_atom_site_fract_x
_atom_site_fract_y
_atom_site_fract_z
_atom_type_partial_charge
C1    C     C_R   0.498763 0.504359 0.329082 0.610647
C2    C     C_R   0.500683 0.324964 0.958909 -0.063966
C3    C     C_R   0.798025 0.496363 0.422243 0.377830
C4    C     C_R   0.204235 0.475976 0.574690 0.407253
C5    C     C_R   0.792547 0.509970 0.578863 0.028521
C6    C     C_R   0.204437 0.532269 0.425536 0.015691
C7    C     C_R   0.895418 0.517130 0.582629 -0.021781
C8    C     C_R   0.100278 0.537887 0.422492 -0.038298
C9    C     C_R   0.946052 0.526150 0.502488 -0.057911
C10   C     C_R   0.049582 0.526084 0.502279 -0.051028
C11   C     C_R   0.893594 0.529694 0.421938 -0.021363
C12   C     C_R   0.501316 0.495476 0.670899 0.604650
C13   C     C_R   0.103106 0.508992 0.581513 -0.020574
C14   C     C_R   0.948281 0.518308 0.664126 0.153010
C15   C     C_R   0.045353 0.557717 0.343039 0.137877
C16   C     C_R   0.515657 0.317099 0.499626 0.575337
C17   C     C_R   0.484344 0.682795 0.500504 0.566413
C18   C     C_R   0.052338 0.517007 0.663546 0.288953
C19   C     C_R   0.941872 0.557091 0.343378 0.290434
C20   C     C_1   0.474989 0.785354 0.498381 0.066718
C21   C     C_1   0.524785 0.214342 0.499460 0.063439
C22   C     C_2   0.458703 0.975261 0.492476 0.228181
C23   C     C_R   0.502693 0.499410 0.952968 -0.002028
C24   C     C_2   0.539373 0.024163 0.498875 0.230726
C25   C     C_1   0.531630 0.127742 0.499290 0.084893
C26   C     C_1   0.467302 0.871823 0.495706 0.090369
C27   C     C_R   0.520801 0.407609 0.815897 0.226833
C28   C     C_R   0.485297 0.593628 0.184521 0.212613
C29   C     C_R   0.504821 0.495428 0.767250 0.026581
C30   C     C_R   0.495517 0.505138 0.232617 0.029373
C31   C     C_R   0.497633 0.585004 0.810479 0.091214
C32   C     C_R   0.498462 0.415946 0.189059 0.104027
C33   C     C_R   0.501353 0.586672 0.903628 0.043847
C34   C     C_R   0.498535 0.501818 0.046875 0.001042
C35   C     C_R   0.497805 0.414512 0.095942 0.047364
C36   C     C_3   0.576326 0.713460 0.737102 -0.291782
C37   C     C_3   0.408378 0.292635 0.257055 -0.283290
C38   C     C_3   0.837154 0.600941 0.771264 -0.265839
C39   C     C_3   0.125981 0.492890 0.212138 -0.268072
C40   C     C_R   0.508422 0.409798 0.908805 0.010048
C41   C     C_R   0.495504 0.591391 0.091190 0.012325
C42   C     C_R   0.503169 0.674072 0.948575 -0.092256
C43   C     C_R   0.497758 0.326948 0.050816 -0.090435
C44   C     C_R   0.504455 0.675743 0.040582 -0.061032
Cu1   Cu    Cu3+1 0.597420 0.500010 0.499990 1.099036
Cu2   Cu    Cu3+1 0.402580 0.499990 0.500010 1.087826
H1    H     H_    0.505409 0.742058 0.913146 0.172022
H2    H     H_    0.344469 0.750001 0.340404 0.383548
H3    H     H_    0.437316 0.673950 0.707960 0.277605
H4    H     H_    0.617539 0.666808 0.688581 0.155163
H5    H     H_    0.622965 0.720851 0.796896 0.157325
H6    H     H_    0.559402 0.786169 0.706465 0.197313
H7    H     H_    0.548106 0.324053 0.293723 0.302632
H8    H     H_    0.366777 0.341114 0.303957 0.170662
H9    H     H_    0.419443 0.219283 0.287495 0.206079
H10   H     H_    0.364819 0.288294 0.194872 0.158319
H11   H     H_    0.771442 0.283984 0.429919 0.361087
H12   H     H_    0.495186 0.258880 0.086073 0.175144
H13   H     H_    0.331943 0.237895 0.606492 0.403853
H14   H     H_    0.933787 0.477978 0.798438 0.324061
H15   H     H_    0.870341 0.635174 0.829038 0.208454
H16   H     H_    0.764002 0.580428 0.790865 0.142158
H17   H     H_    0.827793 0.654780 0.715826 0.161960
H18   H     H_    0.144051 0.627182 0.266749 0.279797
H19   H     H_    0.153685 0.515418 0.146733 0.167651
H20   H     H_    0.064826 0.447200 0.200470 0.207756
H21   H     H_    0.186010 0.449677 0.248533 0.129878
H22   H     H_    0.169652 0.461002 0.879744 0.372533
H23   H     H_    0.515533 0.743839 0.070674 0.208145
H24   H     H_    0.921464 0.548663 0.123958 0.358629
H25   H     H_    0.494142 0.256198 0.927972 0.205470
H26   H     H_    0.752425 0.508200 0.639705 0.181687
H27   H     H_    0.244456 0.549742 0.367298 0.171246
H28   H     H_    0.805882 0.008024 0.515532 0.389806
H29   H     H_    0.197807 0.989032 0.441735 0.392662
H30   H     H_    0.666019 0.256642 0.656965 0.379725
N1    N     N_R   0.743820 0.499960 0.499930 -0.266344
N2    N     N_R   0.256180 0.500040 0.500070 -0.255674
N3    N     N_2   0.485988 0.673589 0.760619 -0.514452
N4    N     N_2   0.502592 0.327280 0.238690 -0.509661
N5    N     N_2   0.897519 0.514813 0.746311 -0.493845
N6    N     N_2   0.092718 0.577649 0.261914 -0.476662
O1    O     O_R   0.582280 0.500030 0.370250 -0.430609
O2    O     O_2   0.677556 0.900613 0.428924 -0.215915
O3    O     O_3   0.741773 0.046602 0.510763 -0.494862
O4    O     O_2   0.303980 0.060033 0.575057 -0.239295
O5    O     O_2   0.335180 0.120676 0.424965 -0.284982
O6    O     O_3   0.263986 0.954281 0.441031 -0.497248
O7    O     O_2   0.624121 0.231229 0.826362 -0.258965
O8    O     O_2   0.481349 0.248562 0.726624 -0.263987
O9    O     O_3   0.640893 0.320989 0.678690 -0.509747
O10   O     O_2   0.540455 0.739751 0.283220 -0.213623
O11   O     O_2   0.402961 0.780958 0.180180 -0.272648
O12   O     O_R   0.417720 0.499970 0.629750 -0.455450
O13   O     O_3   0.369530 0.684826 0.320685 -0.542819
O14   O     O_2   0.721607 0.447244 0.262878 -0.176064
O15   O     O_2   0.878018 0.364989 0.307802 -0.263898
O16   O     O_3   0.724740 0.313909 0.384791 -0.494026
O17   O     O_2   0.310247 0.383944 0.709588 -0.223184
O18   O     O_2   0.151674 0.327229 0.675631 -0.216601
O19   O     O_3   0.289415 0.282039 0.567626 -0.449096
O20   O     O_2   0.216240 0.573033 0.742525 -0.260584
O21   O     O_2   0.060238 0.622858 0.811388 -0.272133
O22   O     O_3   0.127863 0.443673 0.829425 -0.461789
O23   O     O_R   0.417740 0.500020 0.370270 -0.519864
O24   O     O_2   0.769744 0.638292 0.275516 -0.189281
O25   O     O_2   0.919122 0.696572 0.217793 -0.233355
O26   O     O_3   0.874304 0.527629 0.167970 -0.444120
O27   O     O_R   0.582260 0.499980 0.629730 -0.516448
O28   O     O_R   0.593900 0.362160 0.500010 -0.455495
O29   O     O_R   0.406100 0.637840 0.499990 -0.488669
O30   O     O_R   0.429360 0.362150 0.500030 -0.458963
O31   O     O_R   0.570640 0.637850 0.499970 -0.483462
O32   O     O_2   0.667010 0.904117 0.591349 -0.300927
S1    S     S_3+6 0.658725 0.964691 0.507701 0.035009
S2    S     S_3+6 0.338334 0.032183 0.483743 0.032521
S3    S     S_3+6 0.565972 0.298224 0.762350 0.028368
S4    S     S_3+6 0.450885 0.704012 0.241306 0.023343
S5    S     S_3+6 0.780328 0.405957 0.341311 0.103595
S6    S     S_3+6 0.239913 0.367005 0.635655 0.132079
S7    S     S_3+6 0.116496 0.542388 0.763073 0.053708
S8    S     S_3+6 0.873614 0.608320 0.250397 0.110334

loop_
_geom_bond_atom_site_label_1
_geom_bond_atom_site_label_2
_ccdc_geom_bond_type
C19   S8    S    
O6    S2    S    
C16   C21   S    
H2    O13   S    
Cu2   O30   S    
C12   C29   S    
C27   C29   A    
C14   C18   A    
O14   S5    D    
O32   S1    D    
C17   O31   A    
O16   S5    S    
Cu1   Cu2   S    
C15   C19   A    
C11   C19   A    
C13   C18   A    
C33   C42   A    
C5    H26   S    
Cu1   O27   S    
C6    N2    A    
C23   C40   A    
Cu2   O23   S    
C28   C41   A    
C17   C20   S    
O4    S2    D    
C34   C35   A    
C4    C13   A    
O10   S4    D    
C43   H12   S    
O17   S6    D    
C37   H10   S    
C7    C14   A    
C23   C33   A    
O9    S3    S    
O18   S6    D    
O20   S7    D    
C35   C43   A    
C9    C10   A    
C2    C43   A    
C36   H6    S    
C38   H15   S    
C22   S2    S    
Cu2   O29   S    
C39   H19   S    
C12   O12   A    
Cu1   O1    S    
C34   C41   A    
C42   C44   A    
C17   O29   A    
C12   O27   A    
C15   N6    S    
C27   S3    S    
O13   S4    S    
C37   N4    S    
C16   O28   A    
H13   O19   S    
O8    S3    D    
O3    S1    S    
H7    N4    S    
C24   C25   S    
C5    C7    A    
Cu1   O28   S    
C6    C8    A    
O22   S7    S    
C18   S7    S    
C10   C13   A    
H3    N3    S    
O15   S5    D    
C32   C35   A    
C4    N2    A    
C2    C40   A    
C32   N4    S    
H14   N5    S    
Cu2   O12   S    
C27   C40   A    
C23   C34   A    
O24   S8    D    
C31   C33   A    
C44   H23   S    
C9    C11   A    
H18   N6    S    
O5    S2    D    
C36   H5    S    
C3    S5    S    
C37   H8    S    
O7    S3    D    
C8    C15   A    
C38   N5    S    
C39   H20   S    
C22   C24   D    
C1    O1    A    
O11   S4    D    
C5    N1    A    
C2    H25   S    
C3    N1    A    
C36   H4    S    
C16   O30   A    
C6    H27   S    
Cu2   N2    S    
C38   H17   S    
C7    C9    A    
C21   C25   T    
O19   S6    S    
C39   H21   S    
H22   O22   S    
C39   N6    S    
O26   S8    S    
C36   N3    S    
C31   N3    S    
O2    S1    D    
O25   S8    D    
C28   C30   A    
C29   C31   A    
C28   S4    S    
C30   C32   A    
C20   C26   T    
H11   O16   S    
C1    C30   S    
C41   C44   A    
C42   H1    S    
H28   O3    S    
C3    C11   A    
H30   O9    S    
C37   H9    S    
Cu1   O31   S    
H29   O6    S    
C24   S1    S    
C8    C10   A    
C22   C26   S    
C4    S6    S    
Cu1   N1    S    
C14   N5    S    
H24   O26   S    
C1    O23   A    
C38   H16   S    
O21   S7    D    
