data_mof_unit_40880.cif
_audit_creation_date              2012-12-11T15:12:48-0500
_audit_creation_method            fapswitch 2.2
_symmetry_space_group_name_H-M    P1
_symmetry_Int_Tables_number       1
_space_group_crystal_system       triclinic
_cell_length_a                    22.328532
_cell_length_b                    6.964071
_cell_length_c                    19.390264
_cell_angle_alpha                 90.001647
_cell_angle_beta                  99.241556
_cell_angle_gamma                 90.000524
_cell_volume                      2976.00088472

loop_
_atom_site_label
_atom_site_type_symbol
_atom_type_description
_atom_site_fract_x
_atom_site_fract_y
_atom_site_fract_z
_atom_type_partial_charge
O1    O     O_R   0.448420 0.506120 0.415750 -0.536493
O2    O     O_R   0.551580 0.006120 0.584250 -0.536491
O3    O     O_R   0.436490 0.174470 0.555610 -0.535225
O4    O     O_R   0.563510 0.674470 0.444390 -0.535227
C1    C     C_R   0.421114 0.344728 0.575663 0.713376
C2    C     C_R   0.578886 0.844726 0.424337 0.713373
O5    O     O_R   0.441310 0.176330 0.414520 -0.536590
O6    O     O_R   0.558690 0.676330 0.585480 -0.536589
O7    O     O_R   0.556430 0.007110 0.442150 -0.532217
O8    O     O_R   0.443570 0.507110 0.557850 -0.532223
C3    C     C_R   0.426861 0.345028 0.388399 0.684979
C4    C     C_R   0.573138 0.845035 0.611601 0.684984
O9    O     O_3   0.537770 0.339560 0.509230 -0.365036
O10   O     O_3   0.462230 0.839560 0.490770 -0.365040
V1    V     V_3+5 0.492990 0.064280 0.498290 1.455050
V2    V     V_3+5 0.507010 0.564280 0.501710 1.455043
C5    C     C_R   0.867221 0.975932 0.695713 -0.145061
C6    C     C_R   0.132794 0.476233 0.304278 -0.145069
H1    H     H_    0.954440 0.003002 0.759787 0.140140
H2    H     H_    0.045576 0.503315 0.240203 0.140153
H3    H     H_    0.885638 0.002503 0.648173 0.131717
H4    H     H_    0.114384 0.502947 0.351813 0.131719
C7    C     C_R   0.884581 0.941293 0.821497 -0.050469
C8    C     C_R   0.115420 0.441329 0.178503 -0.050478
C9    C     C_R   0.589964 0.818913 0.739719 -0.158617
C10   C     C_R   0.410025 0.318705 0.260286 -0.158608
C11   C     C_R   0.626610 0.817420 0.804827 -0.108107
C12   C     C_R   0.373376 0.317132 0.195181 -0.108111
C13   C     C_R   0.688955 0.847286 0.810893 -0.157621
C14   C     C_R   0.311035 0.347075 0.189113 -0.157622
C15   C     C_R   0.716635 0.880216 0.751248 0.078106
C16   C     C_R   0.283362 0.380170 0.248753 0.078109
C17   C     C_R   0.678466 0.883325 0.684308 0.067911
C18   C     C_R   0.321537 0.383376 0.315689 0.067915
C19   C     C_R   0.780801 0.909906 0.755813 0.075925
C20   C     C_R   0.219200 0.409933 0.244187 0.075925
C21   C     C_R   0.804838 0.943731 0.693312 0.128615
C22   C     C_R   0.195172 0.443939 0.306682 0.128619
C23   C     C_R   0.766614 0.946029 0.628660 -0.189935
C24   C     C_R   0.233400 0.446327 0.371330 -0.189946
C25   C     C_R   0.704568 0.915990 0.624106 -0.187927
C26   C     C_R   0.295442 0.416209 0.375886 -0.187945
C27   C     C_R   0.822206 0.908055 0.819958 -0.211946
C28   C     C_R   0.177790 0.407989 0.180045 -0.211950
C29   C     C_R   0.906575 0.975837 0.759208 -0.152305
C30   C     C_R   0.093436 0.476060 0.240786 -0.152302
C31   C     C_R   0.614868 0.851998 0.679112 -0.088968
C32   C     C_R   0.385130 0.351963 0.320888 -0.088979
H5    H     H_    0.714172 0.843572 0.863098 0.111183
H6    H     H_    0.285814 0.343287 0.136910 0.111181
H7    H     H_    0.606497 0.792008 0.851228 0.132080
H8    H     H_    0.393482 0.291588 0.148784 0.132077
C33   C     C_3   0.815126 0.789254 0.272969 -0.150128
C34   C     C_3   0.184876 0.289235 0.727031 -0.150133
C35   C     C_3   0.775457 0.124007 0.234225 -0.177876
C36   C     C_3   0.224542 0.624004 0.765777 -0.177878
C37   C     C_3   0.727624 0.106001 0.286096 -0.174111
C38   C     C_3   0.272376 0.606004 0.713908 -0.174115
H9    H     H_    0.817557 0.182307 0.265570 0.148041
H10   H     H_    0.182442 0.682292 0.734431 0.148074
H11   H     H_    0.752274 0.149056 0.338435 0.123010
H12   H     H_    0.247729 0.649057 0.661570 0.122993
C39   C     C_1   0.624752 0.855621 0.379192 -0.161662
C40   C     C_1   0.375249 0.355626 0.620809 -0.161661
C41   C     C_3   0.791680 0.920103 0.208267 0.111929
C42   C     C_3   0.208320 0.420098 0.791733 0.111937
C43   C     C_3   0.767156 0.777326 0.323286 -0.412195
C44   C     C_3   0.232844 0.277326 0.676712 -0.412205
C45   C     C_3   0.708796 0.890633 0.293376 0.181105
C46   C     C_3   0.291204 0.390638 0.706625 0.181108
C47   C     C_3   0.684510 0.806601 0.219889 -0.303680
C48   C     C_3   0.315490 0.306611 0.780110 -0.303682
C49   C     C_3   0.732187 0.826579 0.170150 -0.344477
C50   C     C_3   0.267813 0.326589 0.829851 -0.344477
C51   C     C_1   0.662673 0.869333 0.340899 -0.032720
C52   C     C_1   0.337328 0.369340 0.659101 -0.032721
C53   C     C_1   0.837743 0.930627 0.160079 -0.012177
C54   C     C_1   0.162257 0.430621 0.839921 -0.012189
C55   C     C_1   0.875473 0.939931 0.121394 -0.123579
C56   C     C_1   0.124527 0.439926 0.878606 -0.123592
H13   H     H_    0.741942 0.682849 0.150261 0.182326
H14   H     H_    0.258061 0.182861 0.849740 0.182319
H15   H     H_    0.820154 0.641688 0.252772 0.168593
H16   H     H_    0.179856 0.141668 0.747228 0.168602
H17   H     H_    0.755798 0.624030 0.330665 0.184652
H18   H     H_    0.244203 0.124034 0.669325 0.184661
H19   H     H_    0.641585 0.877658 0.196389 0.199769
H20   H     H_    0.358416 0.377668 0.803611 0.199768
O11   O     O_R   0.056480 0.288780 0.942210 -0.533500
O12   O     O_R   0.943520 0.788780 0.057790 -0.533499
O13   O     O_R   0.058700 0.616820 0.085490 -0.538458
O14   O     O_R   0.941300 0.116820 0.914510 -0.538454
C57   C     C_R   0.073101 0.448444 0.111715 0.695704
C58   C     C_R   0.926899 0.948437 0.888285 0.695704
O15   O     O_R   0.063520 0.618570 0.944410 -0.533063
O16   O     O_R   0.936480 0.118570 0.055590 -0.533064
O17   O     O_R   0.948420 0.787670 0.915740 -0.536597
O18   O     O_R   0.051580 0.287670 0.084260 -0.536593
C59   C     C_R   0.078917 0.449799 0.924131 0.718411
C60   C     C_R   0.921082 0.949801 0.075869 0.718409
O19   O     O_3   0.962260 0.453430 0.990800 -0.367470
O20   O     O_3   0.037740 0.953430 0.009200 -0.367471
V3    V     V_3+5 0.007000 0.728750 0.001710 1.470045
V4    V     V_3+5 0.993000 0.228750 0.998290 1.470046
C61   C     C_2   0.877154 0.845871 0.311646 0.761363
O21   O     O_2   0.921400 0.747924 0.305239 -0.556258
O22   O     O_R   0.883943 0.006526 0.355483 -0.672702
H21   H     H_    0.927580 0.027771 0.378227 0.303636
C62   C     C_2   0.122845 0.345811 0.688356 0.761377
O23   O     O_2   0.078609 0.247794 0.694740 -0.556250
O24   O     O_R   0.116042 0.506508 0.644543 -0.672699
H22   H     H_    0.072406 0.527714 0.621795 0.303638
C63   C     C_2   0.760592 0.265095 0.173920 0.732095
O25   O     O_2   0.799512 0.379152 0.162684 -0.585643
O26   O     O_R   0.705517 0.257103 0.128166 -0.638880
H23   H     H_    0.702673 0.356572 0.089605 0.291873
C64   C     C_2   0.239403 0.765104 0.826083 0.732095
O27   O     O_2   0.200482 0.879161 0.837315 -0.585640
O28   O     O_R   0.294476 0.757122 0.871840 -0.638880
H24   H     H_    0.297317 0.856593 0.910402 0.291872
C65   C     C_2   0.673432 0.240926 0.273388 0.753767
O29   O     O_2   0.634103 0.222683 0.222190 -0.537842
O30   O     O_R   0.666532 0.378892 0.323866 -0.683543
H25   H     H_    0.627355 0.454062 0.311945 0.288313
C66   C     C_2   0.326568 0.740931 0.726621 0.753768
O31   O     O_2   0.365895 0.722691 0.777821 -0.537842
O32   O     O_R   0.333470 0.878900 0.676146 -0.683546
H26   H     H_    0.372648 0.954072 0.688071 0.288307
H27   H     H_    0.712770 0.909726 0.123104 0.195933
H28   H     H_    0.287231 0.409747 0.876895 0.195942
H29   H     H_    0.673483 0.652087 0.224718 0.169274
H30   H     H_    0.326516 0.152097 0.775278 0.169276
H31   H     H_    0.784913 0.971426 0.580954 0.132626
H32   H     H_    0.215108 0.471859 0.419032 0.132628
H33   H     H_    0.807575 0.883464 0.869534 0.094809
H34   H     H_    0.192415 0.383262 0.130474 0.094818
H35   H     H_    0.541693 0.793721 0.736531 0.121399
H36   H     H_    0.458292 0.293438 0.263476 0.121406
H37   H     H_    0.677082 0.918958 0.572746 0.111476
H38   H     H_    0.322931 0.419251 0.427243 0.111499
H39   H     H_    0.785693 0.833125 0.376211 0.173843
H40   H     H_    0.214306 0.333134 0.623791 0.173828

loop_
_geom_bond_atom_site_label_1
_geom_bond_atom_site_label_2
_ccdc_geom_bond_type
C38   H12   S    
C22   C24   A    
C28   H34   S    
C7    C29   A    
C35   H9    S    
C11   C13   A    
C44   H18   S    
C36   C64   S    
O24   H22   S    
O1    C3    A    
O2    C4    A    
C2    O7    A    
C34   H16   S    
C7    C27   A    
O30   H25   S    
C23   C25   A    
C13   H5    S    
O5    C3    A    
C61   O22   S    
O11   C59   A    
C16   C20   A    
C19   C21   A    
C5    C29   A    
C64   O28   S    
O20   V4    S    
O15   C59   A    
C34   C44   S    
O26   H23   S    
C42   C50   S    
C41   C49   S    
C49   H13   S    
C45   C47   S    
C62   O24   S    
C35   C41   S    
C25   H37   S    
O15   V3    S    
C12   C14   A    
C18   C26   A    
O22   H21   S    
C15   C17   A    
C44   H40   S    
C19   C27   A    
C9    C31   A    
C10   C32   A    
O5    V1    S    
C14   H6    S    
O6    V2    S    
C3    C32   S    
C36   C42   S    
C50   H14   S    
C4    C31   S    
C6    C30   A    
O12   C60   A    
C48   H20   S    
C11   H7    S    
C48   H30   S    
C53   C55   T    
C42   C54   S    
C49   H27   S    
C43   H17   S    
C41   C53   S    
C26   H38   S    
C55   C60   S    
C48   C50   S    
C47   C49   S    
C38   C46   S    
C35   C63   S    
C58   O17   A    
O3    C1    A    
C24   H32   S    
C5    H3    S    
C36   H10   S    
C1    C40   S    
C43   C45   S    
C16   C18   A    
C2    C39   S    
O4    V2    S    
C9    H35   S    
O13   C57   A    
O6    C4    A    
O14   C58   A    
C40   C52   T    
O1    V2    S    
C5    C21   A    
C27   H33   S    
O2    V1    S    
C65   O29   D    
O17   V3    S    
C38   C66   S    
C47   H19   S    
O4    C2    A    
O19   V4    S    
O9    V1    S    
O11   V4    S    
C46   C52   S    
C66   O31   D    
C8    C28   A    
O10   V2    S    
C20   C28   A    
C18   C32   A    
C56   C59   S    
C43   H39   S    
C50   H28   S    
C33   C41   S    
C63   O25   D    
C23   H31   S    
O16   V4    S    
C6    H4    S    
O13   V3    S    
C10   H36   S    
O28   H24   S    
H1    C29   S    
C37   H11   S    
C34   C42   S    
C9    C11   A    
C61   O21   D    
C10   C12   A    
C7    C58   S    
C33   H15   S    
C8    C30   A    
C35   C37   S    
C6    C22   A    
C17   C25   A    
C1    O8    A    
C13   C15   A    
O8    V2    S    
C64   O27   D    
C20   C22   A    
C14   C16   A    
C12   H8    S    
C39   C51   T    
C17   C31   A    
O16   C60   A    
C15   C19   A    
C24   C26   A    
C36   C38   S    
C45   C51   S    
C54   C56   T    
O7    V1    S    
O20   V3    S    
C33   C43   S    
O12   V3    S    
C65   O30   S    
O14   V4    S    
C37   C65   S    
C33   C61   S    
C21   C23   A    
C34   C62   S    
C47   H29   S    
O19   V3    S    
O9    V2    S    
C62   O23   D    
C66   O32   S    
C44   C46   S    
O10   V1    S    
O3    V1    S    
C46   C48   S    
C37   C45   S    
C8    C57   S    
C57   O18   A    
O18   V4    S    
H2    C30   S    
O32   H26   S    
C63   O26   S    
