data_mof_unit_34430.cif
_audit_creation_date              2012-12-10T18:52:13-0500
_audit_creation_method            fapswitch 2.2
_symmetry_space_group_name_H-M    P1
_symmetry_Int_Tables_number       1
_space_group_crystal_system       triclinic
_cell_length_a                    15.721447
_cell_length_b                    10.622188
_cell_length_c                    9.922277
_cell_angle_alpha                 89.068228
_cell_angle_beta                  88.913899
_cell_angle_gamma                 90.918735
_cell_volume                      1656.24409897

loop_
_atom_site_label
_atom_site_type_symbol
_atom_type_description
_atom_site_fract_x
_atom_site_fract_y
_atom_site_fract_z
_atom_type_partial_charge
C1    C     C_R   0.501790 0.260600 0.500774 0.854540
C2    C     C_R   0.498210 0.739400 0.499226 0.854540
C3    C     C_R   0.565919 0.934859 0.437215 -0.088893
C4    C     C_R   0.434081 0.065141 0.562785 -0.088894
C5    C     C_R   0.496385 0.871915 0.497697 -0.153060
C6    C     C_R   0.503615 0.128084 0.502303 -0.153059
C7    C     C_R   0.565762 0.555085 0.066628 0.046978
C8    C     C_R   0.434238 0.444914 0.933372 0.046978
C9    C     C_R   0.565568 0.553398 0.923802 -0.150354
C10   C     C_R   0.434432 0.446601 0.076198 -0.150354
C11   C     C_R   0.338065 0.499711 0.501108 0.893893
C12   C     C_R   0.661935 0.500289 0.498892 0.893892
C13   C     C_3   0.968021 0.454648 0.618556 -0.247207
C14   C     C_3   0.031979 0.545352 0.381443 -0.247207
C15   C     C_3   0.025073 0.382409 0.519351 0.048615
C16   C     C_3   0.974927 0.617591 0.480649 0.048614
C17   C     C_1   0.249166 0.499542 0.503495 -0.143869
C18   C     C_1   0.750834 0.500457 0.496505 -0.143869
C19   C     C_3   0.027330 0.572542 0.601452 -0.241914
C20   C     C_3   0.972670 0.427458 0.398547 -0.241913
C21   C     C_3   0.083007 0.498735 0.502503 0.174298
C22   C     C_3   0.916993 0.501265 0.497497 0.174298
C23   C     C_1   0.173876 0.499237 0.503932 0.012566
C24   C     C_1   0.826124 0.500762 0.496068 0.012566
C25   C     C_R   0.570818 0.064730 0.439028 -0.042623
C26   C     C_R   0.429182 0.935270 0.560972 -0.042623
H1    H     H_    0.940316 0.416929 0.715042 0.153089
H2    H     H_    0.059684 0.583071 0.284958 0.153089
H3    H     H_    0.948772 0.367750 0.316141 0.159053
H4    H     H_    0.051228 0.632250 0.683859 0.159053
H5    H     H_    0.617234 0.881889 0.392259 0.226882
H6    H     H_    0.382766 0.118110 0.607742 0.226882
H7    H     H_    0.617441 0.597175 0.865909 0.144044
H8    H     H_    0.382559 0.402824 0.134091 0.144044
N1    N     N_R   0.499980 0.499970 0.857200 -0.087622
N2    N     N_R   0.500020 0.500030 0.142800 -0.087622
O1    O     O_R   0.499990 0.316750 0.614620 -0.553436
O2    O     O_R   0.500010 0.683250 0.385380 -0.553436
O3    O     O_R   0.500000 0.316780 0.385290 -0.627065
O4    O     O_R   0.500000 0.683220 0.614710 -0.627064
O5    O     O_R   0.376780 0.499970 0.614640 -0.600080
O6    O     O_R   0.623220 0.500030 0.385360 -0.600080
O7    O     O_R   0.376780 0.500000 0.385310 -0.625105
O8    O     O_R   0.623220 0.500000 0.614690 -0.625104
Zn1   Zn    Zn3+2 0.500000 0.499980 0.653120 1.000466
Zn2   Zn    Zn3+2 0.500000 0.500020 0.346880 1.000466
C27   C     C_2   0.051357 0.248864 0.541412 0.402032
H9    H     H_    0.003108 0.175016 0.551469 0.070226
O9    O     O_2   0.126390 0.222332 0.548177 -0.534745
C28   C     C_2   0.948643 0.751136 0.458587 0.402032
H10   H     H_    0.996892 0.824984 0.448531 0.070225
O10   O     O_2   0.873610 0.777667 0.451823 -0.534745
C29   C     C_2   0.646718 0.131946 0.379300 0.427986
H11   H     H_    0.654873 0.232785 0.389829 0.048759
O11   O     O_2   0.701704 0.075044 0.317954 -0.538186
C30   C     C_2   0.353282 0.868053 0.620700 0.427989
H12   H     H_    0.345126 0.767215 0.610168 0.048757
O12   O     O_2   0.298297 0.924955 0.682048 -0.538187
C31   C     C_2   0.638651 0.619389 0.127730 0.468072
H13   H     H_    0.702473 0.603128 0.088892 0.030492
O13   O     O_2   0.628294 0.698425 0.213699 -0.527834
C32   C     C_2   0.361349 0.380611 0.872270 0.468072
H14   H     H_    0.297527 0.396872 0.911108 0.030492
O14   O     O_2   0.371706 0.301575 0.786301 -0.527834

loop_
_geom_bond_atom_site_label_1
_geom_bond_atom_site_label_2
_ccdc_geom_bond_type
C28   O10   D    
C11   O7    A    
C32   H14   S    
C2    O4    A    
C30   O12   D    
C7    N2    A    
C2    O2    A    
C29   O11   D    
C4    C26   A    
C27   H9    S    
C15   C21   S    
C3    C5    A    
O4    Zn1   S    
C13   C15   S    
C28   H10   S    
C31   H13   S    
C27   O9    D    
C4    H6    S    
C29   H11   S    
C30   H12   S    
C3    H5    S    
N2    Zn2   S    
C10   H8    S    
C17   C23   T    
O6    Zn2   S    
C9    H7    S    
O3    Zn2   S    
C18   C24   T    
C1    O3    A    
C14   C21   S    
C7    C31   S    
C19   C21   S    
C20   C22   S    
C13   C22   S    
C11   O5    A    
C14   C16   S    
C20   H3    S    
C21   C23   S    
C16   C19   S    
C15   C20   S    
C16   C28   S    
O7    Zn2   S    
C22   C24   S    
C31   O13   D    
C2    C5    S    
O2    Zn2   S    
C13   C19   S    
C12   O6    A    
C5    C26   A    
N1    Zn1   S    
C14   C20   S    
C3    C25   A    
O8    Zn1   S    
C12   O8    A    
C4    C6    A    
C6    C25   A    
C12   C18   S    
C7    C9    A    
O5    Zn1   S    
C15   C27   S    
C11   C17   S    
C9    N1    A    
C32   O14   D    
C14   H2    S    
C19   H4    S    
O1    Zn1   S    
C8    C10   A    
C13   H1    S    
C25   C29   S    
C1    C6    S    
C8    C32   S    
C16   C22   S    
C1    O1    A    
C10   N2    A    
C8    N1    A    
C26   C30   S    
