data_mof_unit_27531.cif
_audit_creation_date              2012-12-10T17:43:41-0500
_audit_creation_method            fapswitch 2.2
_symmetry_space_group_name_H-M    P1
_symmetry_Int_Tables_number       1
_space_group_crystal_system       triclinic
_cell_length_a                    14.932796
_cell_length_b                    10.671805
_cell_length_c                    9.921439
_cell_angle_alpha                 90.145257
_cell_angle_beta                  90.229746
_cell_angle_gamma                 91.177331
_cell_volume                      1580.72749212

loop_
_atom_site_label
_atom_site_type_symbol
_atom_type_description
_atom_site_fract_x
_atom_site_fract_y
_atom_site_fract_z
_atom_type_partial_charge
C1    C     C_R   0.507670 0.260240 0.500563 0.881745
C2    C     C_R   0.184540 0.388856 0.532040 0.026330
C3    C     C_R   0.231258 0.498920 0.495842 -0.135483
C4    C     C_R   0.327025 0.499718 0.499202 0.966376
C5    C     C_R   0.187325 0.606191 0.450461 0.083025
C6    C     C_R   0.546687 0.111365 0.749399 -0.155103
C7    C     C_R   0.526027 0.054286 0.871779 -0.163558
C8    C     C_R   0.470190 0.948524 0.873452 -0.154986
C9    C     C_R   0.443674 0.891128 0.752463 0.216179
C10   C     C_R   0.476462 0.938962 0.627716 0.067259
C11   C     C_R   0.513610 0.060092 0.626719 0.068347
C12   C     C_R   0.906578 0.605786 0.453383 0.124418
C13   C     C_R   0.513100 0.125916 0.502870 -0.098650
C14   C     C_R   0.499287 0.062625 0.380963 -0.199158
C15   C     C_R   0.485185 0.935680 0.381317 -0.173907
C16   C     C_R   0.490387 0.739132 0.500859 0.919721
C17   C     C_R   0.477003 0.872310 0.503879 -0.088032
C18   C     C_R   0.384422 0.334745 0.139178 -0.135481
C19   C     C_R   0.328547 0.251727 0.068703 -0.194024
C20   C     C_R   0.328688 0.251494 0.929287 -0.157738
C21   C     C_R   0.384600 0.334470 0.859698 -0.101306
C22   C     C_R   0.443003 0.418612 0.927419 0.110925
C23   C     C_R   0.949113 0.288857 0.593500 -0.220915
C24   C     C_R   0.443010 0.418647 0.071857 0.153895
C25   C     C_R   0.554594 0.577392 0.073086 -0.140735
C26   C     C_R   0.555220 0.577485 0.930557 0.212620
C27   C     C_R   0.672645 0.499691 0.500322 0.890258
C28   C     C_R   0.813863 0.604210 0.452242 -0.233652
C29   C     C_R   0.767583 0.499880 0.501360 -0.036421
C30   C     C_R   0.811368 0.395970 0.551448 -0.253684
C31   C     C_R   0.904151 0.394449 0.549391 0.129500
C32   C     C_R   0.952394 0.500118 0.500942 0.085301
C33   C     C_R   0.041865 0.286475 0.587880 -0.155218
C34   C     C_R   0.091265 0.390753 0.540042 0.092502
C35   C     C_R   0.046046 0.499612 0.498594 -0.006528
C36   C     C_R   0.093807 0.606788 0.451483 0.072919
C37   C     C_R   0.046572 0.711822 0.406813 -0.146462
C38   C     C_R   0.953813 0.710824 0.407037 -0.215044
H1    H     H_    0.777477 0.684094 0.414823 0.141232
H2    H     H_    0.079861 0.795829 0.370730 0.188838
H3    H     H_    0.499954 0.110686 0.284857 0.169218
H4    H     H_    0.588944 0.194873 0.751922 0.162605
H5    H     H_    0.284999 0.186869 0.874697 0.187876
H6    H     H_    0.912484 0.207562 0.631152 0.156158
H7    H     H_    0.073860 0.202891 0.623436 0.188371
H8    H     H_    0.918986 0.792456 0.371065 0.155360
H9    H     H_    0.548974 0.096289 0.965507 0.150471
H10   H     H_    0.446521 0.912111 0.968936 0.160879
H11   H     H_    0.482057 0.887156 0.285261 0.178692
H12   H     H_    0.599165 0.640255 0.128354 0.166296
H13   H     H_    0.379625 0.330326 0.245951 0.219200
H14   H     H_    0.284636 0.187573 0.122764 0.181061
H15   H     H_    0.380531 0.330066 0.753192 0.226293
H16   H     H_    0.773012 0.315889 0.588757 0.131873
I1    I     I_    0.333525 0.762961 0.768563 -0.300471
I2    I     I_    0.648429 0.703065 0.840253 -0.351705
I3    I     I_    0.255195 0.216233 0.551841 -0.431414
I4    I     I_    0.263083 0.763821 0.373730 -0.341940
N1    N     N_R   0.499150 0.498800 0.142780 -0.132893
N2    N     N_R   0.499120 0.498720 0.857170 -0.137904
O1    O     O_R   0.500000 0.316780 0.614690 -0.652851
O2    O     O_R   0.499990 0.316750 0.385360 -0.645525
O3    O     O_R   0.367850 0.499980 0.614680 -0.608194
O4    O     O_R   0.367840 0.499960 0.385350 -0.619078
O5    O     O_R   0.500010 0.683250 0.614640 -0.584824
O6    O     O_R   0.500000 0.683220 0.385310 -0.618973
O7    O     O_R   0.632160 0.500040 0.614650 -0.592916
O8    O     O_R   0.632150 0.500020 0.385320 -0.621695
Zn1   Zn    Zn3+2 0.500010 0.500020 0.653130 0.982640
Zn2   Zn    Zn3+2 0.499990 0.499980 0.346870 0.958085

loop_
_geom_bond_atom_site_label_1
_geom_bond_atom_site_label_2
_ccdc_geom_bond_type
C1    C13   S    
C8    H10   S    
C6    C7    A    
C9    I1    S    
O4    Zn2   S    
C27   C29   S    
C29   C30   A    
C30   H16   S    
C9    C10   A    
C4    O4    A    
C32   C35   A    
C31   C32   A    
C14   C15   A    
C3    C5    A    
C1    O2    A    
C2    C34   A    
C5    C36   A    
C33   C34   A    
C2    I3    S    
C33   H7    S    
C7    C8    A    
C13   C14   A    
C12   C32   A    
C21   H15   S    
C11   C13   A    
C4    O3    A    
O6    Zn2   S    
C14   H3    S    
N2    Zn1   S    
C12   C28   A    
C24   N1    A    
C18   C24   A    
C5    I4    S    
N1    Zn2   S    
C28   C29   A    
C37   C38   A    
C18   H13   S    
C2    C3    A    
C37   H2    S    
C15   H11   S    
C22   N2    A    
C30   C31   A    
C16   C17   S    
C22   C24   A    
C38   H8    S    
C16   O6    A    
C10   C11   A    
C10   C17   A    
C7    H9    S    
C3    C4    S    
C12   C38   A    
O3    Zn1   S    
O5    Zn1   S    
C20   H5    S    
C27   O7    A    
C20   C21   A    
O2    Zn2   S    
O8    Zn2   S    
C34   C35   A    
C6    H4    S    
O1    Zn1   S    
C6    C11   A    
C15   C17   A    
C18   C19   A    
C25   H12   S    
C36   C37   A    
C16   O5    A    
C25   N1    A    
C28   H1    S    
O7    Zn1   S    
C25   C26   A    
C21   C22   A    
C26   N2    A    
C19   H14   S    
C26   I2    S    
C23   H6    S    
C19   C20   A    
C27   O8    A    
C23   C31   A    
C8    C9    A    
C23   C33   A    
C35   C36   A    
C1    O1    A    
