data_mof_unit_32717.cif
_audit_creation_date              2012-12-10T18:58:39-0500
_audit_creation_method            fapswitch 2.2
_symmetry_space_group_name_H-M    P1
_symmetry_Int_Tables_number       1
_space_group_crystal_system       triclinic
_cell_length_a                    10.639468
_cell_length_b                    9.936523
_cell_length_c                    17.297306
_cell_angle_alpha                 90.738842
_cell_angle_beta                  95.297093
_cell_angle_gamma                 90.879263
_cell_volume                      1820.44738866

loop_
_atom_site_label
_atom_site_type_symbol
_atom_type_description
_atom_site_fract_x
_atom_site_fract_y
_atom_site_fract_z
_atom_type_partial_charge
C1    C     C_R   0.261302 0.499317 0.509462 0.898447
C2    C     C_R   0.738255 0.500685 0.489894 0.892857
C3    C     C_1   0.363287 0.507056 0.960126 0.115469
C4    C     C_1   0.380202 0.504192 0.029145 0.112540
C5    C     C_R   0.058431 0.376062 0.512154 0.154782
C6    C     C_R   0.940273 0.624048 0.484985 0.152451
C7    C     C_R   0.934903 0.378488 0.478476 0.152092
C8    C     C_R   0.063894 0.621773 0.518803 0.151090
C9    C     C_R   0.506837 0.499307 0.352656 0.908225
C10   C     C_R   0.493269 0.500309 0.647700 0.909799
C11   C     C_R   0.871456 0.501800 0.476612 -0.171072
C12   C     C_R   0.127357 0.498304 0.521125 -0.171462
C13   C     C_R   0.409573 0.628176 0.846186 0.487410
C14   C     C_R   0.458334 0.378645 0.143453 0.481769
C15   C     C_R   0.447738 0.623172 0.149522 0.475504
C16   C     C_R   0.362748 0.388159 0.837123 0.480312
C17   C     C_R   0.460389 0.623774 0.774111 0.035672
C18   C     C_R   0.502826 0.376211 0.222684 0.049336
C19   C     C_R   0.503292 0.621860 0.226119 0.026086
C20   C     C_R   0.410706 0.380908 0.763998 0.030225
C21   C     C_R   0.457588 0.500792 0.730003 -0.224454
C22   C     C_R   0.508751 0.498573 0.266695 -0.229237
C23   C     C_R   0.585117 0.074485 0.549222 0.212872
C24   C     C_R   0.415321 0.925575 0.450357 0.208303
C25   C     C_R   0.415238 0.069371 0.450466 0.190819
C26   C     C_R   0.585334 0.930820 0.548906 0.202371
C27   C     C_R   0.367196 0.509923 0.878207 -0.224997
C28   C     C_R   0.420574 0.501132 0.109802 -0.213707
N1    N     N_R   0.500000 0.857200 0.500000 -0.115207
N2    N     N_R   0.500000 0.142800 0.500000 -0.115766
O1    O     O_R   0.316770 0.614620 0.500000 -0.613591
O2    O     O_R   0.683230 0.385380 0.500000 -0.612610
O3    O     O_R   0.683230 0.614620 0.500000 -0.616683
O4    O     O_R   0.316770 0.385380 0.500000 -0.616323
O5    O     O_R   0.500010 0.614710 0.389120 -0.616436
O6    O     O_R   0.499990 0.385290 0.610880 -0.620668
O7    O     O_R   0.499990 0.614710 0.610880 -0.617869
O8    O     O_R   0.500010 0.385290 0.389120 -0.619675
Zn1   Zn    Zn3+2 0.500000 0.653120 0.500000 0.914712
Zn2   Zn    Zn3+2 0.500000 0.346880 0.500000 0.912438
O9    O     O_3   0.416986 0.745638 0.890566 -0.576237
C29   C     C_3   0.301036 0.812235 0.877845 -0.294839
H1    H     H_    0.222151 0.750672 0.897684 0.145388
H2    H     H_    0.280506 0.838777 0.815646 0.154259
H3    H     H_    0.307266 0.907486 0.912269 0.211282
O10   O     O_3   0.444493 0.259999 0.100198 -0.591317
C30   C     C_3   0.552074 0.242966 0.059086 -0.258618
H4    H     H_    0.548206 0.140066 0.033238 0.211154
H5    H     H_    0.641757 0.252873 0.097513 0.138025
H6    H     H_    0.553424 0.315073 0.010678 0.173222
O11   O     O_3   0.435048 0.743552 0.110311 -0.571728
C31   C     C_3   0.314063 0.793898 0.119349 -0.272155
H7    H     H_    0.300629 0.813007 0.181582 0.146471
H8    H     H_    0.238662 0.724525 0.092608 0.143818
H9    H     H_    0.304292 0.891356 0.088974 0.206687
O12   O     O_3   0.325805 0.272186 0.873103 -0.591131
C32   C     C_3   0.193300 0.259329 0.860739 -0.331573
H10   H     H_    0.161039 0.252904 0.797660 0.158521
H11   H     H_    0.146130 0.343759 0.888804 0.162482
H12   H     H_    0.163682 0.164532 0.887539 0.189086
C33   C     C_3   0.528161 0.748086 0.749579 -0.815983
H13   H     H_    0.544593 0.825880 0.796088 0.268519
H14   H     H_    0.623106 0.718447 0.734730 0.224152
H15   H     H_    0.472390 0.796153 0.700355 0.253175
C34   C     C_3   0.557472 0.247631 0.256525 -0.802634
H16   H     H_    0.565692 0.167189 0.212472 0.256347
H17   H     H_    0.653786 0.268628 0.284643 0.216377
H18   H     H_    0.498313 0.205072 0.299056 0.258500
C35   C     C_3   0.569352 0.748953 0.258589 -0.754610
H19   H     H_    0.626295 0.793483 0.214370 0.243513
H20   H     H_    0.500106 0.824092 0.273932 0.236907
H21   H     H_    0.637340 0.729143 0.309359 0.226114
C36   C     C_3   0.418551 0.242643 0.727089 -0.782666
H22   H     H_    0.518401 0.221678 0.720118 0.238184
H23   H     H_    0.384571 0.159575 0.762320 0.257920
H24   H     H_    0.360973 0.236353 0.670712 0.236299
C37   C     C_3   0.681141 0.148569 0.605234 -0.836036
H25   H     H_    0.673993 0.257356 0.605984 0.295237
H26   H     H_    0.778193 0.124682 0.592050 0.209043
H27   H     H_    0.671126 0.117709 0.665570 0.200553
C38   C     C_3   0.320078 0.851497 0.393832 -0.825282
H28   H     H_    0.326147 0.742617 0.393838 0.296735
H29   H     H_    0.331886 0.881278 0.333549 0.198941
H30   H     H_    0.222745 0.876446 0.405951 0.206252
C39   C     C_3   0.319280 0.138085 0.394714 -0.838978
H31   H     H_    0.326602 0.247326 0.395174 0.297999
H32   H     H_    0.222518 0.110351 0.407382 0.211221
H33   H     H_    0.328720 0.105334 0.334181 0.208655
C40   C     C_3   0.681994 0.862500 0.603822 -0.855630
H34   H     H_    0.673890 0.753377 0.603870 0.299025
H35   H     H_    0.673122 0.896847 0.663994 0.213731
H36   H     H_    0.778483 0.889711 0.590357 0.212592
C41   C     C_3   0.106478 0.246832 0.548356 -0.862061
H37   H     H_    0.195981 0.262075 0.585069 0.245781
H38   H     H_    0.037374 0.208440 0.587481 0.220346
H39   H     H_    0.117335 0.168809 0.503695 0.242741
C42   C     C_3   0.891320 0.752909 0.448506 -0.850059
H40   H     H_    0.800702 0.737824 0.412363 0.246040
H41   H     H_    0.881512 0.831504 0.493004 0.240984
H42   H     H_    0.959797 0.790760 0.408828 0.221817
C43   C     C_3   0.877686 0.252505 0.438356 -0.843011
H43   H     H_    0.789971 0.273511 0.401176 0.244357
H44   H     H_    0.944730 0.210951 0.399018 0.221927
H45   H     H_    0.858420 0.174761 0.480996 0.245870
C44   C     C_3   0.120627 0.747559 0.559459 -0.850164
H46   H     H_    0.206758 0.726010 0.598268 0.246537
H47   H     H_    0.142334 0.824653 0.516972 0.246824
H48   H     H_    0.052144 0.790203 0.597482 0.219279

loop_
_geom_bond_atom_site_label_1
_geom_bond_atom_site_label_2
_ccdc_geom_bond_type
C43   H43   S    
C33   H15   S    
C36   H22   S    
C14   C18   A    
C8    C44   S    
C42   H42   S    
C13   O9    S    
C42   H40   S    
C32   H10   S    
C30   H5    S    
C39   H31   S    
C26   C40   S    
C7    C11   A    
C44   H47   S    
C41   H37   S    
C10   O7    A    
O4    Zn2   S    
C9    C22   S    
C37   H27   S    
C1    O1    A    
O12   C32   S    
C2    O2    A    
O9    C29   S    
C23   C26   A    
C35   H20   S    
C24   N1    A    
C42   H41   S    
C15   C19   A    
C34   H17   S    
C15   O11   S    
C40   H35   S    
C31   H9    S    
C16   C20   A    
C17   C33   S    
C16   C27   A    
C39   H32   S    
C41   H38   S    
C36   H23   S    
C33   H13   S    
C1    C12   S    
C29   H2    S    
C2    C11   S    
C4    C28   S    
C31   H8    S    
C1    O4    A    
C38   H28   S    
C30   H6    S    
C37   H26   S    
C10   C21   S    
C44   H48   S    
O11   C31   S    
C23   N2    A    
O6    Zn2   S    
C19   C22   A    
C24   C25   A    
C5    C12   A    
C14   O10   S    
C6    C11   A    
C5    C7    A    
C32   H12   S    
C6    C8    A    
C37   H25   S    
C17   C21   A    
C18   C34   S    
C29   H3    S    
C35   H21   S    
O5    Zn1   S    
C24   C38   S    
C16   O12   S    
C30   H4    S    
C8    C12   A    
C34   H18   S    
N1    Zn1   S    
C25   C39   S    
N2    Zn2   S    
O3    Zn1   S    
C23   C37   S    
C40   H36   S    
C2    O3    A    
C43   H45   S    
C36   H24   S    
C19   C35   S    
C29   H1    S    
C3    C4    T    
C38   H30   S    
C31   H7    S    
C6    C42   S    
C39   H33   S    
C25   N2    A    
O10   C30   S    
C18   C22   A    
C33   H14   S    
C38   H29   S    
C5    C41   S    
C41   H39   S    
C44   H46   S    
C13   C17   A    
C3    C27   S    
O7    Zn1   S    
O8    Zn2   S    
C15   C28   A    
C9    O8    A    
O1    Zn1   S    
C20   C36   S    
O2    Zn2   S    
C35   H19   S    
C32   H11   S    
C20   C21   A    
C26   N1    A    
C43   H44   S    
C34   H16   S    
C7    C43   S    
C9    O5    A    
C13   C27   A    
C10   O6    A    
C14   C28   A    
C40   H34   S    
