data_mof_unit_39592.cif
_audit_creation_date              2012-12-10T18:58:14-0500
_audit_creation_method            fapswitch 2.2
_symmetry_space_group_name_H-M    P1
_symmetry_Int_Tables_number       1
_space_group_crystal_system       triclinic
_cell_length_a                    10.875438
_cell_length_b                    10.82587
_cell_length_c                    9.565213
_cell_angle_alpha                 89.950147
_cell_angle_beta                  101.373051
_cell_angle_gamma                 90.516139
_cell_volume                      1104.01194635

loop_
_atom_site_label
_atom_site_type_symbol
_atom_type_description
_atom_site_fract_x
_atom_site_fract_y
_atom_site_fract_z
_atom_type_partial_charge
C1    C     C_R   0.496840 0.262824 0.499324 0.817747
C2    C     C_R   0.496965 0.130123 0.497697 -0.109423
C3    C     C_R   0.420849 0.064274 0.386532 -0.303961
C4    C     C_R   0.421253 0.933897 0.386433 0.487431
C5    C     C_R   0.502170 0.871012 0.497491 -0.193813
C6    C     C_R   0.589485 0.939814 0.594703 -0.094422
C7    C     C_3   0.645722 0.934071 0.752173 0.479631
C8    C     C_3   0.620067 0.074697 0.757449 0.017515
C9    C     C_R   0.595901 0.448923 0.095149 0.182329
C10   C     C_R   0.400695 0.545326 0.051832 -0.090327
C11   C     C_R   0.400747 0.545411 0.903308 -0.093209
C12   C     C_R   0.261972 0.494505 0.443824 0.863558
C13   C     C_R   0.595742 0.448310 0.947743 0.232335
C14   C     C_3   0.731125 0.485253 0.972902 0.033612
C15   C     C_3   0.730808 0.486075 0.131328 -0.534991
C16   C     C_R   0.501661 0.737515 0.500285 0.864386
C17   C     C_R   0.737560 0.495873 0.556653 0.833675
C18   C     C_2   0.126162 0.472641 0.418615 -0.356886
C19   C     C_2   0.072377 0.440692 0.528644 -0.180466
C20   C     C_2   0.874054 0.491007 0.585342 -0.382889
C21   C     C_2   0.937161 0.417545 0.511094 0.299941
C22   C     C_R   0.580935 0.065692 0.598822 -0.067208
Cu1   Cu    Cu3+1 0.499990 0.499980 0.640670 0.956184
Cu2   Cu    Cu3+1 0.500010 0.500020 0.359330 0.945426
H1    H     H_    0.703418 0.135826 0.790354 0.121625
H2    H     H_    0.321557 0.583789 0.088961 0.152885
H3    H     H_    0.321779 0.583972 0.830321 0.137445
H4    H     H_    0.747263 0.577071 0.928306 0.162929
H5    H     H_    0.789443 0.412982 0.190552 0.240203
H6    H     H_    0.745440 0.579813 0.179496 0.197670
H7    H     H_    0.126430 0.438893 0.637107 0.154415
H8    H     H_    0.924698 0.555984 0.662726 0.117119
H9    H     H_    0.071009 0.477607 0.311086 0.155845
H10   H     H_    0.355176 0.113793 0.306627 0.154772
N1    N     N_R   0.500780 0.500930 0.148120 -0.176206
N2    N     N_R   0.500790 0.500890 0.852210 -0.187884
O1    O     O_R   0.500000 0.319640 0.618810 -0.549660
O2    O     O_R   0.500010 0.319680 0.381230 -0.591871
O3    O     O_R   0.320680 0.500000 0.575130 -0.588763
O4    O     O_R   0.320690 0.500040 0.337550 -0.580649
O5    O     O_R   0.499990 0.680320 0.618770 -0.574949
O6    O     O_R   0.500000 0.680360 0.381190 -0.553828
O7    O     O_R   0.679310 0.499960 0.662450 -0.568654
O8    O     O_R   0.679320 0.500000 0.424870 -0.574235
N3    N     N_2   0.876300 0.318596 0.423013 -0.424445
H11   H     H_    0.790557 0.290392 0.442893 0.253445
C23   C     C_3   0.952585 0.216188 0.394605 -0.698877
H12   H     H_    0.892191 0.145799 0.329112 0.219549
H13   H     H_    0.999384 0.172725 0.496292 0.229812
H14   H     H_    0.023653 0.247440 0.333251 0.239972
N4    N     N_2   0.808836 0.388857 0.931188 -0.384578
H15   H     H_    0.789598 0.300657 0.962042 0.246923
C24   C     C_3   0.941614 0.416840 0.956138 -0.693593
H16   H     H_    0.989159 0.348876 0.898508 0.222156
H17   H     H_    0.982435 0.411112 0.071762 0.221211
H18   H     H_    0.958615 0.510743 0.916681 0.222797
O9    O     O_3   0.330377 0.867520 0.293481 -0.573325
C25   C     C_3   0.342397 0.889481 0.151534 -0.316481
H19   H     H_    0.284608 0.820154 0.081837 0.177117
H20   H     H_    0.440836 0.878436 0.138150 0.158348
H21   H     H_    0.306495 0.982073 0.114782 0.155180
N5    N     N_2   0.577177 0.854455 0.834252 -0.379243
H22   H     H_    0.481572 0.866915 0.818296 0.237269
C26   C     C_3   0.636646 0.827284 0.980355 -0.659338
H23   H     H_    0.651970 0.912538 0.045350 0.219318
H24   H     H_    0.728781 0.783083 0.985178 0.240779
H25   H     H_    0.577156 0.761701 0.027300 0.211775
N6    N     N_2   0.779956 0.907392 0.777077 -0.428590
H26   H     H_    0.837046 0.979740 0.758500 0.229930
C27   C     C_3   0.815320 0.792012 0.720668 -0.707117
H27   H     H_    0.914341 0.771465 0.769273 0.213895
H28   H     H_    0.806057 0.798329 0.603125 0.213637
H29   H     H_    0.755429 0.715665 0.746249 0.260903
N7    N     N_2   0.513318 0.108925 0.820035 -0.393039
H30   H     H_    0.426895 0.070090 0.778206 0.249300
C28   C     C_3   0.535051 0.139154 0.970060 -0.665035
H31   H     H_    0.507065 0.060539 0.031004 0.206426
H32   H     H_    0.475362 0.218421 0.985797 0.227757
H33   H     H_    0.634706 0.163595 0.012455 0.211778

loop_
_geom_bond_atom_site_label_1
_geom_bond_atom_site_label_2
_ccdc_geom_bond_type
Cu2   O6    S    
C28   H33   S    
C19   H7    S    
C7    C8    S    
C23   H13   S    
C24   H16   S    
N7    C28   S    
C11   N2    A    
C19   C21   S    
C28   H32   S    
C18   C19   D    
C5    C6    A    
C25   H20   S    
C6    C22   A    
C17   C20   S    
Cu1   O7    S    
C1    C2    S    
C9    C13   A    
C5    C16   S    
N5    C26   S    
C7    N6    S    
C14   N4    S    
N6    H26   S    
C4    O9    S    
C2    C22   A    
Cu2   O2    S    
Cu1   Cu2   S    
C27   H27   S    
C1    O1    A    
C10   H2    S    
C25   H21   S    
N3    C23   S    
C13   C14   S    
C8    H1    S    
C15   H5    S    
C23   H14   S    
C21   N3    S    
C24   H17   S    
Cu2   N1    S    
N7    H30   S    
N4    H15   S    
C26   H25   S    
C28   H31   S    
C13   N2    A    
C3    H10   S    
C25   H19   S    
Cu1   O1    S    
N4    C24   S    
C26   H24   S    
C12   O4    A    
C17   O7    A    
C7    N5    S    
N5    H22   S    
C8    C22   S    
C23   H12   S    
C11   H3    S    
C27   H29   S    
C8    N7    S    
C10   N1    A    
C1    O2    A    
Cu2   O8    S    
C3    C4    A    
C16   O6    A    
C15   H6    S    
C20   H8    S    
C24   H18   S    
C4    C5    A    
C6    C7    S    
Cu1   O5    S    
C26   H23   S    
C12   O3    A    
C2    C3    A    
C9    C15   S    
C17   O8    A    
O9    C25   S    
Cu1   O3    S    
Cu2   O4    S    
C18   H9    S    
C10   C11   A    
N3    H11   S    
C20   C21   D    
N6    C27   S    
Cu1   N2    S    
C12   C18   S    
C9    N1    A    
C14   C15   S    
C27   H28   S    
C14   H4    S    
C16   O5    A    
