data_mof_unit_58988.cif
_audit_creation_date              2012-12-11T14:45:53-0500
_audit_creation_method            fapswitch 2.2
_symmetry_space_group_name_H-M    P1
_symmetry_Int_Tables_number       1
_space_group_crystal_system       triclinic
_cell_length_a                    10.883783
_cell_length_b                    10.949263
_cell_length_c                    18.788652
_cell_angle_alpha                 90.215834
_cell_angle_beta                  89.699528
_cell_angle_gamma                 119.874818
_cell_volume                      1941.47187893

loop_
_atom_site_label
_atom_site_type_symbol
_atom_type_description
_atom_site_fract_x
_atom_site_fract_y
_atom_site_fract_z
_atom_type_partial_charge
C1    C     C_R   0.868243 0.635948 0.605146 0.540177
C2    C     C_R   0.270152 0.548341 0.796256 -0.145849
C3    C     C_R   0.254669 0.533615 0.723612 -0.132938
C4    C     C_R   0.298232 0.652495 0.680311 0.026314
C5    C     C_R   0.862246 0.179383 0.826207 -0.044356
C6    C     C_R   0.066327 0.139046 0.814429 -0.083561
C7    C     C_R   0.147522 0.099545 0.773110 -0.129558
C8    C     C_R   0.122789 0.076862 0.700439 -0.120977
C9    C     C_R   0.020400 0.098885 0.668252 -0.084814
C10   C     C_R   0.938382 0.141223 0.708855 -0.000843
C11   C     C_R   0.955482 0.153046 0.783946 0.007626
C12   C     C_R   0.265514 0.629024 0.605313 0.546549
C13   C     C_R   0.738501 0.183171 0.720392 0.024679
C14   C     C_R   0.771846 0.218532 0.792211 0.014542
C15   C     C_R   0.609276 0.168704 0.695112 -0.078010
C16   C     C_R   0.532150 0.214156 0.735682 -0.138816
C17   C     C_R   0.580220 0.272135 0.802592 -0.114870
C18   C     C_R   0.700618 0.276578 0.830483 -0.067153
C19   C     C_R   0.835815 0.165979 0.676376 -0.035435
C20   C     C_R   0.707795 0.590292 0.707610 -0.130610
C21   C     C_R   0.690786 0.596221 0.780558 -0.125134
C22   C     C_R   0.809664 0.651413 0.825555 0.027420
C23   C     C_R   0.859386 0.224237 0.602988 0.534269
C24   C     C_R   0.944586 0.697596 0.797665 -0.130433
C25   C     C_R   0.961726 0.695075 0.725121 -0.114406
C26   C     C_R   0.844036 0.644349 0.679892 0.043253
C27   C     C_R   0.261197 0.539481 0.276780 -0.137031
C28   C     C_R   0.271516 0.553616 0.204150 -0.140013
C29   C     C_R   0.333651 0.687670 0.173851 0.018223
C30   C     C_R   0.370334 0.806363 0.216806 -0.139711
C31   C     C_R   0.353497 0.790900 0.290316 -0.147392
C32   C     C_R   0.303279 0.657586 0.320484 0.023055
C33   C     C_R   0.793926 0.283255 0.268505 0.351948
C34   C     C_R   0.868295 0.637830 0.396388 0.541680
C35   C     C_R   0.785037 0.250720 0.196912 -0.092913
C36   C     C_R   0.856885 0.184299 0.169253 -0.033615
C37   C     C_R   0.949391 0.163977 0.212622 -0.168809
C38   C     C_R   0.961386 0.200290 0.284276 -0.203631
C39   C     C_R   0.880497 0.256587 0.312971 0.032501
C40   C     C_R   0.962310 0.701252 0.276287 -0.118864
C41   C     C_R   0.945433 0.703536 0.203793 -0.137705
C42   C     C_R   0.810226 0.654178 0.176102 0.025074
C43   C     C_R   0.690679 0.594976 0.221231 -0.094657
C44   C     C_R   0.707834 0.592500 0.294343 -0.060682
C45   C     C_R   0.268093 0.631843 0.395289 0.538462
C46   C     C_R   0.844225 0.648685 0.321875 0.066807
C47   C     C_R   0.812537 0.109430 0.896611 0.531896
C48   C     C_R   0.393580 0.700745 0.897157 0.543592
C49   C     C_R   0.796707 0.690552 0.897394 0.542409
C50   C     C_R   0.809867 0.110424 0.101514 0.546669
C51   C     C_R   0.393415 0.704418 0.103125 0.542918
C52   C     C_R   0.796921 0.693711 0.104495 0.539746
C53   C     C_R   0.887287 0.291080 0.388395 0.591445
C54   C     C_R   0.350045 0.785706 0.710879 -0.154771
C55   C     C_R   0.368732 0.801148 0.784131 -0.141273
C56   C     C_R   0.333719 0.682620 0.826622 0.019976
Cr1   Cr    Cr6+3 0.791660 0.390250 0.499930 1.051759
Cr2   Cr    Cr6+3 0.098520 0.708290 0.500540 1.005444
Cr3   Cr    Cr6+3 0.109770 0.401430 0.499480 1.007767
Cr4   Cr    Cr6+3 0.874790 0.925890 0.000070 1.011608
Cr5   Cr    Cr6+3 0.574120 0.948670 0.999300 1.012623
Cr6   Cr    Cr6+3 0.551420 0.625320 0.000920 1.005256
H1    H     H_    0.377500 0.876912 0.678130 0.111817
H2    H     H_    0.436342 0.206373 0.714565 0.104244
H3    H     H_    0.564648 0.119213 0.644613 0.132055
H4    H     H_    0.521905 0.309817 0.833769 0.108131
H5    H     H_    0.616321 0.547818 0.672993 0.118925
H6    H     H_    0.585834 0.563406 0.801338 0.138801
H7    H     H_    0.037186 0.741840 0.831601 0.125175
H8    H     H_    0.067430 0.732896 0.704229 0.140975
H9    H     H_    0.218543 0.434896 0.298658 0.141070
H10   H     H_    0.240944 0.460370 0.172078 0.136957
H11   H     H_    0.419310 0.911206 0.194241 0.146396
H12   H     H_    0.417957 0.906099 0.806738 0.147671
H13   H     H_    0.381704 0.882232 0.323453 0.140697
H14   H     H_    0.713255 0.267990 0.164307 0.152460
H15   H     H_    0.005085 0.112039 0.192480 0.150062
H16   H     H_    0.029734 0.179343 0.317547 0.146060
H17   H     H_    0.068166 0.740130 0.296803 0.141821
H18   H     H_    0.038356 0.749522 0.169698 0.128076
H19   H     H_    0.585208 0.558250 0.200563 0.139132
H20   H     H_    0.616038 0.548281 0.329146 0.130613
H21   H     H_    0.240597 0.455459 0.828168 0.128476
H22   H     H_    0.207225 0.428350 0.701478 0.152365
H23   H     H_    0.229499 0.085842 0.797761 0.104562
H24   H     H_    0.183850 0.043075 0.668765 0.111406
H25   H     H_    0.094170 0.162211 0.869913 0.127194
H26   H     H_    0.002585 0.077770 0.611823 0.131965
H27   H     H_    0.733842 0.318592 0.883629 0.120385
O1    O     O_R   0.766500 0.250040 0.579790 -0.522727
O2    O     O_R   0.218690 0.701900 0.425960 -0.505055
O3    O     O_R   0.249490 0.516440 0.419420 -0.528602
O4    O     O_R   0.982880 0.281910 0.424890 -0.527784
O5    O     O_3   0.999980 0.499990 0.499980 -0.271768
O6    O     O_R   0.895110 0.806860 0.920430 -0.515292
O7    O     O_R   0.872260 0.046970 0.925000 -0.504378
O8    O     O_R   0.691430 0.085060 0.918550 -0.517858
O9    O     O_R   0.451490 0.822460 0.925250 -0.503497
O10   O     O_R   0.413330 0.603360 0.920440 -0.530095
O11   O     O_R   0.676110 0.626250 0.926750 -0.512071
O12   O     O_R   0.798570 0.516780 0.574780 -0.499356
O13   O     O_R   0.895350 0.809870 0.080950 -0.521706
O14   O     O_R   0.872490 0.049760 0.073800 -0.501569
O15   O     O_R   0.691680 0.088070 0.079070 -0.528316
O16   O     O_R   0.451720 0.825250 0.074050 -0.504362
O17   O     O_R   0.413580 0.606370 0.080960 -0.526200
O18   O     O_R   0.676340 0.629040 0.075550 -0.505964
O19   O     O_3   0.666780 0.833290 0.000090 -0.236517
O20   O     O_R   0.984000 0.732950 0.581090 -0.528811
O21   O     O_R   0.218600 0.700890 0.574760 -0.507000
O22   O     O_R   0.249390 0.515350 0.579940 -0.520612
O23   O     O_R   0.982790 0.280900 0.573700 -0.502127
O24   O     O_R   0.766600 0.251130 0.419260 -0.454981
O25   O     O_R   0.798660 0.517790 0.425980 -0.472909
O26   O     O_R   0.984100 0.734040 0.420570 -0.531064
F1    F     F_    0.711935 0.333727 0.294982 -0.643727

loop_
_geom_bond_atom_site_label_1
_geom_bond_atom_site_label_2
_ccdc_geom_bond_type
C55   C56   A    
C50   O15   A    
Cr2   O20   S    
C41   C42   A    
C14   C18   A    
C20   H5    S    
C35   C36   A    
C41   H18   S    
C12   O21   A    
C27   H9    S    
C7    C8    A    
C39   C53   S    
C40   C46   A    
C23   O23   A    
C5    C47   S    
C52   O13   A    
C17   H4    S    
C33   C39   A    
C28   C29   A    
C5    C11   A    
C44   H20   S    
C9    H26   S    
C29   C51   S    
C38   C39   A    
Cr3   O4    S    
Cr6   O19   S    
C54   H1    S    
C15   C16   A    
C15   H3    S    
C32   C45   S    
C45   O3    A    
Cr5   O19   S    
C1    O20   A    
C55   H12   S    
Cr5   O9    S    
C52   O18   A    
C44   C46   A    
C8    C9    A    
Cr3   O22   S    
C47   O7    A    
C34   C46   S    
Cr3   O5    S    
C4    C12   S    
Cr4   O14   S    
Cr5   O16   S    
Cr2   O2    S    
Cr4   O19   S    
Cr3   O3    S    
C50   O14   A    
C21   C22   A    
C2    H21   S    
C28   H10   S    
Cr4   O13   S    
C53   O24   A    
C24   H7    S    
C17   C18   A    
C35   H14   S    
C23   O1    A    
Cr1   O1    S    
C13   C19   A    
C53   O4    A    
Cr5   O15   S    
C24   C25   A    
C6    C11   A    
C30   H11   S    
C16   C17   A    
Cr1   O24   S    
Cr6   O18   S    
C38   H16   S    
C25   C26   A    
C37   H15   S    
C6    H25   S    
C19   C23   S    
C43   C44   A    
C37   C38   A    
C31   H13   S    
C31   C32   A    
C10   C19   A    
C51   O16   A    
Cr3   O23   S    
C40   H17   S    
C49   O6    A    
C5    C14   A    
C6    C7    A    
C22   C49   S    
Cr6   O11   S    
Cr4   O7    S    
C40   C41   A    
Cr1   O5    S    
C13   C15   A    
C21   H6    S    
C1    C26   S    
C43   H19   S    
C22   C24   A    
C42   C43   A    
C3    C4    A    
C1    O12   A    
C27   C28   A    
C36   C50   S    
C9    C10   A    
C48   C56   S    
C48   O10   A    
C54   C55   A    
C36   C37   A    
C33   F1    S    
C4    C54   A    
C27   C32   A    
Cr2   O21   S    
C18   H27   S    
Cr5   O8    S    
Cr1   O25   S    
Cr6   O17   S    
C34   O25   A    
Cr1   O12   S    
C47   O8    A    
C2    C3    A    
C34   O26   A    
C2    C56   A    
C49   O11   A    
C30   C31   A    
Cr2   O26   S    
C7    H23   S    
C20   C26   A    
C51   O17   A    
C33   C35   A    
C8    H24   S    
C48   O9    A    
Cr2   O5    S    
C45   O2    A    
C10   C11   A    
C29   C30   A    
Cr6   O10   S    
Cr4   O6    S    
C20   C21   A    
C3    H22   S    
C25   H8    S    
C16   H2    S    
C13   C14   A    
C12   O22   A    
C42   C52   S    
