data_mof_unit_34655.cif
_audit_creation_date              2013-03-05T15:41:39-0500
_audit_creation_method            fapswitch 2.2
_symmetry_space_group_name_H-M    P1
_symmetry_Int_Tables_number       1
_space_group_crystal_system       triclinic
_cell_length_a                    17.127557
_cell_length_b                    8.670539
_cell_length_c                    7.439892
_cell_angle_alpha                 103.100298
_cell_angle_beta                  89.542291
_cell_angle_gamma                 92.855085
_cell_volume                      1074.76605923

loop_
_atom_site_label
_atom_site_type_symbol
_atom_site_description
_atom_site_fract_x
_atom_site_fract_y
_atom_site_fract_z
_atom_type_partial_charge
O1    O     O_R   0.505650 0.286040 0.618880 -0.581196
O2    O     O_R   0.494350 0.713960 0.381120 -0.584741
O3    O     O_R   0.490960 0.256910 0.309800 -0.594079
O4    O     O_R   0.509040 0.743090 0.690200 -0.590392
C1    C     C_R   0.497902 0.199722 0.453486 0.874865
C2    C     C_R   0.501422 0.800230 0.546674 0.882227
O5    O     O_R   0.394600 0.516230 0.672450 -0.582840
O6    O     O_R   0.605400 0.483770 0.327550 -0.587101
O7    O     O_R   0.379910 0.487100 0.363380 -0.582014
O8    O     O_R   0.620090 0.512900 0.636620 -0.579334
C3    C     C_R   0.351122 0.494420 0.526273 0.793662
C4    C     C_R   0.648961 0.503352 0.473467 0.800404
Cu1   Cu    Cu3+1 0.508700 0.517250 0.683000 0.942357
Cu2   Cu    Cu3+1 0.491300 0.482750 0.317000 0.938538
C5    C     C_R   0.266718 0.478315 0.546500 -0.078950
C6    C     C_R   0.733559 0.507385 0.452460 -0.074434
C7    C     C_R   0.222608 0.340406 0.454268 -0.020002
C8    C     C_R   0.781718 0.637589 0.547784 -0.019253
C9    C     C_R   0.140286 0.337346 0.472460 0.336408
C10   C     C_R   0.863745 0.626485 0.535677 0.342409
C11   C     C_R   0.104469 0.469379 0.582580 0.010867
C12   C     C_R   0.895438 0.487768 0.428878 0.008130
C13   C     C_R   0.149670 0.597964 0.682827 -0.145468
C14   C     C_R   0.846768 0.366511 0.325922 -0.154801
C15   C     C_R   0.230208 0.602632 0.664515 -0.236930
C16   C     C_R   0.766337 0.375974 0.338124 -0.233494
C17   C     C_2   0.019572 0.482382 0.584967 -0.080759
C18   C     C_2   0.979484 0.463848 0.427148 -0.085433
H1    H     H_    0.729378 0.277814 0.262782 0.154415
H2    H     H_    0.264154 0.706108 0.738522 0.154771
H3    H     H_    0.008064 0.425468 0.294768 0.184182
H4    H     H_    0.990920 0.521269 0.717140 0.183293
H5    H     H_    0.122188 0.698537 0.768901 0.199349
H6    H     H_    0.871138 0.261178 0.241786 0.194124
C19   C     C_2   0.497824 0.031804 0.427227 -0.377108
C20   C     C_2   0.500577 0.968079 0.573073 -0.367253
H7    H     H_    0.495728 0.960299 0.286726 0.174221
H8    H     H_    0.502804 0.039613 0.713560 0.174318
N1    N     N_2   0.478180 0.456750 0.041980 -0.214333
N2    N     N_2   0.521820 0.543250 0.958020 -0.215096
H9    H     H_    0.439030 0.379124 0.958694 0.224948
H10   H     H_    0.560968 0.620882 0.041313 0.223541
C21   C     C_3   0.262103 0.193181 0.348867 -0.390778
C22   C     C_3   0.264000 0.066924 0.463758 -0.344745
C23   C     C_3   0.290027 0.909346 0.347611 -0.773068
H11   H     H_    0.245439 0.857978 0.240197 0.268154
H12   H     H_    0.346655 0.926137 0.279349 0.247096
H13   H     H_    0.297170 0.824616 0.437293 0.238926
H14   H     H_    0.305377 0.108928 0.581114 0.206487
H15   H     H_    0.205296 0.046611 0.521229 0.267442
H16   H     H_    0.231742 0.144569 0.215561 0.247553
H17   H     H_    0.322936 0.219855 0.310215 0.198541
C24   C     C_3   0.746409 0.791766 0.646788 -0.388505
C25   C     C_3   0.722602 0.888085 0.508335 -0.361360
C26   C     C_3   0.701144 0.055012 0.606450 -0.783913
H18   H     H_    0.655756 0.049920 0.712564 0.250872
H19   H     H_    0.753607 0.123754 0.674136 0.267798
H20   H     H_    0.678114 0.117263 0.504615 0.235172
H21   H     H_    0.771786 0.898015 0.412439 0.251181
H22   H     H_    0.671697 0.826998 0.425562 0.209145
H23   H     H_    0.695190 0.768238 0.730395 0.201910
H24   H     H_    0.787985 0.865766 0.747440 0.255729
N3    N     N_R   0.914992 0.757514 0.623668 0.098205
O9    O     O_R   0.964877 0.820888 0.525386 -0.288361
O10   O     O_R   0.920097 0.797219 0.802814 -0.369211
N4    N     N_R   0.093084 0.199475 0.384888 0.100203
O11   O     O_R   0.090423 0.154626 0.205823 -0.362096
O12   O     O_R   0.044331 0.132812 0.482602 -0.294394

loop_
_geom_bond_atom_site_label_1
_geom_bond_atom_site_label_2
_geom_bond_distance
_ccdc_geom_bond_type
C22   H14   1.112309 S    
N4    O12   1.300980 A    
C21   C22   1.535668 S    
C7    C21   1.525056 S    
C24   H24   1.106668 S    
C19   C20   1.326685 D    
O6    C4    1.296450 A    
O7    Cu2   1.936773 S    
N3    O10   1.301332 A    
O3    C1    1.284904 A    
C26   H18   1.110014 S    
C20   H8    1.087665 S    
N4    O11   1.300948 A    
C11   C17   1.463688 S    
N1    H9    1.029179 S    
C6    C8    1.418267 A    
C25   H22   1.111155 S    
C24   C25   1.534726 S    
O5    C3    1.295656 A    
O7    C3    1.294053 A    
C14   C16   1.385133 A    
C21   H16   1.108426 S    
O2    C2    1.291122 A    
O3    Cu2   1.946432 S    
O8    C4    1.293724 A    
C10   N3    1.436094 S    
O1    C1    1.291181 A    
C1    C19   1.424362 S    
O6    Cu2   1.955957 S    
N2    H10   1.029201 S    
C9    C11   1.412398 A    
C2    C20   1.424530 S    
C8    C10   1.413764 A    
C25   H21   1.112250 S    
C26   H19   1.110890 S    
C11   C13   1.394602 A    
C6    C16   1.397767 A    
Cu2   N1    2.020178 S    
O2    Cu2   1.950801 S    
C12   C14   1.394570 A    
C21   H17   1.105955 S    
C5    C15   1.397558 A    
O1    Cu1   1.950801 S    
O4    Cu1   1.946432 S    
C7    C9    1.414894 A    
N3    O9    1.300765 A    
C23   H11   1.111189 S    
C3    C5    1.455314 S    
O5    Cu1   1.955954 S    
C13   C15   1.384529 A    
C22   C23   1.526915 S    
C13   H5    1.083977 S    
C16   H1    1.083984 S    
O4    C2    1.284989 A    
C23   H12   1.109695 S    
C22   H15   1.111047 S    
N1    N2    1.288581 D    
C5    C7    1.420485 A    
C26   H20   1.110092 S    
C25   C26   1.527256 S    
C15   H2    1.084143 S    
Cu1   N2    2.020178 S    
C12   C18   1.464092 S    
C23   H13   1.110106 S    
C8    C24   1.523930 S    
C19   H7    1.087632 S    
C17   H4    1.086262 S    
Cu1   Cu2   2.688471 S    
C24   H23   1.108647 S    
C18   H3    1.086424 S    
C14   H6    1.083886 S    
C4    C6    1.455654 S    
C9    N4    1.437421 S    
C10   C12   1.413349 A    
C17   C18   1.338754 D    
O8    Cu1   1.936773 S    
