data_mof_unit_68057.cif
_audit_creation_date              2013-03-05T15:43:53-0500
_audit_creation_method            fapswitch 2.2
_symmetry_space_group_name_H-M    P1
_symmetry_Int_Tables_number       1
_space_group_crystal_system       triclinic
_cell_length_a                    7.259203
_cell_length_b                    14.627383
_cell_length_c                    16.772345
_cell_angle_alpha                 89.899386
_cell_angle_beta                  98.909522
_cell_angle_gamma                 90.751641
_cell_volume                      1759.30025985

loop_
_atom_site_label
_atom_site_type_symbol
_atom_site_description
_atom_site_fract_x
_atom_site_fract_y
_atom_site_fract_z
_atom_type_partial_charge
O1    O     O_R   0.525340 0.338340 0.164530 -0.547752
O2    O     O_R   0.474660 0.661660 0.835470 -0.550848
O3    O     O_R   0.974660 0.838340 0.835470 -0.547710
O4    O     O_R   0.025340 0.161660 0.164530 -0.545720
O5    O     O_R   0.253520 0.352000 0.336710 -0.504412
O6    O     O_R   0.746480 0.648000 0.663290 -0.505326
O7    O     O_R   0.246480 0.852000 0.663290 -0.502856
O8    O     O_R   0.753520 0.148000 0.336710 -0.502060
O9    O     O_R   0.083330 0.168380 0.337300 -0.490625
O10   O     O_R   0.916670 0.831620 0.662700 -0.490281
O11   O     O_R   0.416670 0.668380 0.662700 -0.490050
O12   O     O_R   0.583330 0.331620 0.337300 -0.486604
C1    C     C_R   0.437063 0.372583 0.361373 0.846744
C2    C     C_R   0.562929 0.628576 0.637741 0.843694
C3    C     C_R   0.063976 0.872913 0.638851 0.842399
C4    C     C_R   0.935866 0.127868 0.361717 0.847354
O13   O     O_R   0.195840 0.349670 0.165140 -0.542232
O14   O     O_R   0.804160 0.650330 0.834860 -0.548916
O15   O     O_R   0.304160 0.849670 0.834860 -0.521409
O16   O     O_R   0.695840 0.150330 0.165140 -0.543873
C5    C     C_R   0.357763 0.369727 0.137081 0.822104
C6    C     C_R   0.643739 0.631598 0.863740 0.821848
C7    C     C_R   0.143639 0.869268 0.863465 0.812556
C8    C     C_R   0.855972 0.129733 0.137058 0.813062
O17   O     O_3   0.387830 0.193120 0.250910 -0.236678
O18   O     O_3   0.612170 0.806880 0.749090 -0.219202
O19   O     O_3   0.112170 0.693120 0.749090 -0.244226
O20   O     O_3   0.887830 0.306880 0.250910 -0.235372
V1    V     V_3+5 0.113010 0.264540 0.250910 1.306238
V2    V     V_3+5 0.886990 0.735460 0.749090 1.308486
V3    V     V_3+5 0.386990 0.764540 0.749090 1.328502
V4    V     V_3+5 0.613010 0.235460 0.250910 1.310144
C9    C     C_R   0.923484 0.188616 0.530993 0.214533
C10   C     C_R   0.079173 0.813637 0.468973 0.216972
C11   C     C_R   0.575508 0.690199 0.467757 0.224304
C12   C     C_R   0.424554 0.313103 0.532201 0.216832
C13   C     C_R   0.877602 0.211715 0.606324 0.281286
C14   C     C_R   0.120783 0.791508 0.392407 0.301921
C15   C     C_R   0.621832 0.714171 0.392285 0.275144
C16   C     C_R   0.382436 0.290605 0.608882 0.287005
C17   C     C_R   0.840210 0.143597 0.658767 0.445294
C18   C     C_R   0.147681 0.860370 0.338593 0.439842
C19   C     C_R   0.658701 0.646856 0.338812 0.436148
C20   C     C_R   0.349965 0.359176 0.661510 0.431735
C21   C     C_R   0.857595 0.052120 0.639910 0.134808
C22   C     C_R   0.137206 0.951285 0.360204 0.132447
C23   C     C_R   0.641289 0.554625 0.359065 0.139309
C24   C     C_R   0.359915 0.450216 0.639242 0.138966
C25   C     C_R   0.942070 0.026078 0.573371 -0.054720
C26   C     C_R   0.056235 0.975879 0.427603 -0.050692
C27   C     C_R   0.554767 0.528051 0.425472 -0.052476
C28   C     C_R   0.442965 0.475747 0.572119 -0.057580
C29   C     C_R   0.948895 0.094039 0.511630 -0.002966
C30   C     C_R   0.051593 0.907842 0.489180 0.002417
C31   C     C_R   0.548616 0.595571 0.487216 0.004385
C32   C     C_R   0.450353 0.407644 0.511174 0.003875
C33   C     C_R   0.014432 0.935663 0.566224 0.024952
C34   C     C_R   0.984860 0.065887 0.434760 0.027126
C35   C     C_R   0.486949 0.435985 0.433789 0.027103
C36   C     C_R   0.512403 0.566833 0.564368 0.025890
C37   C     C_2   0.148998 0.942857 0.926949 0.235962
C38   C     C_2   0.848590 0.055307 0.073809 0.244476
C39   C     C_2   0.357007 0.444894 0.075231 0.253605
C40   C     C_2   0.651790 0.559368 0.928169 0.258026
C41   C     C_2   0.001681 0.959219 0.970350 0.150751
C42   C     C_2   0.991948 0.041095 0.028037 0.148524
C43   C     C_2   0.502999 0.462056 0.031760 0.143828
C44   C     C_2   0.512717 0.545227 0.975456 0.152734
O21   O     O_3   0.191401 0.838245 0.264209 -0.614508
C45   C     C_3   0.034280 0.855274 0.205448 0.245045
H1    H     H_    0.048909 0.923829 0.178522 0.039921
H2    H     H_    0.899774 0.850498 0.229856 0.072838
C46   C     C_3   0.022694 0.783202 0.140773 -0.312013
H3    H     H_    0.040801 0.716920 0.171434 0.144693
H4    H     H_    0.883455 0.781168 0.103904 0.124281
H5    H     H_    0.129699 0.795421 0.101354 0.137091
O22   O     O_3   0.781876 0.167177 0.729998 -0.588923
C47   C     C_3   0.930765 0.153038 0.793217 0.257789
H6    H     H_    0.070113 0.153134 0.772746 0.046522
H7    H     H_    0.909897 0.087467 0.824260 0.052001
C48   C     C_3   0.933495 0.231012 0.851255 -0.321736
H8    H     H_    0.807175 0.228916 0.880293 0.118903
H9    H     H_    0.056412 0.229526 0.898355 0.131734
H10   H     H_    0.941087 0.294061 0.815862 0.158290
O23   O     O_3   0.290598 0.336238 0.732960 -0.593785
C49   C     C_3   0.438571 0.353983 0.796248 0.245911
H11   H     H_    0.444070 0.427824 0.812035 0.030436
H12   H     H_    0.575747 0.332522 0.780575 0.078872
C50   C     C_3   0.404640 0.298803 0.868699 -0.305434
H13   H     H_    0.536772 0.278708 0.905256 0.121908
H14   H     H_    0.320556 0.336226 0.906961 0.108885
H15   H     H_    0.329966 0.236452 0.846433 0.142486
O24   O     O_3   0.746107 0.672369 0.274306 -0.589775
C51   C     C_3   0.627088 0.655326 0.200897 0.236912
H16   H     H_    0.568230 0.584689 0.196873 0.033527
H17   H     H_    0.709175 0.662921 0.151142 0.080883
C52   C     C_3   0.476640 0.726331 0.186551 -0.389502
H18   H     H_    0.537316 0.793524 0.204911 0.180820
H19   H     H_    0.419510 0.730618 0.121900 0.131291
H20   H     H_    0.366326 0.708521 0.222618 0.180384
Br1   Br    Br    0.968295 0.292569 0.464921 -0.418471
Br2   Br    Br    0.036630 0.708894 0.534490 -0.417870
Br3   Br    Br    0.534226 0.793151 0.534975 -0.424892
Br4   Br    Br    0.464675 0.208936 0.466713 -0.424969
Br5   Br    Br    0.855267 0.336439 0.639938 -0.545369
Br6   Br    Br    0.151297 0.667358 0.359100 -0.551061
Br7   Br    Br    0.651005 0.840340 0.362590 -0.574399
Br8   Br    Br    0.356223 0.166094 0.643867 -0.542133
Br9   Br    Br    0.679931 0.977773 0.682230 -0.420963
Br10  Br    Br    0.332483 0.023537 0.328878 -0.431310
Br11  Br    Br    0.828168 0.479713 0.326568 -0.440443
Br12  Br    Br    0.168225 0.521868 0.671980 -0.427835
Br13  Br    Br    0.185379 0.134982 0.031141 -0.621759
Br14  Br    Br    0.797087 0.870102 0.961991 -0.566689
Br15  Br    Br    0.331692 0.641886 0.976506 -0.613625
Br16  Br    Br    0.699923 0.371685 0.036565 -0.606388
O25   O     O_3   0.682266 0.005897 0.057798 -0.587670
C53   C     C_3   0.645203 0.957233 0.126912 0.350330
H21   H     H_    0.734671 0.976847 0.184531 -0.055722
H22   H     H_    0.664739 0.883870 0.116406 0.071106
C54   C     C_3   0.444217 0.969035 0.138668 -0.210484
H23   H     H_    0.348147 0.940688 0.086807 0.147138
H24   H     H_    0.419034 0.931624 0.193044 0.135025
H25   H     H_    0.415839 0.041810 0.148304 0.200164
O26   O     O_3   0.316123 0.991047 0.943078 -0.583357
C55   C     C_3   0.338139 0.045603 0.875470 0.356504
H26   H     H_    0.254069 0.106120 0.878408 0.031543
H27   H     H_    0.292215 0.013217 0.815602 0.005291
C56   C     C_3   0.539670 0.075259 0.878700 -0.210818
H28   H     H_    0.627395 0.015185 0.873180 0.181571
H29   H     H_    0.550619 0.121037 0.826972 0.125245
H30   H     H_    0.589410 0.112704 0.935520 0.149138
O27   O     O_3   0.817133 0.512353 0.944032 -0.590543
C57   C     C_3   0.847860 0.462369 0.875365 0.336852
H31   H     H_    0.757059 0.479386 0.817532 -0.049709
H32   H     H_    0.820037 0.390406 0.887802 0.079856
C58   C     C_3   0.048797 0.474620 0.862825 -0.221590
H33   H     H_    0.142194 0.454089 0.917751 0.155198
H34   H     H_    0.075963 0.431855 0.811906 0.133650
H35   H     H_    0.078849 0.546712 0.848878 0.198101
O28   O     O_3   0.196671 0.495812 0.061097 -0.594430
C59   C     C_3   0.173285 0.544258 0.131526 0.333477
H36   H     H_    0.197463 0.616648 0.119870 0.090628
H37   H     H_    0.269049 0.526026 0.187785 -0.047501
C60   C     C_3   0.975767 0.532659 0.147458 -0.232812
H38   H     H_    0.944117 0.460464 0.159707 0.207458
H39   H     H_    0.961463 0.572494 0.201746 0.140020
H40   H     H_    0.877314 0.557638 0.095186 0.150023

loop_
_geom_bond_atom_site_label_1
_geom_bond_atom_site_label_2
_geom_bond_distance
_ccdc_geom_bond_type
C25   C29   1.440133 A    
O1    C5    1.320224 A    
O24   C51   1.410848 S    
C42   Br13  1.946126 S    
O13   V1    2.055138 S    
C41   Br14  1.951930 S    
O3    C7    1.318177 A    
O15   V3    2.067718 S    
C48   H10   1.101291 S    
C57   C58   1.513945 S    
C52   H18   1.096596 S    
C27   C31   1.438386 A    
O22   C47   1.409035 S    
C15   Br7   1.928222 S    
C58   H34   1.103093 S    
C10   Br2   1.933145 S    
C9    Br1   1.933595 S    
C40   C44   1.390319 D    
O20   V1    1.755599 S    
O9    C4    1.335316 A    
C14   C18   1.383328 A    
C24   C28   1.404707 A    
C11   Br3   1.936779 S    
O10   C3    1.335284 A    
C17   O22   1.373893 S    
C11   C15   1.401986 A    
O4    C8    1.323720 A    
O11   C2    1.340240 A    
C21   Br9   1.895746 S    
C25   C33   1.441420 A    
C46   H3    1.096537 S    
C53   H21   1.113435 S    
C38   O25   1.389102 S    
C28   C36   1.431165 A    
C52   H19   1.101312 S    
O16   C8    1.357616 A    
C5    C39   1.509775 S    
C54   H25   1.103818 S    
O2    C6    1.325826 A    
C8    C38   1.516026 S    
C45   H1    1.109624 S    
O14   V2    2.055137 S    
C50   H14   1.102454 S    
O5    C1    1.362416 A    
O4    V1    2.113192 S    
O9    V1    2.050838 S    
C16   Br8   1.928546 S    
C56   H30   1.108451 S    
O17   V4    1.740404 S    
O7    C3    1.363362 A    
O11   V3    2.058193 S    
O18   V3    1.740404 S    
O8    C4    1.361107 A    
C10   C14   1.403343 A    
C31   C36   1.421566 A    
O12   V4    2.058192 S    
O19   V2    1.755599 S    
C3    C33   1.524701 S    
C59   C60   1.506050 S    
O21   C45   1.411621 S    
C60   H39   1.100964 S    
C60   H38   1.103483 S    
O5    V1    2.065310 S    
C9    C29   1.442267 A    
C58   H35   1.105989 S    
C39   C43   1.396243 D    
O7    V3    2.078712 S    
C38   C42   1.403300 D    
C11   C31   1.439300 A    
C43   C44   1.546343 S    
C26   C34   1.433156 A    
C12   C16   1.404835 A    
C49   H11   1.111266 S    
C15   C19   1.389203 A    
C55   C56   1.513346 S    
O23   C49   1.410115 S    
C18   O21   1.374310 S    
C48   H8    1.102971 S    
C37   O26   1.385093 S    
O2    V3    2.121441 S    
C53   C54   1.514330 S    
O8    V4    2.078711 S    
C14   Br6   1.926489 S    
O3    V2    2.113190 S    
O15   C7    1.361105 A    
C43   Br16  1.952151 S    
C13   Br5   1.926705 S    
C12   C32   1.443531 A    
O6    C2    1.361382 A    
O10   V2    2.050839 S    
C21   C25   1.409340 A    
C45   C46   1.506172 S    
C39   O28   1.379230 S    
C47   H7    1.110329 S    
C4    C34   1.522800 S    
C50   H15   1.091162 S    
C51   H17   1.102634 S    
C54   H23   1.104833 S    
C53   H22   1.102310 S    
C24   Br12  1.900858 S    
C10   C30   1.443496 A    
C22   Br10  1.895230 S    
C18   C22   1.385126 A    
O26   C55   1.413442 S    
C46   H5    1.107909 S    
C59   H37   1.116043 S    
C27   C35   1.441742 A    
C46   H4    1.100274 S    
C20   O23   1.374481 S    
C60   H40   1.106612 S    
C9    C13   1.398666 A    
C56   H28   1.104308 S    
O16   V4    2.067719 S    
C7    C37   1.511305 S    
C40   O27   1.380744 S    
C55   H27   1.112496 S    
C52   H20   1.104130 S    
O6    V2    2.065309 S    
O14   C6    1.353407 A    
C49   C50   1.507593 S    
C48   H9    1.096730 S    
C23   C27   1.412409 A    
C29   C34   1.417393 A    
C57   H31   1.114771 S    
C1    C35   1.524909 S    
C2    C36   1.523174 S    
C58   H33   1.099746 S    
C22   C26   1.402002 A    
C51   C52   1.508926 S    
C32   C35   1.424447 A    
C12   Br4   1.931200 S    
C26   C30   1.436840 A    
O25   C53   1.418286 S    
C47   H6    1.117445 S    
C47   C48   1.498709 S    
O27   C57   1.413347 S    
C28   C32   1.435992 A    
C55   H26   1.087246 S    
C23   Br11  1.899542 S    
C19   O24   1.384710 S    
C57   H32   1.095016 S    
C49   H12   1.117501 S    
O1    V4    2.121443 S    
C13   C17   1.379832 A    
C51   H16   1.111044 S    
O13   C5    1.360521 A    
C54   H24   1.100864 S    
C44   Br15  1.944784 S    
C6    C40   1.505145 S    
C37   C41   1.406854 D    
C16   C20   1.383659 A    
O12   C1    1.341547 A    
C41   C42   1.550140 S    
C17   C21   1.387320 A    
C59   H36   1.093287 S    
C45   H2    1.117041 S    
C50   H13   1.098613 S    
O28   C59   1.412294 S    
C19   C23   1.399519 A    
C20   C24   1.386411 A    
C56   H29   1.106959 S    
C30   C33   1.421566 A    
