data_mof_unit_7749.cif
_audit_creation_date              2012-10-26T20:07:47-0400
_audit_creation_method            fapswitch 2.2
_symmetry_space_group_name_H-M    P1
_symmetry_Int_Tables_number       1
_space_group_crystal_system       triclinic
_cell_length_a                    9.5985
_cell_length_b                    10.799799
_cell_length_c                    17.085416
_cell_angle_alpha                 86.927784
_cell_angle_beta                  92.810583
_cell_angle_gamma                 90.963206
_cell_volume                      1766.25470366

loop_
_atom_site_label
_atom_site_type_symbol
_atom_type_description
_atom_site_fract_x
_atom_site_fract_y
_atom_site_fract_z
_atom_type_partial_charge
C1    C     C_R   0.499341 0.262358 0.499668 0.558690
C2    C     C_R   0.074630 0.578939 0.451007 0.006707
C3    C     C_R   0.516366 0.497920 0.650786 0.563166
C4    C     C_R   0.483411 0.500744 0.349419 0.560140
C5    C     C_R   0.523951 0.493725 0.736796 0.015622
C6    C     C_R   0.473976 0.499360 0.263878 0.023860
C7    C     C_R   0.401888 0.502456 0.777916 -0.124801
C8    C     C_R   0.579902 0.446097 0.223976 -0.109156
C9    C     C_R   0.408527 0.497433 0.859464 -0.080438
C10   C     C_R   0.571612 0.446247 0.142488 -0.073428
C11   C     C_R   0.538192 0.483515 0.901405 0.226580
C12   C     C_R   0.500769 0.737668 0.499463 0.559388
C13   C     C_R   0.455863 0.499328 0.099760 0.223710
C14   C     C_R   0.659396 0.473683 0.860252 -0.100785
C15   C     C_R   0.348447 0.548931 0.140062 -0.099796
C16   C     C_R   0.652839 0.479165 0.778558 -0.144828
C17   C     C_R   0.357197 0.549275 0.221598 -0.138312
C18   C     C_R   0.381835 0.064547 0.469927 -0.087537
C19   C     C_R   0.620894 0.935736 0.524983 -0.105952
C20   C     C_R   0.382287 0.936354 0.470218 -0.115385
C21   C     C_R   0.619662 0.063814 0.525726 -0.118691
C22   C     C_R   0.501644 0.871693 0.498080 0.028505
C23   C     C_R   0.499588 0.128436 0.498873 0.029025
C24   C     C_R   0.072792 0.418721 0.549887 0.349358
C25   C     C_R   0.926960 0.577494 0.447759 0.352034
C26   C     C_R   0.925623 0.424037 0.550836 0.003919
Cu1   Cu    Cu3+1 0.640660 0.500020 0.500000 1.044745
Cu2   Cu    Cu3+1 0.359340 0.499980 0.500000 1.043398
H1    H     H_    0.668053 0.402752 0.255827 0.167947
H2    H     H_    0.713819 0.886857 0.546664 0.149899
H3    H     H_    0.290126 0.887998 0.447835 0.153264
H4    H     H_    0.711977 0.112087 0.547986 0.153558
H5    H     H_    0.867751 0.361213 0.588961 0.180785
H6    H     H_    0.132354 0.638219 0.410762 0.179652
H7    H     H_    0.058631 0.165205 0.698464 0.374248
H8    H     H_    0.938641 0.805200 0.282806 0.374242
H9    H     H_    0.301056 0.513234 0.747182 0.161693
H10   H     H_    0.655148 0.404331 0.113305 0.146768
H11   H     H_    0.312213 0.504076 0.889303 0.144155
H12   H     H_    0.759466 0.462366 0.891749 0.130975
H13   H     H_    0.258445 0.588846 0.107982 0.133216
H14   H     H_    0.748549 0.471370 0.748244 0.149338
H15   H     H_    0.273578 0.589924 0.251500 0.150288
H16   H     H_    0.290593 0.113604 0.446079 0.176728
N1    N     N_2   0.551468 0.478429 0.984493 -0.241232
N2    N     N_2   0.442647 0.504045 0.016722 -0.244711
N3    N     N_R   0.852070 0.500030 0.499980 -0.293633
N4    N     N_R   0.147930 0.499970 0.500020 -0.293044
O1    O     O_R   0.618740 0.319660 0.500000 -0.529252
O2    O     O_2   0.284590 0.295637 0.639982 -0.252732
O3    O     O_3   0.034665 0.250999 0.679804 -0.576482
O4    O     O_2   0.840310 0.576760 0.297398 -0.317458
O5    O     O_2   0.719799 0.724772 0.372358 -0.247844
O6    O     O_3   0.970527 0.776278 0.336618 -0.571517
O7    O     O_R   0.381260 0.680340 0.500000 -0.529211
O8    O     O_R   0.381170 0.319630 0.500010 -0.433033
O9    O     O_R   0.618830 0.680370 0.499990 -0.457920
O10   O     O_R   0.631780 0.498870 0.613920 -0.530442
O11   O     O_R   0.368220 0.501130 0.386080 -0.530014
O12   O     O_R   0.394210 0.498840 0.613930 -0.457698
O13   O     O_R   0.605790 0.501160 0.386070 -0.427799
O14   O     O_2   0.131161 0.178714 0.552014 -0.316267
S1    S     S_3+6 0.139203 0.285255 0.605101 0.012594
S2    S     S_3+6 0.856202 0.663569 0.363113 0.021202

loop_
_geom_bond_atom_site_label_1
_geom_bond_atom_site_label_2
_ccdc_geom_bond_type
C17   H15   S    
C7    C9    A    
O14   S1    D    
C16   H14   S    
C2    C25   A    
C25   N3    A    
C26   H5    S    
C10   H10   S    
C3    O12   A    
C2    H6    S    
Cu2   O12   S    
C7    H9    S    
C3    C5    S    
C10   C13   A    
N1    N2    D    
Cu1   O9    S    
O2    S1    D    
C9    C11   A    
O6    S2    S    
C26   N3    A    
Cu2   O8    S    
C12   O9    A    
C4    O13   A    
C4    O11   A    
C4    C6    S    
C11   C14   A    
Cu2   O7    S    
C20   C22   A    
C1    C23   S    
C24   S1    S    
C18   C20   A    
C13   C15   A    
C21   C23   A    
H7    O3    S    
C13   N2    S    
C20   H3    S    
C21   H4    S    
C14   C16   A    
C11   N1    S    
C12   O7    A    
H8    O6    S    
C8    H1    S    
C14   H12   S    
C18   C23   A    
C24   N4    A    
C3    O10   A    
C12   C22   S    
C18   H16   S    
C9    H11   S    
C19   C22   A    
O3    S1    S    
C15   H13   S    
C15   C17   A    
O4    S2    D    
Cu2   O11   S    
Cu1   N3    S    
Cu1   Cu2   S    
C5    C7    A    
C6    C17   A    
Cu2   N4    S    
C5    C16   A    
C6    C8    A    
Cu1   O13   S    
C2    N4    A    
Cu1   O10   S    
C19   H2    S    
C1    O1    A    
O5    S2    D    
C1    O8    A    
C8    C10   A    
Cu1   O1    S    
C24   C26   A    
C19   C21   A    
C25   S2    S    
