data_mof_unit_7065.cif
_audit_creation_date              2012-10-26T21:05:21-0400
_audit_creation_method            fapswitch 2.2
_symmetry_space_group_name_H-M    P1
_symmetry_Int_Tables_number       1
_space_group_crystal_system       triclinic
_cell_length_a                    9.640633
_cell_length_b                    10.768858
_cell_length_c                    13.866393
_cell_angle_alpha                 92.985295
_cell_angle_beta                  84.432674
_cell_angle_gamma                 90.456534
_cell_volume                      1430.84835101

loop_
_atom_site_label
_atom_site_type_symbol
_atom_type_description
_atom_site_fract_x
_atom_site_fract_y
_atom_site_fract_z
_atom_type_partial_charge
Br1   Br    Br    0.289602 0.248885 0.326860 -0.515246
C1    C     C_R   0.499833 0.737338 0.503797 0.532653
C2    C     C_R   0.589002 0.933013 0.444094 -0.138777
C3    C     C_R   0.588188 0.061040 0.443933 -0.123541
C4    C     C_R   0.476922 0.500291 0.682845 0.523607
C5    C     C_R   0.497805 0.129696 0.510796 0.027476
C6    C     C_R   0.872001 0.368143 0.352142 -0.079459
C7    C     C_R   0.944797 0.345761 0.262214 -0.185210
C8    C     C_R   0.087080 0.362878 0.252426 -0.120983
C9    C     C_R   0.156227 0.381395 0.336014 0.203920
C10   C     C_R   0.083432 0.437092 0.423547 0.164826
C11   C     C_R   0.933777 0.435170 0.426656 0.132226
C12   C     C_1   0.462522 0.499374 0.786226 -0.026090
C13   C     C_R   0.917178 0.561363 0.570598 0.002238
C14   C     C_R   0.064564 0.560248 0.571168 -0.006226
C15   C     C_R   0.499132 0.263191 0.504228 0.561315
C16   C     C_R   0.523096 0.500284 0.317188 0.570645
C17   C     C_1   0.537346 0.499676 0.213771 0.002889
C18   C     C_2   0.557480 0.498828 0.022844 -0.116982
C19   C     C_2   0.441929 0.497522 0.977090 -0.116205
C20   C     C_1   0.451892 0.498463 0.873243 -0.053479
C21   C     C_1   0.547680 0.499156 0.126717 -0.042168
C22   C     C_R   0.328305 0.879271 0.656549 -0.104828
C23   C     C_R   0.244203 0.948139 0.727024 -0.121050
C24   C     C_R   0.243085 0.077225 0.726677 -0.114304
C25   C     C_R   0.326095 0.138269 0.655873 -0.095227
C26   C     C_R   0.410418 0.070328 0.582539 0.031642
C27   C     C_R   0.411433 0.938998 0.582810 0.029448
C28   C     C_R   0.499477 0.871661 0.511139 0.004920
Cu1   Cu    Cu3+1 0.359340 0.500010 0.500010 0.976180
Cu2   Cu    Cu3+1 0.640660 0.499990 0.499990 0.937331
H1    H     H_    0.339462 0.496193 0.017343 0.134642
H2    H     H_    0.325124 0.238694 0.660707 0.137523
H3    H     H_    0.656266 0.106829 0.389787 0.126148
H4    H     H_    0.855069 0.612539 0.628345 0.119896
H5    H     H_    0.143440 0.331869 0.184017 0.151211
H6    H     H_    0.767997 0.332942 0.360278 0.182380
H7    H     H_    0.892567 0.306122 0.202047 0.128408
H8    H     H_    0.111605 0.610379 0.629360 0.110002
H9    H     H_    0.659930 0.500247 0.982592 0.132561
H10   H     H_    0.657433 0.881241 0.389977 0.134280
H11   H     H_    0.329294 0.779546 0.662006 0.126458
H12   H     H_    0.181088 0.901175 0.782955 0.112486
H13   H     H_    0.179082 0.130439 0.782335 0.116763
N1    N     N_R   0.852210 0.498790 0.499090 -0.241364
N2    N     N_R   0.148080 0.498710 0.499060 -0.237786
O1    O     O_R   0.381190 0.680360 0.500010 -0.501101
O2    O     O_R   0.618760 0.680340 0.500000 -0.497996
O3    O     O_R   0.364420 0.499990 0.637850 -0.522153
O4    O     O_R   0.601990 0.499960 0.637840 -0.497024
O5    O     O_R   0.381240 0.319660 0.500000 -0.450954
O6    O     O_R   0.618810 0.319640 0.499990 -0.525036
O7    O     O_R   0.398010 0.500040 0.362160 -0.463035
O8    O     O_R   0.635580 0.500010 0.362150 -0.517850

loop_
_geom_bond_atom_site_label_1
_geom_bond_atom_site_label_2
_ccdc_geom_bond_type
C7    C8    A    
C8    H5    S    
C15   O6    A    
C10   C11   A    
C1    O1    A    
C8    C9    A    
C25   H2    S    
C4    C12   S    
C5    C26   A    
C15   O5    A    
Cu2   O6    S    
Cu1   O5    S    
C4    O3    A    
C16   C17   S    
C6    H6    S    
C9    C10   A    
C12   C20   T    
C6    C7    A    
C22   C27   A    
C23   C24   A    
C14   H8    S    
C25   C26   A    
C6    C11   A    
C22   H11   S    
C7    H7    S    
C1    C28   S    
C24   H13   S    
C27   C28   A    
Cu1   O3    S    
C13   N1    A    
Cu2   O2    S    
Cu2   O8    S    
Cu2   N1    S    
Cu1   Cu2   S    
Cu1   O7    S    
C3    H3    S    
C4    O4    A    
C18   H9    S    
Cu2   O4    S    
C5    C15   S    
C2    C3    A    
C16   O7    A    
Cu1   O1    S    
C26   C27   A    
C18   C21   S    
C19   C20   S    
C3    C5    A    
C19   H1    S    
C13   H4    S    
C2    C28   A    
C23   H12   S    
C13   C14   A    
C2    H10   S    
C10   N2    A    
C22   C23   A    
C14   N2    A    
C1    O2    A    
C24   C25   A    
C17   C21   T    
C16   O8    A    
Cu1   N2    S    
Br1   C9    S    
C18   C19   D    
C11   N1    A    
