data_mof_unit_64037.cif
_audit_creation_date              2012-12-10T22:09:26-0500
_audit_creation_method            fapswitch 2.2
_symmetry_space_group_name_H-M    P1
_symmetry_Int_Tables_number       1
_space_group_crystal_system       triclinic
_cell_length_a                    16.422634
_cell_length_b                    16.565121
_cell_length_c                    28.795996
_cell_angle_alpha                 90.403385
_cell_angle_beta                  90.731285
_cell_angle_gamma                 90.278557
_cell_volume                      7832.81858036

loop_
_atom_site_label
_atom_site_type_symbol
_atom_type_description
_atom_site_fract_x
_atom_site_fract_y
_atom_site_fract_z
_atom_type_partial_charge
C1    C     C_R   0.616857 0.998148 0.560770 0.892731
C2    C     C_R   0.284507 0.929675 0.387407 -0.168317
C3    C     C_R   0.772677 0.078456 0.358123 -0.234913
C4    C     C_R   0.613441 0.001560 0.438885 0.941011
C5    C     C_R   0.710857 0.076481 0.390426 -0.248609
C6    C     C_3   0.994059 0.011716 0.253788 -0.052144
C7    C     C_R   0.193971 0.004148 0.337389 -0.007370
C8    C     C_R   0.318819 0.002600 0.403612 -0.136683
C9    C     C_R   0.801026 0.006470 0.339171 -0.109497
C10   C     C_R   0.677246 0.002269 0.404008 -0.282534
C11   C     C_R   0.996058 0.212981 0.175326 -0.058385
C12   C     C_R   0.066823 0.292328 0.118913 0.588714
C13   C     C_R   0.994614 0.335375 0.109644 -0.347973
C14   C     C_R   0.984650 0.824100 0.163118 -0.117387
C15   C     C_R   0.985800 0.696651 0.099728 -0.282047
C16   C     C_R   0.386029 0.998430 0.560744 0.779557
C17   C     C_1   0.067120 0.007277 0.281944 0.022952
C18   C     C_1   0.994486 0.085421 0.227636 0.009747
C19   C     C_1   0.924306 0.010427 0.283373 0.044723
C20   C     C_1   0.989535 0.943977 0.222229 0.029537
C21   C     C_1   0.126082 0.005092 0.306524 0.057375
C22   C     C_1   0.986082 0.888732 0.195525 0.116876
C23   C     C_R   0.914058 0.777936 0.156041 0.711592
C24   C     C_1   0.994962 0.144969 0.204686 0.066639
C25   C     C_1   0.867285 0.008802 0.308436 0.108567
C26   C     C_R   0.014770 0.101617 0.769436 -0.179326
C27   C     C_R   0.045209 0.167936 0.794546 0.581724
C28   C     C_R   0.383558 0.001832 0.438876 0.896792
C29   C     C_R   0.086492 0.838682 0.782870 0.631274
C30   C     C_R   0.076486 0.783205 0.818664 -0.202387
C31   C     C_R   0.941998 0.037689 0.676362 -0.217929
C32   C     C_R   0.872205 0.046243 0.648685 -0.246711
C33   C     C_R   0.076210 0.850610 0.673815 0.638474
C34   C     C_R   0.914594 0.714266 0.124236 -0.343821
C35   C     C_R   0.120028 0.824193 0.635420 -0.197072
C36   C     C_R   0.141593 0.981952 0.668692 0.566716
C37   C     C_R   0.185050 0.954496 0.630261 -0.231762
C38   C     C_R   0.887115 0.913998 0.707716 -0.094121
C39   C     C_R   0.817376 0.922706 0.680074 0.652984
C40   C     C_R   0.228421 0.077027 0.352750 0.674389
C41   C     C_R   0.146502 0.037430 0.775028 -0.178990
C42   C     C_R   0.176939 0.103740 0.800111 0.609525
C43   C     C_R   0.961993 0.905155 0.806039 0.541926
C44   C     C_R   0.952747 0.849310 0.841721 -0.215989
C45   C     C_R   0.055116 0.807955 0.138415 -0.326459
C46   C     C_3   0.032755 0.958953 0.732988 0.062993
C47   C     C_R   0.065478 0.035861 0.757873 0.004525
C48   C     C_R   0.126472 0.169414 0.809749 -0.176203
C49   C     C_R   0.025887 0.897569 0.773438 -0.142309
C50   C     C_R   0.008783 0.787150 0.847331 -0.047656
C51   C     C_R   0.950360 0.972391 0.707411 0.053572
C52   C     C_R   0.290825 0.076259 0.385796 -0.266435
C53   C     C_R   0.809898 0.988735 0.650438 -0.000893
C54   C     C_R   0.088134 0.929378 0.692837 -0.105058
C55   C     C_R   0.174695 0.875733 0.613714 -0.057954
C56   C     C_R   0.056072 0.744600 0.106745 0.668730
C57   C     C_1   0.998791 0.728484 0.883368 0.054657
C58   C     C_1   0.993461 0.678220 0.913194 -0.144230
C59   C     C_1   0.157568 0.237609 0.835934 0.150502
C60   C     C_1   0.183489 0.294658 0.857864 0.093771
C61   C     C_1   0.740863 0.994394 0.619549 0.066513
C62   C     C_1   0.683739 0.997002 0.593040 -0.130315
C63   C     C_1   0.217298 0.848678 0.573114 0.010288
C64   C     C_R   0.767551 0.932270 0.351702 0.605095
C65   C     C_1   0.252403 0.825689 0.539000 0.051957
C66   C     C_R   0.987459 0.627805 0.067780 0.932450
C67   C     C_R   0.924695 0.256203 0.167424 -0.225446
C68   C     C_R   0.993310 0.397511 0.073766 0.943537
C69   C     C_R   0.992369 0.617539 0.948342 0.879611
C70   C     C_R   0.998194 0.387003 0.953655 0.820332
C71   C     C_R   0.705570 0.929879 0.384076 0.549027
C72   C     C_R   0.067118 0.231315 0.151667 -0.215047
C73   C     C_R   0.923694 0.317535 0.134739 0.593288
C74   C     C_R   0.222066 0.930565 0.354392 -0.232003
F1    F     F_    0.795718 0.862365 0.333072 -0.588100
F2    F     F_    0.136372 0.306869 0.095317 -0.615776
F3    F     F_    0.907382 0.966189 0.803147 -0.654785
F4    F     F_    0.125499 0.731067 0.082852 -0.621933
F5    F     F_    0.853458 0.358836 0.127695 -0.617048
F6    F     F_    0.200645 0.148652 0.336426 -0.648298
F7    F     F_    0.845325 0.794117 0.180034 -0.611357
F8    F     F_    0.994811 0.230196 0.804653 -0.634594
F9    F     F_    0.674108 0.857025 0.395910 -0.590695
F10   F     F_    0.758403 0.865020 0.681070 -0.628154
F11   F     F_    0.255553 0.103458 0.815275 -0.616360
F12   F     F_    0.156919 0.835304 0.758853 -0.662882
F13   F     F_    0.021184 0.798708 0.691979 -0.667314
F14   F     F_    0.148869 0.061411 0.679676 -0.668659
H1    H     H_    0.122199 0.196909 0.157671 0.194667
H2    H     H_    0.109496 0.844409 0.143740 0.202081
H3    H     H_    0.869519 0.241355 0.185845 0.190442
H4    H     H_    0.799084 0.135906 0.348395 0.190812
H5    H     H_    0.110034 0.763565 0.622079 0.190662
H6    H     H_    0.901817 0.854806 0.865070 0.199239
H7    H     H_    0.990378 0.081727 0.672988 0.217893
H8    H     H_    0.186712 0.987194 0.768543 0.224955
H9    H     H_    0.305180 0.872118 0.400567 0.183858
H10   H     H_    0.690114 0.133025 0.405092 0.209366
H11   H     H_    0.194867 0.874128 0.342694 0.178871
H12   H     H_    0.122385 0.737395 0.824318 0.193349
H13   H     H_    0.867776 0.096721 0.625075 0.185649
H14   H     H_    0.225273 0.995792 0.612536 0.163330
H15   H     H_    0.950812 0.101718 0.760186 0.226340
H16   H     H_    0.891978 0.859661 0.728059 0.202330
H17   H     H_    0.859979 0.678120 0.119343 0.225098
H18   H     H_    0.316634 0.133182 0.397639 0.195131
O1    O     O_R   0.589050 0.066000 0.546390 -0.611253
O2    O     O_R   0.586750 0.068930 0.454890 -0.631756
O3    O     O_R   0.587650 0.931070 0.545110 -0.586652
O4    O     O_R   0.413250 0.931070 0.545110 -0.603188
O5    O     O_R   0.412350 0.068930 0.454890 -0.617235
O6    O     O_R   0.410950 0.934000 0.453610 -0.618273
O7    O     O_R   0.414650 0.066000 0.546390 -0.591090
O8    O     O_R   0.056930 0.600420 0.055130 -0.548602
O9    O     O_R   0.924600 0.421430 0.056650 -0.554703
O10   O     O_R   0.061270 0.426220 0.059090 -0.554338
O11   O     O_R   0.920260 0.595630 0.052680 -0.619645
O12   O     O_R   0.924170 0.588160 0.962540 -0.607471
O13   O     O_R   0.065180 0.418740 0.968950 -0.604256
O14   O     O_R   0.928510 0.413960 0.966510 -0.599649
O15   O     O_R   0.060840 0.592940 0.964990 -0.598081
O16   O     O_R   0.585350 0.934000 0.453610 -0.541501
Zn1   Zn    Zn3+2 0.500940 0.090730 0.500860 1.010488
Zn2   Zn    Zn3+2 0.499060 0.909270 0.499140 1.067918
Zn3   Zn    Zn3+2 0.084620 0.510410 0.012460 1.107993
Zn4   Zn    Zn3+2 0.900820 0.503970 0.009170 1.072474

loop_
_geom_bond_atom_site_label_1
_geom_bond_atom_site_label_2
_ccdc_geom_bond_type
C27   C48   A    
C63   C65   T    
C9    C64   A    
C41   C42   A    
C69   O12   A    
O1    Zn1   S    
C16   O7    A    
C16   O4    A    
C29   C49   A    
C28   O6    A    
C6    C19   S    
C4    O2    A    
C46   C49   S    
C26   C27   A    
O9    Zn4   S    
C18   C24   T    
C36   C37   A    
C39   C53   A    
C39   F10   S    
O6    Zn2   S    
C38   C39   A    
O14   Zn4   S    
C41   H8    S    
C30   H12   S    
C11   C24   S    
C56   F4    S    
C64   C71   A    
C38   H16   S    
C1    O3    A    
C53   C61   S    
C2    H9    S    
C70   O14   A    
C66   O11   A    
C55   C63   S    
C7    C40   A    
C40   F6    S    
C67   C73   A    
C7    C74   A    
C66   O8    A    
O11   Zn4   S    
C8    C52   A    
C15   C34   A    
C2    C74   A    
O4    Zn2   S    
C10   C71   A    
C12   C72   A    
C52   H18   S    
C59   C60   T    
C1    C62   S    
C34   H17   S    
C11   C67   A    
C14   C45   A    
C71   F9    S    
C35   H5    S    
C28   O5    A    
C73   F5    S    
C6    C18   S    
O5    Zn1   S    
C36   C54   A    
C45   C56   A    
C31   C51   A    
O8    Zn3   S    
C11   C72   A    
C43   C49   A    
C38   C51   A    
C40   C52   A    
C15   C66   S    
C35   C55   A    
C46   C51   S    
C36   F14   S    
C3    H4    S    
C14   C23   A    
C43   C44   A    
O15   Zn3   S    
C29   C30   A    
C3    C9    A    
C26   H15   S    
C31   C32   A    
O7    Zn1   S    
C69   O15   A    
C70   O13   A    
C23   C34   A    
C46   C54   S    
C67   H3    S    
C41   C47   A    
C4    O16   A    
O3    Zn2   S    
C42   F11   S    
C42   C48   A    
C5    H10   S    
C45   H2    S    
C29   F12   S    
C26   C47   A    
C68   O10   A    
O13   Zn3   S    
C13   C73   A    
O10   Zn3   S    
C12   F2    S    
C1    O1    A    
C8    C28   S    
O2    Zn1   S    
C4    C10   S    
C32   C53   A    
C48   C59   S    
C44   C50   A    
C33   C54   A    
C6    C17   S    
C46   C47   S    
C23   F7    S    
C50   C57   S    
C27   F8    S    
C2    C8    A    
C20   C22   T    
C3    C5    A    
C9    C25   S    
C58   C69   S    
C74   H11   S    
C43   F3    S    
C6    C20   S    
C15   C56   A    
C14   C22   S    
C33   F13   S    
C5    C10   A    
C7    C21   S    
C72   H1    S    
C57   C58   T    
C37   H14   S    
C31   H7    S    
C33   C35   A    
C64   F1    S    
C30   C50   A    
C61   C62   T    
C19   C25   T    
C17   C21   T    
C44   H6    S    
C68   O9    A    
C37   C55   A    
C12   C13   A    
C32   H13   S    
O12   Zn4   S    
O16   Zn2   S    
C13   C68   S    
