data_mof_unit_15574.cif
_audit_creation_date              2012-12-11T15:07:34-0500
_audit_creation_method            fapswitch 2.2
_symmetry_space_group_name_H-M    P1
_symmetry_Int_Tables_number       1
_space_group_crystal_system       triclinic
_cell_length_a                    21.658785
_cell_length_b                    7.205146
_cell_length_c                    18.613846
_cell_angle_alpha                 89.99393
_cell_angle_beta                  96.025368
_cell_angle_gamma                 89.995437
_cell_volume                      2888.73087879

loop_
_atom_site_label
_atom_site_type_symbol
_atom_type_description
_atom_site_fract_x
_atom_site_fract_y
_atom_site_fract_z
_atom_type_partial_charge
O1    O     O_R   0.449650 0.506500 0.414480 -0.533533
O2    O     O_R   0.550350 0.006500 0.585520 -0.533546
O3    O     O_R   0.432010 0.173150 0.560250 -0.539239
O4    O     O_R   0.567990 0.673150 0.439750 -0.539233
C1    C     C_R   0.415624 0.344546 0.580241 0.686259
C2    C     C_R   0.584375 0.844546 0.419758 0.686280
O5    O     O_R   0.442320 0.176650 0.413480 -0.532963
O6    O     O_R   0.557680 0.676650 0.586520 -0.532965
O7    O     O_R   0.560730 0.008380 0.437700 -0.538505
O8    O     O_R   0.439270 0.508380 0.562300 -0.538493
C3    C     C_R   0.428445 0.345056 0.387617 0.675572
C4    C     C_R   0.571559 0.845029 0.612381 0.675553
O9    O     O_3   0.538840 0.339860 0.508120 -0.372858
O10   O     O_3   0.461160 0.839860 0.491880 -0.372847
V1    V     V_3+5 0.492800 0.064220 0.498490 1.416025
V2    V     V_3+5 0.507200 0.564220 0.501510 1.416064
C5    C     C_R   0.870743 0.990224 0.690224 -0.158309
C6    C     C_R   0.129192 0.489143 0.309824 -0.158280
H1    H     H_    0.958619 0.018807 0.753726 0.157642
H2    H     H_    0.041314 0.517731 0.246323 0.157800
H3    H     H_    0.788649 0.991400 0.574224 0.130900
H4    H     H_    0.211255 0.489788 0.425852 0.130923
H5    H     H_    0.890364 0.023618 0.640579 0.126340
H6    H     H_    0.109539 0.522024 0.359495 0.126357
C7    C     C_R   0.886426 0.943072 0.819596 -0.044625
C8    C     C_R   0.113569 0.442939 0.180403 -0.044640
C9    C     C_R   0.586389 0.810227 0.744492 -0.160130
C10   C     C_R   0.413665 0.311035 0.255476 -0.160167
C11   C     C_R   0.622685 0.805061 0.810631 -0.120899
C12   C     C_R   0.377388 0.306178 0.189322 -0.120877
C13   C     C_R   0.686360 0.838111 0.814883 -0.157206
C14   C     C_R   0.313693 0.338920 0.185080 -0.157201
C15   C     C_R   0.715775 0.878267 0.752329 0.078685
C16   C     C_R   0.284238 0.378441 0.247662 0.078673
C17   C     C_R   0.677897 0.885682 0.684369 0.068119
C18   C     C_R   0.322094 0.385500 0.315641 0.068110
C19   C     C_R   0.781390 0.911190 0.754986 0.077825
C20   C     C_R   0.218608 0.411086 0.245014 0.077848
C21   C     C_R   0.807042 0.953371 0.689673 0.132597
C22   C     C_R   0.192914 0.452611 0.310360 0.132579
C23   C     C_R   0.769089 0.959735 0.624084 -0.193490
C24   C     C_R   0.230846 0.458628 0.375968 -0.193486
C25   C     C_R   0.705705 0.925917 0.621322 -0.192916
C26   C     C_R   0.294248 0.425101 0.378718 -0.192859
C27   C     C_R   0.822689 0.904930 0.819908 -0.224815
C28   C     C_R   0.177329 0.405154 0.180073 -0.224780
C29   C     C_R   0.909839 0.986770 0.754597 -0.127821
C30   C     C_R   0.090113 0.485986 0.245435 -0.127900
C31   C     C_R   0.612913 0.850698 0.681015 -0.078610
C32   C     C_R   0.387098 0.350844 0.318982 -0.078549
H7    H     H_    0.806871 0.873797 0.871557 0.091354
H8    H     H_    0.193178 0.374501 0.128400 0.091313
H9    H     H_    0.678521 0.932257 0.569122 0.111552
H10   H     H_    0.321414 0.431162 0.430933 0.111459
C33   C     C_R   0.646538 0.710559 0.324836 -0.217751
C34   C     C_R   0.353441 0.210514 0.675141 -0.217766
C35   C     C_R   0.635262 0.856305 0.372171 -0.078320
C36   C     C_R   0.364735 0.356308 0.627827 -0.078352
C37   C     C_R   0.672054 0.017448 0.372773 -0.220771
C38   C     C_R   0.327960 0.517504 0.627244 -0.220773
C39   C     C_R   0.719022 0.034557 0.326737 0.093307
C40   C     C_R   0.280990 0.534613 0.673277 0.093288
C41   C     C_R   0.729278 0.890194 0.278335 0.073259
C42   C     C_R   0.270719 0.390201 0.721661 0.073271
C43   C     C_R   0.692807 0.727412 0.277417 0.093278
C44   C     C_R   0.307173 0.227368 0.722562 0.093280
C45   C     C_R   0.755705 0.194523 0.328149 -0.214372
C46   C     C_R   0.244320 0.694624 0.671878 -0.214394
C47   C     C_R   0.802165 0.212342 0.281974 -0.134755
C48   C     C_R   0.197858 0.712440 0.718050 -0.134780
C49   C     C_R   0.813048 0.070887 0.232354 0.042267
C50   C     C_R   0.186962 0.570939 0.767656 0.042251
C51   C     C_R   0.775898 0.908843 0.230700 0.008308
C52   C     C_R   0.224098 0.408849 0.769296 0.008313
C53   C     C_R   0.785288 0.764680 0.181864 0.100786
C54   C     C_R   0.214693 0.264635 0.818115 0.100789
C55   C     C_R   0.748631 0.603684 0.181220 -0.162332
C56   C     C_R   0.251334 0.103589 0.818743 -0.162354
C57   C     C_R   0.702914 0.585151 0.228575 -0.201255
C58   C     C_R   0.297051 0.085058 0.771388 -0.201299
C59   C     C_R   0.860129 0.086956 0.184989 0.205302
C60   C     C_R   0.139880 0.587009 0.815020 0.205286
C61   C     C_R   0.868473 0.942875 0.134437 -0.128668
C62   C     C_R   0.131524 0.442880 0.865559 -0.128700
C63   C     C_R   0.830919 0.783170 0.134233 -0.231031
C64   C     C_R   0.169063 0.283124 0.865746 -0.231015
H11   H     H_    0.618361 0.586015 0.323626 0.126106
H12   H     H_    0.381603 0.085926 0.676335 0.126125
H13   H     H_    0.664389 0.129894 0.409526 0.132229
H14   H     H_    0.335640 0.629993 0.590508 0.132276
H15   H     H_    0.748341 0.307003 0.364969 0.136560
H16   H     H_    0.251697 0.807142 0.635071 0.136577
H17   H     H_    0.828675 0.339579 0.285425 0.187260
H18   H     H_    0.171358 0.839710 0.714608 0.187275
H19   H     H_    0.837028 0.672015 0.096347 0.156974
H20   H     H_    0.162941 0.171925 0.903617 0.157033
H21   H     H_    0.755472 0.491367 0.144150 0.138473
H22   H     H_    0.244479 0.991229 0.855797 0.138511
H23   H     H_    0.675383 0.459357 0.226905 0.133919
H24   H     H_    0.324569 0.959225 0.773045 0.133948
O11   O     O_R   0.060820 0.290050 0.937800 -0.538983
O12   O     O_R   0.939180 0.790050 0.062200 -0.538984
O13   O     O_R   0.057690 0.616620 0.086540 -0.540721
O14   O     O_R   0.942310 0.116620 0.913460 -0.540752
C65   C     C_R   0.071588 0.448811 0.112517 0.714740
C66   C     C_R   0.928411 0.948836 0.887482 0.714738
O15   O     O_R   0.068010 0.619890 0.939770 -0.513386
O16   O     O_R   0.931990 0.119890 0.060230 -0.513385
O17   O     O_R   0.949640 0.787940 0.914460 -0.523827
O18   O     O_R   0.050360 0.287940 0.085540 -0.523826
C67   C     C_R   0.083192 0.451952 0.917360 0.737271
C68   C     C_R   0.916807 0.951950 0.082639 0.737299
O19   O     O_3   0.961210 0.453080 0.991940 -0.371858
O20   O     O_3   0.038790 0.953080 0.008060 -0.371844
V3    V     V_3+5 0.007200 0.728820 0.001500 1.500878
V4    V     V_3+5 0.992800 0.228820 0.998500 1.500865
Br1   Br    Br    0.915622 0.298703 0.194275 -0.610729
Br2   Br    Br    0.084400 0.798820 0.805745 -0.610628
H25   H     H_    0.537106 0.781905 0.742745 0.104599
H26   H     H_    0.462968 0.283006 0.257212 0.104553
H27   H     H_    0.711212 0.831155 0.868039 0.107308
H28   H     H_    0.288859 0.332250 0.131909 0.107312
H29   H     H_    0.601268 0.774019 0.859249 0.118858
H30   H     H_    0.398837 0.275641 0.140681 0.118854

loop_
_geom_bond_atom_site_label_1
_geom_bond_atom_site_label_2
_ccdc_geom_bond_type
C12   C14   A    
C65   O18   A    
C41   C43   A    
C43   C57   A    
C7    C27   A    
C9    C11   A    
C23   C25   A    
O12   C68   A    
O1    C3    A    
O2    C4    A    
C2    O7    A    
O14   C66   A    
O20   V3    S    
O3    V1    S    
C21   C23   A    
O5    C3    A    
C5    H5    S    
C52   C54   A    
C1    C36   S    
C6    H6    S    
C57   H23   S    
C48   H18   S    
C54   C56   A    
C47   H17   S    
C5    C21   A    
C15   C17   A    
H1    C29   S    
C9    H25   S    
C35   C37   A    
C27   H7    S    
C36   C38   A    
C59   Br1   S    
C38   C40   A    
C37   H13   S    
C47   C49   A    
C6    C22   A    
C40   C42   A    
O12   V3    S    
C33   C43   A    
O14   V4    S    
C10   C32   A    
C25   H9    S    
C56   H22   S    
C13   C15   A    
C55   H21   S    
C17   C25   A    
C7    C29   A    
C16   C18   A    
C8    C30   A    
O19   V4    S    
O5    V1    S    
O6    V2    S    
C58   H24   S    
C51   C53   A    
C2    C35   S    
C24   C26   A    
C8    C65   S    
C45   H15   S    
C59   C61   A    
C53   C63   A    
C7    C66   S    
C4    C31   S    
C55   C57   A    
C37   C39   A    
C62   C67   S    
C14   H28   S    
C13   H27   S    
C50   C52   A    
C10   H26   S    
C49   C51   A    
O17   V3    S    
C41   C51   A    
C15   C19   A    
O16   C68   A    
C45   C47   A    
C42   C44   A    
O4    V2    S    
O13   V3    S    
C61   C68   S    
C17   C31   A    
C39   C45   A    
O6    C4    A    
C39   C41   A    
O13   C65   A    
O1    V2    S    
O2    V1    S    
C53   C55   A    
O15   V3    S    
H2    C30   S    
C64   H20   S    
H3    C23   S    
O4    C2    A    
C61   C63   A    
C12   H30   S    
C60   C62   A    
C33   C35   A    
C18   C26   A    
C60   Br2   S    
C19   C27   A    
O18   V4    S    
C18   C32   A    
O11   V4    S    
C16   C20   A    
O15   C67   A    
C5    C29   A    
C62   C64   A    
O3    C1    A    
C6    C30   A    
O9    V2    S    
C38   H14   S    
O11   C67   A    
C44   C58   A    
C40   C46   A    
O16   V4    S    
C10   C12   A    
O7    V1    S    
C1    O8    A    
C19   C21   A    
C3    C32   S    
O8    V2    S    
C28   H8    S    
C20   C22   A    
C63   H19   S    
H4    C24   S    
C34   C44   A    
C11   H29   S    
C22   C24   A    
C46   H16   S    
C34   C36   A    
C56   C58   A    
C33   H11   S    
C20   C28   A    
C34   H12   S    
C8    C28   A    
C26   H10   S    
C11   C13   A    
C54   C64   A    
C46   C48   A    
C42   C52   A    
O10   V1    S    
C48   C50   A    
C50   C60   A    
C9    C31   A    
C14   C16   A    
C49   C59   A    
C66   O17   A    
