data_mof_unit_57395.cif
_audit_creation_date              2012-12-11T14:00:04-0500
_audit_creation_method            fapswitch 2.2
_symmetry_space_group_name_H-M    P1
_symmetry_Int_Tables_number       1
_space_group_crystal_system       triclinic
_cell_length_a                    11.205597
_cell_length_b                    11.177538
_cell_length_c                    18.698966
_cell_angle_alpha                 90.193148
_cell_angle_beta                  89.723698
_cell_angle_gamma                 119.755746
_cell_volume                      2033.23563901

loop_
_atom_site_label
_atom_site_type_symbol
_atom_type_description
_atom_site_fract_x
_atom_site_fract_y
_atom_site_fract_z
_atom_type_partial_charge
C1    C     C_R   0.541755 0.478239 0.853055 0.566632
C2    C     C_R   0.481821 0.540943 0.350209 0.547709
C3    C     C_R   0.058815 0.518319 0.350312 0.545710
C4    C     C_R   0.418692 0.869224 0.359876 0.564782
C5    C     C_2   0.908811 0.447009 0.565457 -0.108599
C6    C     C_2   0.553731 0.457479 0.565153 -0.099154
C7    C     C_2   0.486926 0.969343 0.587653 -0.104751
C8    C     C_2   0.446493 0.906059 0.434625 -0.095800
C9    C     C_2   0.514196 0.484153 0.412210 -0.100561
C10   C     C_2   0.968868 0.486833 0.412192 -0.107753
C11   C     C_2   0.916645 0.364411 0.445007 -0.140442
C12   C     C_R   0.521919 0.063688 0.853027 0.558601
C13   C     C_2   0.634701 0.557976 0.445992 -0.148798
C14   C     C_2   0.342546 0.866081 0.481204 -0.162654
C15   C     C_2   0.364916 0.917980 0.554850 -0.144479
C16   C     C_2   0.657387 0.531543 0.519939 -0.165587
C17   C     C_2   0.864917 0.342821 0.518674 -0.161471
C18   C     C_2   0.001111 0.505930 0.922472 -0.133180
C19   C     C_2   0.493664 0.496116 0.922522 -0.133404
C20   C     C_2   0.503839 0.997498 0.922205 -0.132773
C21   C     C_2   0.505931 0.001342 0.077451 -0.133839
C22   C     C_2   0.496241 0.493364 0.077603 -0.133413
C23   C     C_R   0.936056 0.458176 0.853116 0.568240
C24   C     C_2   0.997978 0.504094 0.077800 -0.133394
C25   C     C_2   0.013416 0.613303 0.038785 -0.071602
C26   C     C_2   0.387234 0.399839 0.038770 -0.071527
C27   C     C_2   0.598442 0.984027 0.037989 -0.072772
C28   C     C_2   0.612687 0.012464 0.961027 -0.072001
C29   C     C_2   0.400438 0.386722 0.961496 -0.073085
C30   C     C_2   0.983878 0.598537 0.961999 -0.073245
C31   C     C_1   0.056344 0.748572 0.069665 0.260517
C32   C     C_1   0.253744 0.305946 0.070447 0.261136
C33   C     C_1   0.690361 0.940699 0.068605 0.260410
C34   C     C_R   0.478204 0.541649 0.146975 0.555061
C35   C     C_1   0.747067 0.053782 0.929721 0.260910
C36   C     C_1   0.306842 0.252923 0.929977 0.261070
C37   C     C_1   0.939454 0.689955 0.931666 0.259846
C38   C     C_R   0.063793 0.521979 0.146952 0.556996
C39   C     C_R   0.458134 0.936130 0.146890 0.565055
C40   C     C_R   0.581094 0.450406 0.640156 0.543122
C41   C     C_R   0.518501 0.059117 0.649613 0.538242
C42   C     C_R   0.870075 0.419013 0.639981 0.540941
Cr1   Cr    Cr6+3 0.464030 0.233680 0.750360 1.056442
Cr2   Cr    Cr6+3 0.766320 0.230350 0.750360 1.054347
Cr3   Cr    Cr6+3 0.769650 0.535970 0.750360 1.053800
Cr4   Cr    Cr6+3 0.233680 0.464030 0.249640 1.056061
Cr5   Cr    Cr6+3 0.230350 0.766320 0.249640 1.052036
Cr6   Cr    Cr6+3 0.535970 0.769650 0.249640 1.054717
H1    H     H_    0.922491 0.279643 0.419927 0.158936
H2    H     H_    0.402096 0.953176 0.946008 0.110342
H3    H     H_    0.551038 0.597832 0.946391 0.110336
H4    H     H_    0.046955 0.449364 0.945747 0.110089
H5    H     H_    0.955626 0.569457 0.434270 0.091245
H6    H     H_    0.433408 0.387242 0.433343 0.106921
H7    H     H_    0.553036 0.969047 0.450504 0.105208
H8    H     H_    0.569080 0.955516 0.565703 0.102266
H9    H     H_    0.447448 0.402707 0.548001 0.116578
H10   H     H_    0.975774 0.553400 0.549792 0.103434
H11   H     H_    0.717110 0.650366 0.421554 0.155904
H12   H     H_    0.237002 0.806062 0.462766 0.133616
H13   H     H_    0.280859 0.924825 0.579951 0.159831
H14   H     H_    0.762062 0.587697 0.539803 0.133788
H15   H     H_    0.801292 0.237243 0.536900 0.133927
H16   H     H_    0.953085 0.401975 0.054200 0.109872
H17   H     H_    0.597755 0.550886 0.053653 0.110106
H18   H     H_    0.449273 0.046924 0.054057 0.109571
N1    N     N_1   0.089404 0.856208 0.093569 -0.237055
N2    N     N_1   0.147587 0.230253 0.095006 -0.236840
N3    N     N_1   0.764694 0.907413 0.092257 -0.237517
N4    N     N_1   0.853966 0.085595 0.905462 -0.234649
N5    N     N_1   0.231344 0.146514 0.905560 -0.235111
N6    N     N_1   0.905307 0.763929 0.908246 -0.235811
O1    O     O_R   0.434100 0.092480 0.829780 -0.488200
O2    O     O_R   0.362730 0.477510 0.175360 -0.488558
O3    O     O_R   0.114780 0.637270 0.175360 -0.490081
O4    O     O_R   0.522490 0.885220 0.175360 -0.484974
O5    O     O_R   0.432250 0.092620 0.670380 -0.517040
O6    O     O_R   0.907380 0.339630 0.670380 -0.486743
O7    O     O_R   0.660370 0.567750 0.670380 -0.500996
O8    O     O_R   0.092620 0.432250 0.329620 -0.508769
O9    O     O_R   0.339630 0.907380 0.329620 -0.500235
O10   O     O_R   0.567750 0.660370 0.329620 -0.521984
O11   O     O_R   0.475790 0.362860 0.676880 -0.491007
O12   O     O_R   0.907520 0.341620 0.829780 -0.483806
O13   O     O_R   0.637140 0.112930 0.676880 -0.521212
O14   O     O_R   0.887070 0.524210 0.676880 -0.512350
O15   O     O_R   0.362860 0.475790 0.323120 -0.499296
O16   O     O_R   0.112930 0.637140 0.323120 -0.522448
O17   O     O_R   0.524210 0.887070 0.323120 -0.498167
O18   O     O_3   0.666667 0.333333 0.749450 -0.307171
O19   O     O_3   0.333333 0.666667 0.250550 -0.284734
O20   O     O_R   0.658380 0.565900 0.829780 -0.484783
O21   O     O_R   0.092480 0.434100 0.170220 -0.489347
O22   O     O_R   0.341620 0.907520 0.170220 -0.485956
O23   O     O_R   0.565900 0.658380 0.170220 -0.490028
O24   O     O_R   0.477510 0.362730 0.824640 -0.482784
O25   O     O_R   0.637270 0.114780 0.824640 -0.487827
O26   O     O_R   0.885220 0.522490 0.824640 -0.484588

loop_
_geom_bond_atom_site_label_1
_geom_bond_atom_site_label_2
_ccdc_geom_bond_type
C25   C31   S    
C5    C42   S    
C26   C32   S    
Cr6   O23   S    
C21   H18   S    
Cr1   O11   S    
Cr6   O4    S    
C6    H9    S    
C4    C8    S    
C18   H4    S    
C22   H17   S    
C27   C33   S    
C31   N1    T    
C29   C36   S    
C5    H10   S    
Cr4   O15   S    
Cr3   O26   S    
C41   O5    A    
C5    C17   D    
C10   H5    S    
Cr3   O20   S    
C9    C13   D    
C20   H2    S    
Cr1   O1    S    
C4    O9    A    
C28   C35   S    
Cr6   O19   S    
C24   C38   S    
C42   O14   A    
C36   N5    T    
C33   N3    T    
C32   N2    T    
C7    C15   D    
C21   C27   D    
C24   H16   S    
C12   O1    A    
C40   O11   A    
C37   N6    T    
C16   H14   S    
C7    H8    S    
C3    O8    A    
C8    H7    S    
C38   O3    A    
C22   C34   S    
C1    C19   S    
Cr1   O18   S    
C23   O12   A    
C18   C23   S    
C34   O23   A    
C35   N4    T    
Cr5   O9    S    
Cr4   O19   S    
C20   C28   D    
C30   C37   S    
C39   O22   A    
C11   H1    S    
Cr2   O25   S    
C21   C39   S    
C12   C20   S    
Cr1   O24   S    
C15   H13   S    
C40   O7    A    
C2    O15   A    
Cr3   O7    S    
C39   O4    A    
C24   C25   D    
Cr3   O18   S    
C12   O25   A    
C34   O2    A    
C18   C30   D    
C42   O6    A    
C1    O20   A    
Cr6   O17   S    
C6    C40   S    
C2    O10   A    
Cr2   O13   S    
C19   C29   D    
Cr4   O2    S    
Cr2   O18   S    
C4    O17   A    
C25   C30   S    
C11   C17   S    
C8    C14   D    
C3    O16   A    
Cr5   O19   S    
Cr2   O12   S    
C13   H11   S    
Cr1   O5    S    
C14   H12   S    
Cr5   O16   S    
Cr2   O6    S    
Cr3   O14   S    
Cr5   O3    S    
C3    C10   S    
C17   H15   S    
Cr4   O8    S    
Cr4   O21   S    
C1    O24   A    
C38   O21   A    
Cr5   O22   S    
Cr6   O10   S    
C7    C41   S    
C10   C11   D    
C6    C16   D    
C19   H3    S    
C23   O26   A    
C26   C29   S    
C22   C26   D    
C13   C16   S    
C27   C28   S    
C14   C15   S    
C9    H6    S    
C2    C9    S    
C41   O13   A    
