data_mof_unit_26598.cif
_audit_creation_date              2013-03-05T16:05:04-0500
_audit_creation_method            fapswitch 2.2
_symmetry_space_group_name_H-M    P1
_symmetry_Int_Tables_number       1
_space_group_crystal_system       triclinic
_cell_length_a                    6.920943
_cell_length_b                    23.316635
_cell_length_c                    25.828067
_cell_angle_alpha                 104.577499
_cell_angle_beta                  90.607786
_cell_angle_gamma                 90.624462
_cell_volume                      4033.15740666

loop_
_atom_site_label
_atom_site_type_symbol
_atom_site_description
_atom_site_fract_x
_atom_site_fract_y
_atom_site_fract_z
_atom_type_partial_charge
O1    O     O_R   0.505750 0.453350 0.547660 -0.607565
O2    O     O_R   0.170990 0.432220 0.437590 -0.533582
O3    O     O_R   0.005600 0.546650 0.452340 -0.587986
C1    C     C_R   0.339014 0.414480 0.418254 1.043789
O4    O     O_R   0.175720 0.446240 0.546340 -0.579286
O5    O     O_R   0.010370 0.560770 0.561860 -0.585513
C2    C     C_R   0.344860 0.433461 0.562066 1.020164
O6    O     O_R   0.500990 0.439230 0.438140 -0.615912
O7    O     O_3   0.340820 0.537560 0.504970 -0.235379
V1    V     V_3+5 0.064050 0.493030 0.499080 1.313681
O8    O     O_R   0.680940 0.567780 0.562410 -0.576208
C3    C     C_R   0.851751 0.585198 0.581722 1.025580
O9    O     O_R   0.676210 0.553760 0.453660 -0.553802
C4    C     C_R   0.844669 0.565270 0.436758 1.033359
V2    V     V_3+5 0.564640 0.506970 0.500920 1.288761
O10   O     O_3   0.837740 0.462440 0.495030 -0.255859
C5    C     C_R   0.788000 0.895087 0.131237 -0.110454
H1    H     H_    0.668026 0.923427 0.127895 0.200450
C6    C     C_R   0.773888 0.859552 0.167201 -0.169226
H2    H     H_    0.644519 0.861250 0.190726 0.171327
C7    C     C_R   0.925814 0.822717 0.173598 0.031739
C8    C     C_R   0.095095 0.821666 0.143569 0.427252
C9    C     C_R   0.106781 0.856061 0.105079 0.357604
C10   C     C_R   0.954034 0.894469 0.100190 -0.258319
C11   C     C_R   0.895502 0.722670 0.194583 0.584174
C12   C     C_R   0.885952 0.688357 0.231858 -0.214335
H3    H     H_    0.877184 0.640560 0.217337 0.169030
C13   C     C_R   0.881967 0.714529 0.286994 0.023468
C14   C     C_R   0.887931 0.776515 0.304768 -0.259856
H4    H     H_    0.888081 0.797099 0.347330 0.189572
C15   C     C_R   0.904086 0.812378 0.268521 0.321412
C16   C     C_R   0.908188 0.785559 0.212669 -0.169395
C17   C     C_R   0.748847 0.690268 0.369516 -0.314237
H5    H     H_    0.657974 0.728829 0.375182 0.152539
C18   C     C_R   0.737858 0.653890 0.405668 0.550496
C19   C     C_R   0.853878 0.602919 0.397951 -0.398981
C20   C     C_R   0.979285 0.589101 0.353282 0.469852
C21   C     C_R   0.989540 0.626564 0.318687 -0.175864
H6    H     H_    0.087685 0.615633 0.285334 0.163307
C22   C     C_R   0.873810 0.676839 0.325830 0.060614
C23   C     C_R   0.728796 0.641035 0.669900 -0.156584
C24   C     C_R   0.867408 0.635644 0.629874 -0.297942
C25   C     C_R   0.024128 0.676609 0.637386 0.283270
C26   C     C_R   0.040852 0.722015 0.685488 0.001178
C27   C     C_R   0.900786 0.726351 0.725891 0.077177
C28   C     C_R   0.745232 0.685569 0.717659 0.088717
C29   C     C_R   0.192626 0.763914 0.693736 -0.175647
C30   C     C_R   0.205766 0.809035 0.740573 -0.135163
C31   C     C_R   0.067830 0.814037 0.780976 0.114417
C32   C     C_R   0.914982 0.771898 0.774217 -0.038275
C33   C     C_R   0.776233 0.775336 0.815126 -0.180902
C34   C     C_R   0.626497 0.731135 0.806730 0.380019
C35   C     C_R   0.609995 0.688574 0.757828 -0.272417
C36   C     C_R   0.078644 0.861729 0.826794 0.489423
C37   C     C_R   0.943169 0.865748 0.868282 -0.450210
C38   C     C_R   0.792106 0.822733 0.862349 0.313231
H7    H     H_    0.610127 0.609200 0.664434 0.159072
H8    H     H_    0.301548 0.762879 0.663816 0.188158
H9    H     H_    0.325125 0.840371 0.744733 0.180543
H10   H     H_    0.493532 0.655975 0.752054 0.177481
C39   C     C_R   0.314822 0.178321 0.135788 0.492144
C40   C     C_R   0.462495 0.135771 0.130925 -0.513305
C41   C     C_R   0.595324 0.139970 0.173827 0.370027
C42   C     C_R   0.577611 0.185238 0.222487 -0.147619
C43   C     C_R   0.421907 0.225293 0.227908 -0.079649
C44   C     C_R   0.290924 0.221202 0.184533 0.114991
C45   C     C_R   0.709884 0.190937 0.265939 0.421166
C46   C     C_R   0.680988 0.233991 0.314744 0.197578
C47   C     C_R   0.526988 0.274879 0.320103 -0.155500
C48   C     C_R   0.396822 0.270061 0.276416 -0.035745
C49   C     C_R   0.239163 0.309563 0.281163 0.042547
C50   C     C_R   0.113449 0.304702 0.237120 -0.231713
C51   C     C_R   0.138271 0.261256 0.189981 -0.086233
C52   C     C_R   0.498634 0.319921 0.368151 0.488384
C53   C     C_R   0.349412 0.361946 0.371170 -0.410393
C54   C     C_R   0.213954 0.354589 0.328987 0.507562
H11   H     H_    0.995949 0.335066 0.237888 0.148799
H12   H     H_    0.036382 0.259547 0.157484 0.176634
C55   C     C_R   0.309678 0.147802 0.906147 -0.168460
H13   H     H_    0.207290 0.153324 0.938419 0.133160
C56   C     C_R   0.298397 0.184840 0.871195 -0.123672
H14   H     H_    0.189221 0.218625 0.878665 0.124877
C57   C     C_R   0.427271 0.178795 0.828180 0.158333
C58   C     C_R   0.571360 0.135295 0.822567 -0.139065
H15   H     H_    0.671249 0.127670 0.789717 0.115807
C59   C     C_R   0.586475 0.099662 0.858749 -0.137638
H16   H     H_    0.698363 0.066617 0.853240 0.121238
C60   C     C_R   0.454278 0.105105 0.900436 -0.114974
C61   C     C_R   0.572707 0.230011 0.761484 -0.130886
H17   H     H_    0.713824 0.213146 0.767518 0.139891
C62   C     C_R   0.556124 0.265318 0.725211 -0.072258
H18   H     H_    0.682301 0.272692 0.703173 0.193608
C63   C     C_R   0.379897 0.291476 0.717491 0.046818
C64   C     C_R   0.216662 0.280641 0.746751 0.626998
C65   C     C_R   0.232861 0.242503 0.780752 -0.233039
H19   H     H_    0.103506 0.233053 0.800406 0.139888
C66   C     C_R   0.410903 0.217406 0.789612 0.000259
C67   C     C_R   0.242468 0.310794 0.633132 0.430346
C68   C     C_R   0.230872 0.345185 0.594871 0.200283
C69   C     C_R   0.355208 0.394836 0.599778 -0.328396
C70   C     C_R   0.486824 0.409874 0.642781 -0.241201
H20   H     H_    0.579689 0.448548 0.646950 0.178538
C71   C     C_R   0.492178 0.378496 0.682530 0.339251
C72   C     C_R   0.369339 0.328336 0.677775 -0.211106
O11   O     O_R   0.308350 0.060850 0.061810 -0.570337
O12   O     O_R   0.633860 0.053770 0.953650 -0.609796
O13   O     O_R   0.798960 0.939210 0.938150 -0.576712
C73   C     C_R   0.464800 0.065914 0.937380 0.901864
O14   O     O_R   0.638360 0.067800 0.062400 -0.567918
O15   O     O_R   0.803500 0.953330 0.047670 -0.593169
C74   C     C_R   0.470696 0.084949 0.082256 1.010876
O16   O     O_R   0.303810 0.046730 0.952290 -0.617498
O17   O     O_3   0.468430 0.962490 0.995010 -0.216787
V3    V     V_3+5 0.745300 0.006960 0.000930 1.268912
O18   O     O_R   0.132880 0.946160 0.046390 -0.546384
C75   C     C_R   0.964142 0.933542 0.062464 1.100371
O19   O     O_R   0.128380 0.932130 0.937650 -0.552463
C76   C     C_R   0.957803 0.915392 0.917630 1.005886
V4    V     V_3+5 0.244670 0.992930 0.999140 1.298823
O20   O     O_3   0.971670 0.037510 0.005000 -0.282846
O21   O     O_3   0.617278 0.667916 0.449234 -0.698344
H21   H     H_    0.546781 0.704618 0.448885 0.333369
O22   O     O_3   0.091231 0.538992 0.340928 -0.719722
H22   H     H_    0.032905 0.508518 0.356672 0.341857
N1    N     N_R   0.161583 0.673325 0.595511 0.234946
O23   O     O_R   0.340998 0.660945 0.602888 -0.401265
O24   O     O_R   0.104461 0.678155 0.548654 -0.378989
O25   O     O_3   0.219526 0.904846 0.828941 -0.737435
H23   H     H_    0.167012 0.943866 0.847439 0.302295
N2    N     N_R   0.653591 0.828561 0.904185 0.262240
O26   O     O_R   0.482191 0.848403 0.897983 -0.322615
O27   O     O_R   0.707509 0.822799 0.951022 -0.349548
N3    N     N_R   0.495325 0.725822 0.847828 0.263027
O28   O     O_R   0.559667 0.707731 0.888427 -0.289381
O29   O     O_R   0.310135 0.724027 0.838213 -0.364092
O30   O     O_3   0.192021 0.179467 0.093434 -0.732487
H24   H     H_    0.261232 0.164352 0.059456 0.301437
N4    N     N_R   0.740935 0.095723 0.168575 0.278439
O31   O     O_R   0.700691 0.045410 0.179391 -0.362213
O32   O     O_R   0.909301 0.104151 0.149580 -0.337417
O33   O     O_3   0.866664 0.153607 0.260242 -0.652848
H25   H     H_    0.967780 0.170179 0.287396 0.356512
N5    N     N_R   0.804804 0.233411 0.359451 0.279756
O34   O     O_R   0.782196 0.192285 0.384889 -0.268325
O35   O     O_R   0.956292 0.268089 0.369585 -0.356036
O36   O     O_3   0.616543 0.322030 0.412117 -0.639371
H26   H     H_    0.540546 0.336032 0.445091 0.335715
O37   O     O_3   0.061017 0.393075 0.335020 -0.748449
H27   H     H_    0.942357 0.369553 0.321878 0.324331
O38   O     O_3   0.246342 0.787581 0.153543 -0.728725
H28   H     H_    0.368920 0.803864 0.143517 0.320343
O39   O     O_3   0.039611 0.306551 0.744078 -0.726495
H29   H     H_    0.054345 0.339785 0.726979 0.355553
O40   O     O_3   0.135697 0.259037 0.627679 -0.714760
H30   H     H_    0.082083 0.245760 0.590907 0.370547
N6    N     N_R   0.094556 0.329383 0.551134 0.243097
O41   O     O_R   0.153118 0.319633 0.502010 -0.353931
O42   O     O_R   0.910855 0.326062 0.560415 -0.355136
O43   O     O_3   0.261126 0.851485 0.070869 -0.715211
H31   H     H_    0.313262 0.810932 0.064095 0.346458
N7    N     N_R   0.619278 0.399293 0.728069 0.249459
O44   O     O_R   0.564564 0.397584 0.775713 -0.347542
O45   O     O_R   0.779474 0.427106 0.723193 -0.381572
O46   O     O_3   0.890650 0.692547 0.141130 -0.694529
H32   H     H_    0.869352 0.720532 0.118620 0.332149
N8    N     N_R   0.920835 0.875647 0.289323 0.257128
O47   O     O_R   0.838037 0.901347 0.334025 -0.328218
O48   O     O_R   0.037163 0.906819 0.267599 -0.327056

loop_
_geom_bond_atom_site_label_1
_geom_bond_atom_site_label_2
_geom_bond_distance
_ccdc_geom_bond_type
C21   C22   1.401599 A    
C37   C38   1.420879 A    
C8    O38   1.381735 S    
C70   H20   1.083893 S    
C23   C24   1.401107 A    
N2    O27   1.301539 A    
C65   H19   1.081375 S    
C1    O6    1.295381 A    
O25   H23   0.990044 S    
C25   N1    1.436088 S    
C67   O40   1.383845 S    
N7    O44   1.301336 A    
O22   H22   0.987850 S    
C27   C28   1.406944 A    
C34   C35   1.398802 A    
C12   H3    1.083523 S    
C50   H11   1.081095 S    
O12   V3    1.986609 S    
C57   C58   1.412566 A    
C7    C8    1.408942 A    
O46   H32   0.988313 S    
C6    C7    1.399260 A    
C58   C59   1.401864 A    
O17   V3    2.154302 S    
C47   C48   1.417662 A    
O19   V4    1.998611 S    
O43   H31   0.990148 S    
O5    C3    1.292759 A    
C21   H6    1.083549 S    
C60   C73   1.479771 S    
C59   C60   1.402533 A    
C13   C22   1.491786 S    
C11   O46   1.382351 S    
C64   O39   1.380789 S    
V2    O10   2.154779 S    
C67   C68   1.422894 A    
C46   N5    1.433492 S    
C33   C38   1.427237 A    
C1    C53   1.496130 S    
C3    C24   1.483236 S    
O14   C74   1.299581 A    
N7    O45   1.301565 A    
O17   V4    1.703744 S    
O8    V2    1.998756 S    
C39   C44   1.409427 A    
C40   C74   1.496909 S    
C6    H2    1.082873 S    
C46   C47   1.422302 A    
C9    O43   1.381385 S    
C51   H12   1.083208 S    
C48   C49   1.421931 A    
O1    V2    1.986363 S    
C61   C62   1.398798 A    
C14   H4    1.083141 S    
O7    V1    2.154372 S    
O15   V3    1.985904 S    
O13   C76   1.294363 A    
C26   C29   1.404028 A    
C11   C16   1.423947 A    
O11   C74   1.296670 A    
C70   C71   1.403049 A    
C31   C36   1.405860 A    
C20   O22   1.380031 S    
O9    C4    1.298021 A    
N8    O48   1.301297 A    
C34   N3    1.431945 S    
N8    O47   1.301449 A    
C39   C40   1.416583 A    
C63   C72   1.496584 S    
C55   C60   1.401918 A    
C56   C57   1.412306 A    
C35   H10   1.084757 S    
C32   C33   1.423224 A    
C8    C9    1.428136 A    
C7    C16   1.491406 S    
C71   N7    1.440131 S    
C5    C10   1.406330 A    
C52   C53   1.420611 A    
C45   C46   1.417560 A    
C17   C22   1.402828 A    
C42   C45   1.419763 A    
C18   O21   1.382067 S    
O37   H27   0.990450 S    
C2    C69   1.485427 S    
C62   H18   1.082903 S    
O4    C2    1.297115 A    
C59   H16   1.083390 S    
O30   H24   0.990320 S    
C11   C12   1.399746 A    
C41   C42   1.430720 A    
C44   C51   1.402392 A    
C36   O25   1.383452 S    
C56   H14   1.080857 S    
C33   C34   1.429196 A    
C61   C66   1.409182 A    
C18   C19   1.414897 A    
N6    O41   1.301341 A    
C43   C48   1.428173 A    
O2    C1    1.300629 A    
C53   C54   1.405734 A    
O13   V3    1.999692 S    
C20   C21   1.399750 A    
C62   C63   1.404138 A    
C29   C30   1.390491 A    
C15   N8    1.440250 S    
C23   C28   1.400872 A    
C68   N6    1.436038 S    
C40   C41   1.415761 A    
C5    H1    1.082923 S    
O21   H21   0.991647 S    
C47   C52   1.426584 A    
C63   C64   1.421026 A    
C58   H15   1.081005 S    
V4    O20   2.154752 S    
N1    O24   1.301190 A    
O40   H30   0.988714 S    
O3    C4    1.296139 A    
N4    O32   1.301074 A    
O14   V3    1.998726 S    
C30   C31   1.405789 A    
C43   C44   1.417291 A    
O6    V2    1.999618 S    
O18   V4    1.987134 S    
O9    V2    1.987062 S    
C25   C26   1.417738 A    
N1    O23   1.300752 A    
C41   N4    1.432993 S    
C24   C25   1.416373 A    
O2    V1    1.998683 S    
O15   C75   1.298417 A    
C49   C54   1.419202 A    
C26   C27   1.417521 A    
C30   H9    1.083162 S    
C55   C56   1.399748 A    
O36   H26   0.990884 S    
N5    O35   1.300273 A    
C36   C37   1.417325 A    
C13   C14   1.402022 A    
O1    C2    1.295296 A    
C52   O36   1.381729 S    
C15   C16   1.421259 A    
C50   C51   1.387586 A    
O5    V1    1.999586 S    
O16   V4    1.992176 S    
O8    C3    1.298583 A    
C65   C66   1.410776 A    
C10   C75   1.493745 S    
C12   C13   1.401735 A    
C68   C69   1.413824 A    
C42   C43   1.418598 A    
N6    O42   1.301360 A    
N2    O26   1.300822 A    
O7    V2    1.705631 S    
C23   H7    1.084881 S    
C49   C50   1.405650 A    
C14   C15   1.407988 A    
O3    V1    1.986074 S    
V1    O10   1.705145 S    
O19   C76   1.299547 A    
C29   H8    1.081397 S    
C4    C19   1.490755 S    
C17   C18   1.412757 A    
O18   C75   1.298851 A    
N3    O28   1.300994 A    
O12   C73   1.297103 A    
C27   C32   1.422428 A    
C67   C72   1.414602 A    
C28   C35   1.393826 A    
C69   C70   1.400659 A    
C5    C6    1.395159 A    
C17   H5    1.083255 S    
C64   C65   1.402744 A    
V3    O20   1.705131 S    
N4    O31   1.300522 A    
C9    C10   1.417824 A    
C55   H13   1.083507 S    
C73   O16   1.294130 A    
O4    V1    1.986510 S    
O39   H29   0.988661 S    
C54   O37   1.379757 S    
C19   C20   1.424226 A    
C31   C32   1.414922 A    
C57   C66   1.505617 S    
C71   C72   1.417576 A    
N3    O29   1.301155 A    
O38   H28   0.988951 S    
O11   V4    2.000384 S    
C61   H17   1.081102 S    
O33   H25   0.989036 S    
C38   N2    1.433855 S    
N5    O34   1.300673 A    
C39   O30   1.383905 S    
C37   C76   1.492204 S    
C45   O33   1.384247 S    
