data_mof_unit_21088.cif
_audit_creation_date              2012-12-11T14:03:18-0500
_audit_creation_method            fapswitch 2.2
_symmetry_space_group_name_H-M    P1
_symmetry_Int_Tables_number       1
_space_group_crystal_system       triclinic
_cell_length_a                    6.965595
_cell_length_b                    11.746591
_cell_length_c                    18.518516
_cell_angle_alpha                 90.00012
_cell_angle_beta                  92.980137
_cell_angle_gamma                 90.000429
_cell_volume                      1513.17277503

loop_
_atom_site_label
_atom_site_type_symbol
_atom_type_description
_atom_site_fract_x
_atom_site_fract_y
_atom_site_fract_z
_atom_type_partial_charge
O1    O     O_R   0.330540 0.606360 0.598870 -0.537062
O2    O     O_R   0.669460 0.106360 0.401130 -0.537061
O3    O     O_R   0.026770 0.620470 0.750430 -0.544084
O4    O     O_R   0.973230 0.120470 0.249570 -0.544083
O5    O     O_R   0.856460 0.393640 0.750930 -0.545098
O6    O     O_R   0.143540 0.893640 0.249070 -0.545098
C1    C     C_R   0.198732 0.642185 0.776802 0.687895
C2    C     C_R   0.801269 0.142180 0.223195 0.687905
O7    O     O_R   0.000920 0.620350 0.599420 -0.547913
O8    O     O_R   0.999080 0.120350 0.400580 -0.547913
O9    O     O_R   0.830430 0.393520 0.598850 -0.537956
O10   O     O_R   0.169570 0.893520 0.401150 -0.537956
C3    C     C_R   0.166887 0.647761 0.574587 0.767711
C4    C     C_R   0.833113 0.147762 0.425413 0.767711
O11   O     O_R   0.356570 0.606480 0.750960 -0.548766
O12   O     O_R   0.643430 0.106480 0.249040 -0.548766
O13   O     O_3   0.176990 0.425580 0.674890 -0.376513
O14   O     O_3   0.823010 0.925580 0.325110 -0.376515
V1    V     V_3+5 0.902170 0.513810 0.674910 1.404040
V2    V     V_3+5 0.097830 0.013810 0.325090 1.404049
O15   O     O_R   0.500800 0.379530 0.599380 -0.548034
O16   O     O_R   0.499200 0.879530 0.400620 -0.548035
C5    C     C_R   0.666779 0.352128 0.574551 0.765196
C6    C     C_R   0.333221 0.852128 0.425449 0.765194
O17   O     O_R   0.526650 0.379650 0.750390 -0.546510
O18   O     O_R   0.473350 0.879650 0.249610 -0.546510
C7    C     C_R   0.698941 0.354744 0.774995 0.693824
C8    C     C_R   0.301058 0.854743 0.225006 0.693827
V3    V     V_3+5 0.402160 0.486190 0.674900 1.402723
V4    V     V_3+5 0.597840 0.986190 0.325100 1.402727
O19   O     O_3   0.677210 0.574420 0.674910 -0.377899
O20   O     O_3   0.322790 0.074420 0.325090 -0.377897
C9    C     C_R   0.813485 0.086810 0.873875 -0.222837
C10   C     C_R   0.186549 0.586808 0.126121 -0.222821
H1    H     H_    0.829756 0.142395 0.764459 0.111719
H2    H     H_    0.170328 0.642375 0.235543 0.111710
H3    H     H_    0.875552 0.006332 0.860339 0.143479
H4    H     H_    0.124486 0.506327 0.139656 0.143475
C11   C     C_R   0.719208 0.272540 0.832823 -0.025891
C12   C     C_R   0.280788 0.772543 0.167175 -0.025885
C13   C     C_R   0.791756 0.337074 0.179517 -0.179846
C14   C     C_R   0.208256 0.837080 0.820481 -0.179853
C15   C     C_R   0.777960 0.417055 0.124794 -0.164638
C16   C     C_R   0.222055 0.917063 0.875203 -0.164637
C17   C     C_R   0.758207 0.382546 0.052989 -0.135307
C18   C     C_R   0.241798 0.882553 0.947006 -0.135327
C19   C     C_R   0.744550 0.266040 0.034183 0.111533
C20   C     C_R   0.255449 0.766049 0.965814 0.111533
C21   C     C_R   0.760514 0.183910 0.090086 0.053156
C22   C     C_R   0.239497 0.683920 0.909910 0.053181
C23   C     C_R   0.727422 0.229280 0.961284 0.077673
C24   C     C_R   0.272569 0.729290 0.038712 0.077661
C25   C     C_R   0.762014 0.113204 0.944726 0.092379
C26   C     C_R   0.238003 0.613210 0.055270 0.092372
C27   C     C_R   0.756079 0.029239 0.999826 -0.016723
C28   C     C_R   0.243942 0.529249 0.000167 -0.016728
C29   C     C_R   0.751695 0.067143 0.072117 -0.265637
C30   C     C_R   0.248329 0.567154 0.927879 -0.265645
C31   C     C_R   0.688941 0.305556 0.903577 -0.229521
C32   C     C_R   0.311010 0.805570 0.096420 -0.229506
C33   C     C_R   0.791905 0.165504 0.818574 -0.180828
C34   C     C_R   0.208143 0.665495 0.181425 -0.180826
C35   C     C_R   0.783583 0.221330 0.162980 -0.069255
C36   C     C_R   0.216424 0.721337 0.837017 -0.069251
H5    H     H_    0.638255 0.391055 0.912307 0.096353
H6    H     H_    0.361623 0.891082 0.087689 0.096327
H7    H     H_    0.808044 0.365523 0.235178 0.107174
H8    H     H_    0.191970 0.865529 0.764821 0.107172
H9    H     H_    0.755711 0.448547 0.013246 0.103716
H10   H     H_    0.244293 0.948546 0.986743 0.103727
H11   H     H_    0.780559 0.506480 0.138468 0.123510
H12   H     H_    0.219467 0.006488 0.861528 0.123504
H13   H     H_    0.743297 0.005653 0.115133 0.115363
H14   H     H_    0.256741 0.505667 0.884862 0.115364
C37   C     C_2   0.831472 0.233374 0.484549 -0.349231
C38   C     C_2   0.168529 0.733374 0.515451 -0.349232
H15   H     H_    0.968619 0.269604 0.503351 0.151317
H16   H     H_    0.031381 0.769603 0.496649 0.151318
C39   C     C_2   0.668439 0.266508 0.515420 -0.347112
C40   C     C_2   0.331561 0.766508 0.484580 -0.347113
H17   H     H_    0.531292 0.230280 0.496616 0.151379
H18   H     H_    0.468707 0.730281 0.503384 0.151380
C41   C     C_R   0.747577 0.903280 0.982964 0.096893
C42   C     C_R   0.812774 0.821121 0.034089 -0.121127
C43   C     C_R   0.807027 0.705295 0.016730 -0.104439
C44   C     C_R   0.751932 0.669741 0.946924 -0.088804
C45   C     C_R   0.684262 0.748610 0.896292 -0.095521
C46   C     C_R   0.671063 0.862683 0.915518 -0.131285
H19   H     H_    0.872440 0.844847 0.086954 0.112781
H20   H     H_    0.852402 0.643481 0.056782 0.118021
H21   H     H_    0.760105 0.581573 0.931434 0.091014
H22   H     H_    0.635758 0.720895 0.842692 0.128193
H23   H     H_    0.600457 0.918523 0.876418 0.130801
C47   C     C_R   0.252433 0.403289 0.017024 0.096887
C48   C     C_R   0.187225 0.321142 0.965895 -0.121145
C49   C     C_R   0.192995 0.205314 0.983240 -0.104429
C50   C     C_R   0.248106 0.169744 0.053040 -0.088803
C51   C     C_R   0.315759 0.248603 0.103681 -0.095526
C52   C     C_R   0.328951 0.362680 0.084466 -0.131285
H24   H     H_    0.127543 0.344878 0.913034 0.112782
H25   H     H_    0.147635 0.143511 0.943181 0.118028
H26   H     H_    0.239971 0.081571 0.068517 0.091008
H27   H     H_    0.364275 0.220875 0.157276 0.128190
H28   H     H_    0.399565 0.418512 0.123569 0.130803

loop_
_geom_bond_atom_site_label_1
_geom_bond_atom_site_label_2
_ccdc_geom_bond_type
C45   C46   A    
C21   C35   A    
C22   C36   A    
C48   C49   A    
O4    C2    A    
V1    O19   S    
C50   C51   A    
C21   C29   A    
C19   C21   A    
C43   C44   A    
C28   C47   S    
O9    V1    S    
C12   C32   A    
C38   H16   S    
O3    C1    A    
C44   H21   S    
C8    C12   S    
O12   V4    S    
C51   H27   S    
C10   C34   A    
C12   C34   A    
O17   V3    S    
O7    V1    S    
C29   H13   S    
O7    C3    A    
C24   C32   A    
O5    C7    A    
C16   H12   S    
C6    C40   S    
O6    C8    A    
C7    C11   S    
O3    V1    S    
O14   V4    S    
C50   H26   S    
C17   C19   A    
C41   C46   A    
C32   H6    S    
C2    O12   A    
C10   H4    S    
C45   H22   S    
C14   H8    S    
C13   C15   A    
C14   C16   A    
H2    C34   S    
C24   C26   A    
O11   V3    S    
C18   C20   A    
C25   C27   A    
C9    C25   A    
C11   C33   A    
C26   C28   A    
C17   H9    S    
C22   C30   A    
C42   C43   A    
C13   H7    S    
O8    C4    A    
O8    V2    S    
C39   H17   S    
C44   C45   A    
C19   C23   A    
C1    O11   A    
C16   C18   A    
O15   V3    S    
C9    H3    S    
C23   C25   A    
C37   H15   S    
C41   C42   A    
C3    C38   S    
C11   C31   A    
C49   C50   A    
O10   V2    S    
O1    V3    S    
H1    C33   S    
C20   C22   A    
C15   C17   A    
C40   H18   S    
C10   C26   A    
O15   C5    A    
O16   C6    A    
O1    C3    A    
C42   H19   S    
C13   C35   A    
C27   C41   S    
C14   C36   A    
C30   H14   S    
V2    O20   S    
C46   H23   S    
C15   H11   S    
O16   V4    S    
C48   H24   S    
C38   C40   D    
C43   H20   S    
O18   V4    S    
O5    V1    S    
O17   C7    A    
O6    V2    S    
O10   C6    A    
O18   C8    A    
O2    V4    S    
C4    C37   S    
C27   C29   A    
V3    O19   S    
O13   V3    S    
C31   H5    S    
V4    O20   S    
C47   C52   A    
O9    C5    A    
O13   V1    S    
C28   C30   A    
C52   H28   S    
O14   V2    S    
C47   C48   A    
O2    C4    A    
C1    C36   S    
C18   H10   S    
C2    C35   S    
O4    V2    S    
C20   C24   A    
C23   C31   A    
C9    C33   A    
C51   C52   A    
C5    C39   S    
C49   H25   S    
C37   C39   D    
