data_mof_unit_65593.cif
_audit_creation_date              2012-12-10T17:22:34-0500
_audit_creation_method            fapswitch 2.2
_symmetry_space_group_name_H-M    P1
_symmetry_Int_Tables_number       1
_space_group_crystal_system       triclinic
_cell_length_a                    21.683844
_cell_length_b                    21.683843
_cell_length_c                    30.387602
_cell_angle_alpha                 90.000147
_cell_angle_beta                  90.00014
_cell_angle_gamma                 90.047717
_cell_volume                      14287.9133364

loop_
_atom_site_label
_atom_site_type_symbol
_atom_type_description
_atom_site_fract_x
_atom_site_fract_y
_atom_site_fract_z
_atom_type_partial_charge
C1    C     C_R   0.118918 0.500021 0.499996 0.784664
C2    C     C_R   0.499980 0.881083 0.500005 0.784627
C3    C     C_R   0.881082 0.499979 0.499996 0.784665
C4    C     C_R   0.500020 0.118917 0.500005 0.784627
C5    C     C_R   0.618917 0.000020 0.999995 0.784626
C6    C     C_R   0.999979 0.381082 0.000004 0.784665
C7    C     C_R   0.381083 0.999980 0.999995 0.784627
C8    C     C_R   0.000021 0.618918 0.000004 0.784664
C9    C     C_R   0.500006 0.380970 0.500000 0.780021
C10   C     C_R   0.380970 0.500009 0.499999 0.780033
C11   C     C_R   0.499994 0.619030 0.500000 0.780021
C12   C     C_R   0.619029 0.499991 0.500000 0.780033
C13   C     C_R   0.000009 0.880970 0.000000 0.780033
C14   C     C_R   0.880970 0.000006 0.999999 0.780021
C15   C     C_R   0.999991 0.119029 0.000000 0.780033
C16   C     C_R   0.119030 0.999994 0.999999 0.780021
C17   C     C_R   0.314092 0.500029 0.499995 -0.010737
C18   C     C_R   0.499976 0.685911 0.500006 -0.010453
C19   C     C_R   0.685908 0.499971 0.499995 -0.010737
C20   C     C_R   0.500024 0.314089 0.500005 -0.010453
C21   C     C_R   0.814089 0.000024 0.999994 -0.010453
C22   C     C_R   0.999971 0.185908 0.000005 -0.010737
C23   C     C_R   0.185911 0.999976 0.999995 -0.010454
C24   C     C_R   0.000029 0.814092 0.000005 -0.010737
C25   C     C_R   0.282043 0.539462 0.528399 -0.177037
C26   C     C_R   0.539332 0.718030 0.528460 -0.177002
C27   C     C_R   0.717957 0.460538 0.528399 -0.177037
C28   C     C_R   0.460668 0.281970 0.528460 -0.177003
C29   C     C_R   0.281974 0.460620 0.471578 -0.177429
C30   C     C_R   0.539405 0.282040 0.471565 -0.177048
C31   C     C_R   0.718026 0.539380 0.471578 -0.177430
C32   C     C_R   0.460594 0.717960 0.471565 -0.177047
C33   C     C_R   0.782040 0.039406 0.028435 -0.177047
C34   C     C_R   0.039379 0.218026 0.028422 -0.177429
C35   C     C_R   0.217960 0.960595 0.028435 -0.177048
C36   C     C_R   0.960620 0.781974 0.028422 -0.177430
C37   C     C_R   0.781970 0.960668 0.971539 -0.177003
C38   C     C_R   0.039462 0.782043 0.971600 -0.177037
C39   C     C_R   0.218030 0.039332 0.971540 -0.177002
C40   C     C_R   0.960538 0.217957 0.971601 -0.177037
C41   C     C_R   1.000000 0.500000 0.414908 0.783993
C42   C     C_R   0.500000 0.000000 0.414908 0.783794
C43   C     C_R   1.000000 0.500000 0.585092 0.783991
C44   C     C_R   0.500000 1.000000 0.585091 0.784012
C45   C     C_R   0.500000 1.000000 0.914909 0.784010
C46   C     C_R   1.000000 0.500000 0.914908 0.783990
C47   C     C_R   0.500000 0.000000 0.085092 0.783795
C48   C     C_R   0.000000 0.500000 0.085092 0.783994
C49   C     C_R   0.185807 0.500058 0.499980 -0.011501
C50   C     C_R   0.499944 0.814195 0.500023 -0.010159
C51   C     C_R   0.814193 0.499942 0.499980 -0.011502
C52   C     C_R   0.500056 0.185805 0.500022 -0.010159
C53   C     C_R   0.685805 0.000056 0.999977 -0.010159
C54   C     C_R   0.999942 0.314193 0.000020 -0.011501
C55   C     C_R   0.314195 0.999944 0.999977 -0.010159
C56   C     C_R   0.000058 0.685807 0.000020 -0.011502
C57   C     C_R   0.217931 0.540231 0.527849 -0.176419
C58   C     C_R   0.540071 0.782141 0.527927 -0.176500
C59   C     C_R   0.782069 0.459769 0.527849 -0.176419
C60   C     C_R   0.459929 0.217859 0.527927 -0.176499
C61   C     C_R   0.217863 0.459881 0.472113 -0.176601
C62   C     C_R   0.540176 0.217928 0.472115 -0.176040
C63   C     C_R   0.782137 0.540119 0.472113 -0.176600
C64   C     C_R   0.459823 0.782072 0.472115 -0.176041
C65   C     C_R   0.717928 0.040177 0.027885 -0.176040
C66   C     C_R   0.040119 0.282137 0.027887 -0.176601
C67   C     C_R   0.282072 0.959824 0.027885 -0.176040
C68   C     C_R   0.959881 0.717863 0.027887 -0.176600
C69   C     C_R   0.717859 0.959929 0.972072 -0.176499
C70   C     C_R   0.040231 0.717931 0.972151 -0.176419
C71   C     C_R   0.282141 0.040071 0.972073 -0.176499
C72   C     C_R   0.959769 0.282069 0.972151 -0.176419
C73   C     C_R   0.018954 0.552608 0.297387 -0.169737
C74   C     C_R   0.552589 0.981080 0.297387 -0.169754
C75   C     C_R   0.981047 0.447391 0.297386 -0.169737
C76   C     C_R   0.447410 0.018920 0.297387 -0.169754
C77   C     C_R   0.018920 0.447411 0.702613 -0.169647
C78   C     C_R   0.552553 0.980977 0.702607 -0.169005
C79   C     C_R   0.981080 0.552590 0.702613 -0.169647
C80   C     C_R   0.447447 0.019023 0.702607 -0.169006
C81   C     C_R   0.519031 0.947450 0.797393 -0.169003
C82   C     C_R   0.052589 0.481080 0.797387 -0.169647
C83   C     C_R   0.480969 0.052549 0.797393 -0.169005
C84   C     C_R   0.947410 0.518920 0.797387 -0.169647
C85   C     C_R   0.518920 0.947411 0.202613 -0.169755
C86   C     C_R   0.052609 0.518953 0.202613 -0.169737
C87   C     C_R   0.481079 0.052590 0.202613 -0.169754
C88   C     C_R   0.947391 0.481046 0.202613 -0.169737
C89   C     C_R   0.018486 0.552796 0.343260 -0.184169
C90   C     C_R   0.552776 0.981547 0.343260 -0.184187
C91   C     C_R   0.981515 0.447204 0.343259 -0.184170
C92   C     C_R   0.447223 0.018453 0.343259 -0.184187
C93   C     C_R   0.018453 0.447224 0.656740 -0.184114
C94   C     C_R   0.552738 0.981436 0.656735 -0.184321
C95   C     C_R   0.981547 0.552777 0.656740 -0.184115
C96   C     C_R   0.447263 0.018564 0.656735 -0.184320
C97   C     C_R   0.518572 0.947265 0.843265 -0.184321
C98   C     C_R   0.052776 0.481547 0.843259 -0.184114
C99   C     C_R   0.481428 0.052735 0.843265 -0.184320
C100  C     C_R   0.947223 0.518453 0.843259 -0.184115
C101  C     C_R   0.518453 0.947224 0.156740 -0.184187
C102  C     C_R   0.052796 0.518485 0.156740 -0.184169
C103  C     C_R   0.481547 0.052777 0.156740 -0.184187
C104  C     C_R   0.947204 0.481514 0.156740 -0.184170
C105  C     C_R   0.000000 0.500000 0.366551 -0.029492
C106  C     C_R   0.500000 1.000000 0.366551 -0.029433
C107  C     C_R   1.000000 0.500000 0.633449 -0.029379
C108  C     C_R   0.500000 1.000000 0.633445 -0.026778
C109  C     C_R   0.500000 1.000000 0.866555 -0.026773
C110  C     C_R   1.000000 0.500000 0.866551 -0.029380
C111  C     C_R   0.500000 0.000000 0.133449 -0.029433
C112  C     C_R   0.000000 0.500000 0.133449 -0.029492
C113  C     C_R   0.000000 0.500000 0.274191 0.100675
C114  C     C_R   0.500000 0.000000 0.274191 0.100712
C115  C     C_R   1.000000 0.500000 0.725809 0.100856
C116  C     C_R   0.500000 1.000000 0.725807 0.101305
C117  C     C_R   0.500000 1.000000 0.774193 0.101304
C118  C     C_R   1.000000 0.500000 0.774191 0.100856
C119  C     C_R   0.500000 0.000000 0.225809 0.100712
C120  C     C_R   0.000000 0.499999 0.225809 0.100675
Cu1   Cu    Cu3+1 1.000000 0.438210 0.500000 0.943119
Cu2   Cu    Cu3+1 0.438210 1.000000 0.500000 0.943493
Cu3   Cu    Cu3+1 1.000000 0.561790 0.500000 0.943119
Cu4   Cu    Cu3+1 0.561790 1.000000 0.500000 0.943493
Cu5   Cu    Cu3+1 0.500000 0.938210 0.000000 0.943494
Cu6   Cu    Cu3+1 0.938210 0.500000 0.000000 0.943119
Cu7   Cu    Cu3+1 0.500000 0.061790 0.000000 0.943494
Cu8   Cu    Cu3+1 0.061790 0.500000 0.000000 0.943119
Cu9   Cu    Cu3+1 0.500000 0.500000 0.544060 0.947264
Cu10  Cu    Cu3+1 0.500000 0.500000 0.455940 0.946989
Cu11  Cu    Cu3+1 0.000000 0.000000 0.044060 0.946989
Cu12  Cu    Cu3+1 0.000000 1.000000 0.955940 0.947264
H1    H     H_    0.193403 0.571265 0.549619 0.139868
H2    H     H_    0.571062 0.806725 0.549728 0.136949
H3    H     H_    0.806598 0.428735 0.549619 0.139868
H4    H     H_    0.428938 0.193276 0.549728 0.136949
H5    H     H_    0.193282 0.428847 0.450343 0.139573
H6    H     H_    0.571170 0.193399 0.450316 0.139480
H7    H     H_    0.806717 0.571153 0.450343 0.139573
H8    H     H_    0.428829 0.806601 0.450316 0.139480
H9    H     H_    0.693399 0.071170 0.049684 0.139480
H10   H     H_    0.071153 0.306717 0.049657 0.139573
H11   H     H_    0.306601 0.928830 0.049684 0.139480
H12   H     H_    0.928847 0.693283 0.049657 0.139573
H13   H     H_    0.693275 0.928938 0.950272 0.136948
H14   H     H_    0.071265 0.693402 0.950380 0.139868
H15   H     H_    0.306724 0.071062 0.950272 0.136948
H16   H     H_    0.928735 0.306597 0.950381 0.139868
O1    O     O_R   0.090160 0.447820 0.500030 -0.585250
O2    O     O_R   0.447820 0.909840 0.500030 -0.582965
O3    O     O_R   0.909840 0.552180 0.500030 -0.585250
O4    O     O_R   0.552180 0.090160 0.500030 -0.582965
O5    O     O_R   0.090160 0.552180 0.499970 -0.584998
O6    O     O_R   0.447820 0.090160 0.499970 -0.587178
O7    O     O_R   0.909840 0.447820 0.499970 -0.584998
O8    O     O_R   0.552180 0.909840 0.499970 -0.587178
O9    O     O_R   0.590160 0.947820 0.000030 -0.587178
O10   O     O_R   0.947820 0.409840 0.000030 -0.584998
O11   O     O_R   0.409840 0.052180 0.000030 -0.587178
O12   O     O_R   0.052180 0.590160 0.000030 -0.584998
O13   O     O_R   0.590160 0.052180 0.999970 -0.582965
O14   O     O_R   0.947820 0.590160 0.999970 -0.585250
O15   O     O_R   0.409840 0.947820 0.999970 -0.582965
O16   O     O_R   0.052180 0.409840 0.999970 -0.585250
O17   O     O_R   0.999980 0.447820 0.435750 -0.588721
O18   O     O_R   0.447820 0.000020 0.435750 -0.588774
O19   O     O_R   0.000020 0.552180 0.435750 -0.588721
O20   O     O_R   0.552180 0.999980 0.435750 -0.588775
O21   O     O_R   0.999980 0.552180 0.564250 -0.588699
O22   O     O_R   0.447820 0.999980 0.564250 -0.588470
O23   O     O_R   0.000020 0.447820 0.564250 -0.588699
O24   O     O_R   0.552180 0.000020 0.564250 -0.588470
O25   O     O_R   0.499980 0.947820 0.935750 -0.588468
O26   O     O_R   0.947820 0.500020 0.935750 -0.588698
O27   O     O_R   0.500020 0.052180 0.935750 -0.588468
O28   O     O_R   0.052180 0.499980 0.935750 -0.588698
O29   O     O_R   0.499980 0.052180 0.064250 -0.588775
O30   O     O_R   0.947820 0.499980 0.064250 -0.588722
O31   O     O_R   0.500020 0.947820 0.064250 -0.588776
O32   O     O_R   0.052180 0.500020 0.064250 -0.588722
O33   O     O_R   0.499980 0.409740 0.537200 -0.585889
O34   O     O_R   0.409740 0.500020 0.537200 -0.586027
O35   O     O_R   0.500020 0.590260 0.537200 -0.585889
O36   O     O_R   0.590260 0.499980 0.537200 -0.586027
O37   O     O_R   0.499980 0.590260 0.462800 -0.586116
O38   O     O_R   0.409740 0.499980 0.462800 -0.585991
O39   O     O_R   0.500020 0.409740 0.462800 -0.586115
O40   O     O_R   0.590260 0.500020 0.462800 -0.585991
O41   O     O_R   0.999980 0.909740 0.037200 -0.585991
O42   O     O_R   0.909740 0.000020 0.037200 -0.586115
O43   O     O_R   0.000020 0.090260 0.037200 -0.585991
O44   O     O_R   0.090260 0.999980 0.037200 -0.586116
O45   O     O_R   0.999980 0.090260 0.962800 -0.586027
O46   O     O_R   0.909740 0.999980 0.962800 -0.585889
O47   O     O_R   0.000020 0.909740 0.962800 -0.586027
O48   O     O_R   0.090260 0.000020 0.962800 -0.585889
H17   H     H_    0.033385 0.593749 0.279967 0.130425
H18   H     H_    0.593715 0.966677 0.279968 0.130393
H19   H     H_    0.966616 0.406250 0.279967 0.130425
H20   H     H_    0.406284 0.033324 0.279967 0.130393
H21   H     H_    0.033323 0.406284 0.720032 0.130250
H22   H     H_    0.593655 0.966496 0.720023 0.129683
H23   H     H_    0.966676 0.593716 0.720032 0.130250
H24   H     H_    0.406345 0.033503 0.720023 0.129683
H25   H     H_    0.533518 0.906350 0.779977 0.129682
H26   H     H_    0.093715 0.466677 0.779968 0.130250
H27   H     H_    0.466482 0.093650 0.779978 0.129683
H28   H     H_    0.906284 0.533324 0.779968 0.130250
H29   H     H_    0.533324 0.906285 0.220032 0.130394
H30   H     H_    0.093750 0.533384 0.220033 0.130425
H31   H     H_    0.466676 0.093716 0.220032 0.130393
H32   H     H_    0.906251 0.466616 0.220033 0.130425
H33   H     H_    0.033144 0.594008 0.360480 0.150693
H34   H     H_    0.593974 0.966915 0.360479 0.150658
H35   H     H_    0.966857 0.405991 0.360480 0.150693
H36   H     H_    0.406026 0.033085 0.360479 0.150658
H37   H     H_    0.033085 0.406026 0.639520 0.150564
H38   H     H_    0.593901 0.966712 0.639512 0.148512
H39   H     H_    0.966915 0.593974 0.639521 0.150564
H40   H     H_    0.406099 0.033288 0.639512 0.148512
H41   H     H_    0.533303 0.906104 0.860488 0.148508
H42   H     H_    0.093974 0.466915 0.860479 0.150564
H43   H     H_    0.466697 0.093896 0.860488 0.148508
H44   H     H_    0.906026 0.533085 0.860479 0.150564
H45   H     H_    0.533085 0.906026 0.139520 0.150658
H46   H     H_    0.094009 0.533143 0.139520 0.150692
H47   H     H_    0.466915 0.093974 0.139520 0.150658
H48   H     H_    0.905992 0.466856 0.139520 0.150693
H49   H     H_    0.306633 0.570246 0.550345 0.140121
H50   H     H_    0.570088 0.693497 0.550429 0.139119
H51   H     H_    0.693367 0.429755 0.550345 0.140121
H52   H     H_    0.429912 0.306503 0.550428 0.139119
H53   H     H_    0.306507 0.429825 0.449638 0.139656
H54   H     H_    0.570149 0.306629 0.449591 0.139784
H55   H     H_    0.693492 0.570175 0.449639 0.139656
H56   H     H_    0.429850 0.693371 0.449591 0.139784
H57   H     H_    0.806629 0.070150 0.050409 0.139785
H58   H     H_    0.070175 0.193493 0.050362 0.139656
H59   H     H_    0.193371 0.929851 0.050409 0.139785
H60   H     H_    0.929825 0.806508 0.050361 0.139656
H61   H     H_    0.806502 0.929912 0.949571 0.139119
H62   H     H_    0.070245 0.806633 0.949655 0.140121
H63   H     H_    0.193497 0.070088 0.949571 0.139118
H64   H     H_    0.929754 0.193367 0.949655 0.140121

loop_
_geom_bond_atom_site_label_1
_geom_bond_atom_site_label_2
_ccdc_geom_bond_type
C36   H60   S    
C71   H15   S    
Cu9   O34   S    
C38   C70   A    
C11   C18   S    
C2    O2    A    
C98   C110  A    
C79   C115  A    
Cu11  O43   S    
C17   C29   A    
C91   C105  A    
C4    O6    A    
C10   O38   A    
C18   C26   A    
C22   C40   A    
Cu8   O16   S    
C19   C31   A    
C34   C66   A    
C48   O30   A    
C43   O21   A    
Cu10  O37   S    
C33   C65   A    
C20   C30   A    
Cu11  O44   S    
C58   H2    S    
C79   C95   A    
C25   H49   S    
C3    O3    A    
C24   C36   A    
C41   C105  S    
C4    C52   S    
Cu2   O18   S    
C50   C64   A    
Cu2   O2    S    
C14   C21   S    
C81   H25   S    
C80   H24   S    
C41   O19   A    
Cu10  O40   S    
C37   C69   A    
C45   O27   A    
C30   C62   A    
Cu3   O5    S    
C45   C109  S    
C21   C33   A    
Cu5   O9    S    
C100  H44   S    
C10   C17   S    
C103  H47   S    
C64   H8    S    
C74   C114  A    
C81   C117  A    
C102  H46   S    
C73   C113  A    
C116  C117  S    
C61   H5    S    
C21   C37   A    
C93   H37   S    
C83   H27   S    
C85   C119  A    
C94   H38   S    
C30   H54   S    
C91   H35   S    
C52   C60   A    
C88   C104  A    
C77   C115  A    
Cu4   O20   S    
C102  C112  A    
C55   C71   A    
C26   C58   A    
C15   C22   S    
C74   H18   S    
Cu1   O1    S    
Cu2   O22   S    
C41   O17   A    
Cu5   O31   S    
Cu12  O47   S    
C76   C114  A    
C46   O26   A    
C68   H12   S    
Cu8   O32   S    
C31   H55   S    
C7    C55   S    
C88   C120  A    
C82   H26   S    
C53   C65   A    
C60   H4    S    
C39   H63   S    
C114  C119  S    
Cu6   O26   S    
C86   C102  A    
C75   C91   A    
Cu3   O19   S    
C44   C108  S    
C87   H31   S    
C14   O46   A    
Cu5   O25   S    
Cu7   O13   S    
C83   C99   A    
C70   H14   S    
Cu12  O46   S    
C82   C98   A    
C77   H21   S    
C8    C56   S    
C67   H11   S    
Cu5   O15   S    
C25   C57   A    
C6    C54   S    
C4    O4    A    
C33   H57   S    
C6    O10   A    
C42   O20   A    
C104  H48   S    
C29   C61   A    
Cu6   O10   S    
Cu7   O27   S    
C22   C34   A    
C7    O11   A    
C99   H43   S    
Cu8   O28   S    
C48   O32   A    
C37   H61   S    
C84   C100  A    
C86   H30   S    
C28   H52   S    
C14   O42   A    
C11   O35   A    
C32   C64   A    
C76   H20   S    
C104  C112  A    
C13   O41   A    
C43   O23   A    
Cu10  O39   S    
C20   C28   A    
C54   C72   A    
C53   C69   A    
C96   H40   S    
Cu6   O30   S    
C7    O15   A    
C103  C111  A    
C26   H50   S    
C13   C24   S    
C73   H17   S    
Cu7   O29   S    
C80   C96   A    
C47   O31   A    
C44   O24   A    
C87   C119  A    
C69   H13   S    
C16   O48   A    
C45   O25   A    
C113  C120  S    
C65   H9    S    
C84   H28   S    
C9    C20   S    
C24   C38   A    
Cu4   O24   S    
C35   C67   A    
C115  C118  S    
C94   C108  A    
C36   C68   A    
C3    O7    A    
Cu11  O41   S    
C51   C63   A    
Cu12  O48   S    
C43   C107  S    
C62   H6    S    
C1    O5    A    
C42   C106  S    
C90   C106  A    
C40   H64   S    
C28   C60   A    
C95   C107  A    
C76   C92   A    
C35   H59   S    
C75   C113  A    
C92   C106  A    
C50   C58   A    
Cu1   O23   S    
Cu9   O36   S    
C6    O16   A    
Cu2   O6    S    
C16   C23   S    
C56   C70   A    
Cu4   O8    S    
C2    C50   S    
C13   O47   A    
Cu12  O45   S    
C10   O34   A    
C87   C103  A    
C18   C32   A    
C82   C118  A    
Cu2   Cu4   S    
Cu11  Cu12  S    
C8    O12   A    
Cu7   O11   S    
C90   H34   S    
C19   C27   A    
Cu6   Cu8   S    
Cu8   O12   S    
C89   H33   S    
Cu9   Cu10  S    
C32   H56   S    
Cu11  O42   S    
C5    C53   S    
Cu9   O33   S    
C16   O44   A    
C3    C51   S    
Cu1   O7    S    
C48   C112  S    
C11   O37   A    
C57   H1    S    
C63   H7    S    
C59   H3    S    
Cu3   O3    S    
C78   C116  A    
C78   H22   S    
C1    O1    A    
C9    O39   A    
C85   H29   S    
C38   H62   S    
C86   C120  A    
Cu10  O38   S    
C66   H10   S    
C72   H16   S    
C75   H19   S    
C101  C111  A    
C31   C63   A    
Cu1   O17   S    
C15   O43   A    
C5    O9    A    
C79   H23   S    
C56   C68   A    
C74   C90   A    
C99   C109  A    
C46   C110  S    
C97   C109  A    
C17   C25   A    
C55   C67   A    
C47   O29   A    
C27   C59   A    
Cu9   O35   S    
C29   H53   S    
C49   C61   A    
C83   C117  A    
C12   O36   A    
C81   C97   A    
C78   C94   A    
C47   C111  S    
C100  C110  A    
C98   H42   S    
C12   C19   S    
C77   C93   A    
Cu3   O21   S    
C97   H41   S    
C92   H36   S    
C46   O28   A    
Cu4   O4    S    
C34   H58   S    
C23   C35   A    
C44   O22   A    
Cu6   O14   S    
Cu1   Cu3   S    
C9    O33   A    
C85   C101  A    
C73   C89   A    
C27   H51   S    
C15   O45   A    
C49   C57   A    
C40   C72   A    
C51   C59   A    
C84   C118  A    
C88   H32   S    
C89   C105  A    
C95   H39   S    
Cu5   Cu7   S    
C39   C71   A    
C96   C108  A    
C101  H45   S    
C52   C62   A    
C8    O14   A    
C80   C116  A    
C54   C66   A    
C1    C49   S    
C23   C39   A    
C93   C107  A    
C2    O8    A    
C42   O18   A    
C5    O13   A    
C12   O40   A    
