data_mof_unit_6508.cif
_audit_creation_date              2012-12-10T18:42:37-0500
_audit_creation_method            fapswitch 2.2
_symmetry_space_group_name_H-M    P1
_symmetry_Int_Tables_number       1
_space_group_crystal_system       triclinic
_cell_length_a                    10.829213
_cell_length_b                    15.074164
_cell_length_c                    13.962631
_cell_angle_alpha                 91.818068
_cell_angle_beta                  90.926854
_cell_angle_gamma                 91.159406
_cell_volume                      2277.34212689

loop_
_atom_site_label
_atom_site_type_symbol
_atom_type_description
_atom_site_fract_x
_atom_site_fract_y
_atom_site_fract_z
_atom_type_partial_charge
C1    C     C_R   0.499848 0.329915 0.498738 0.798796
C2    C     C_R   0.502569 0.670014 0.501189 0.794087
C3    C     C_R   0.871344 0.496976 0.501484 -0.080383
C4    C     C_R   0.128267 0.500616 0.497666 -0.080624
C5    C     C_R   0.938973 0.456894 0.575009 0.004139
C6    C     C_R   0.060119 0.537587 0.422171 0.011728
C7    C     C_R   0.468664 0.094626 0.574167 -0.212171
C8    C     C_R   0.449174 0.904214 0.433884 -0.241968
C9    C     C_R   0.460699 0.186262 0.574369 -0.195355
C10   C     C_R   0.443146 0.812349 0.434009 -0.199754
C11   C     C_R   0.503771 0.233202 0.496433 -0.064924
C12   C     C_R   0.509076 0.766705 0.502836 -0.043874
C13   C     C_R   0.555612 0.187723 0.418387 -0.232779
C14   C     C_R   0.585686 0.813446 0.569425 -0.245671
C15   C     C_R   0.570052 0.095666 0.419099 0.180725
C16   C     C_R   0.595222 0.906322 0.569261 0.197823
C17   C     C_R   0.524366 0.048827 0.498054 0.078183
C18   C     C_R   0.525213 0.951774 0.500342 0.083070
C19   C     C_R   0.551432 0.571812 0.111727 -0.295181
C20   C     C_R   0.420162 0.441890 0.887907 -0.299743
C21   C     C_R   0.553460 0.569029 0.212629 0.051241
C22   C     C_R   0.424256 0.442213 0.786924 0.050421
C23   C     C_R   0.262344 0.500981 0.499178 0.789984
C24   C     C_R   0.737483 0.498115 0.500648 0.801567
C25   C     C_R   0.442981 0.431974 0.204398 0.389287
C26   C     C_R   0.574140 0.558652 0.795758 0.400500
C27   C     C_R   0.446980 0.430499 0.103735 -0.282919
C28   C     C_R   0.577291 0.555736 0.896328 -0.281081
C29   C     C_R   0.499090 0.500860 0.054498 0.099699
C30   C     C_R   0.498641 0.499001 0.945322 0.098587
C31   C     C_R   0.199271 0.707541 0.257462 -0.147653
C32   C     C_R   0.772624 0.269916 0.700381 -0.126785
C33   C     C_R   0.148844 0.670751 0.339860 0.209694
C34   C     C_R   0.837100 0.315145 0.629674 0.219479
C35   C     C_R   0.117861 0.579180 0.338833 0.127514
C36   C     C_R   0.878657 0.403785 0.649135 0.119893
C37   C     C_R   0.136295 0.526767 0.255549 -0.164500
C38   C     C_R   0.859521 0.443426 0.739882 -0.168950
C39   C     C_R   0.187393 0.564142 0.174624 -0.127242
C40   C     C_R   0.796767 0.396993 0.809786 -0.129505
C41   C     C_R   0.219292 0.654279 0.175703 -0.151830
C42   C     C_R   0.752220 0.310799 0.789728 -0.157329
C43   C     C_R   0.932334 0.536253 0.425700 -0.245181
C44   C     C_R   0.067075 0.460722 0.573325 -0.238677
Cu1   Cu    Cu3+1 0.500000 0.499990 0.596430 0.943786
Cu2   Cu    Cu3+1 0.500000 0.500010 0.403570 0.939873
H1    H     H_    0.258879 0.683071 0.112834 0.134654
H2    H     H_    0.702558 0.275335 0.843772 0.130888
H3    H     H_    0.590341 0.630351 0.080318 0.129673
H4    H     H_    0.353833 0.397539 0.919317 0.127875
H5    H     H_    0.596821 0.623368 0.253856 0.129817
H6    H     H_    0.364117 0.397246 0.745034 0.119150
H7    H     H_    0.408491 0.373176 0.064677 0.129714
H8    H     H_    0.640690 0.599966 0.935707 0.128625
H9    H     H_    0.223072 0.777610 0.256243 0.119492
H10   H     H_    0.738745 0.202539 0.686370 0.145109
H11   H     H_    0.111281 0.456781 0.253556 0.127188
H12   H     H_    0.891456 0.510928 0.755849 0.131046
H13   H     H_    0.201978 0.523201 0.110890 0.137571
H14   H     H_    0.781703 0.428171 0.879382 0.138973
H15   H     H_    0.880248 0.566682 0.368856 0.156559
H16   H     H_    0.119077 0.429361 0.629555 0.151301
H17   H     H_    0.430826 0.059060 0.633595 0.133611
H18   H     H_    0.394923 0.938602 0.381329 0.140368
H19   H     H_    0.419288 0.220344 0.634920 0.145974
H20   H     H_    0.386266 0.776746 0.380809 0.163019
H21   H     H_    0.589585 0.224451 0.358476 0.153251
H22   H     H_    0.641447 0.777369 0.619192 0.132719
N1    N     N_R   0.500000 0.500020 0.258690 -0.164648
N2    N     N_R   0.500000 0.499980 0.741310 -0.162668
O1    O     O_R   0.500010 0.371450 0.581430 -0.580345
O2    O     O_R   0.499990 0.628550 0.418570 -0.587840
O3    O     O_R   0.500010 0.371460 0.418560 -0.589752
O4    O     O_R   0.499990 0.628540 0.581440 -0.581533
O5    O     O_R   0.319640 0.500000 0.581430 -0.587386
O6    O     O_R   0.680360 0.500000 0.418570 -0.585364
O7    O     O_R   0.319640 0.500010 0.418560 -0.582263
O8    O     O_R   0.680360 0.499990 0.581440 -0.582078
C45   C     C_3   0.633981 0.050641 0.335239 -0.428501
C46   C     C_3   0.768635 0.081844 0.328033 -0.843264
H23   H     H_    0.775243 0.154141 0.315674 0.249254
H24   H     H_    0.820921 0.067224 0.394446 0.256609
H25   H     H_    0.812157 0.046263 0.266877 0.241051
H26   H     H_    0.633881 0.977476 0.340341 0.218078
H27   H     H_    0.583694 0.065654 0.267854 0.195696
C47   C     C_3   0.679939 0.953855 0.642782 -0.420462
C48   C     C_3   0.791804 0.997398 0.596795 -0.839507
H28   H     H_    0.837142 0.949577 0.547178 0.256224
H29   H     H_    0.764116 0.056642 0.557420 0.260015
H30   H     H_    0.859598 0.019661 0.653509 0.236481
H31   H     H_    0.628633 0.004411 0.684569 0.194902
H32   H     H_    0.714785 0.906276 0.695625 0.196576
C49   C     C_3   0.373042 0.356199 0.247545 -0.817867
H33   H     H_    0.320033 0.377601 0.310444 0.261053
H34   H     H_    0.303031 0.326979 0.196013 0.176279
H35   H     H_    0.437363 0.302576 0.264866 0.223874
C50   C     C_3   0.644044 0.634748 0.753385 -0.837864
H36   H     H_    0.698473 0.615134 0.690900 0.255867
H37   H     H_    0.577396 0.686707 0.735792 0.229110
H38   H     H_    0.711656 0.666046 0.805453 0.177633
C51   C     C_3   0.127702 0.729089 0.427345 -0.913820
H39   H     H_    0.028313 0.727073 0.445631 0.239655
H40   H     H_    0.183030 0.705271 0.488685 0.235167
H41   H     H_    0.155026 0.799265 0.415561 0.230322
C52   C     C_3   0.860943 0.266338 0.536149 -0.933899
H42   H     H_    0.916721 0.305799 0.486310 0.243524
H43   H     H_    0.911490 0.204597 0.550242 0.234828
H44   H     H_    0.771943 0.248312 0.499948 0.244292

loop_
_geom_bond_atom_site_label_1
_geom_bond_atom_site_label_2
_ccdc_geom_bond_type
C48   H28   S    
C25   C49   S    
C51   H39   S    
C40   H14   S    
Cu1   O1    S    
C1    C11   S    
C45   H27   S    
C2    C12   S    
Cu2   O6    S    
C50   H36   S    
C39   C41   A    
C20   C30   A    
Cu1   Cu2   S    
C52   H43   S    
C3    C43   A    
C49   H33   S    
C33   C51   S    
C35   C37   A    
C47   H31   S    
C45   H26   S    
C27   C29   A    
C5    C36   S    
C6    C35   S    
C15   C17   A    
Cu2   N1    S    
C20   H4    S    
C38   H12   S    
C15   C45   S    
C7    C17   A    
C31   C33   A    
Cu1   O8    S    
Cu2   O2    S    
C2    O4    A    
C40   C42   A    
C49   H34   S    
C16   C47   S    
C3    C24   S    
C46   H25   S    
C2    O2    A    
C50   H37   S    
C10   H20   S    
C52   H44   S    
C46   H24   S    
C4    C23   S    
C28   H8    S    
C47   C48   S    
C24   O6    A    
C4    C44   A    
C44   H16   S    
C8    C18   A    
C21   N1    A    
Cu1   O4    S    
C32   C34   A    
C29   C30   S    
C19   H3    S    
C39   H13   S    
C17   C18   S    
C41   H1    S    
C42   H2    S    
C23   O7    A    
C9    C11   A    
C7    H17   S    
C10   C12   A    
C8    H18   S    
C24   O8    A    
C5    C44   A    
C12   C14   A    
C49   H35   S    
C6    C43   A    
C13   C15   A    
C26   N2    A    
C14   C16   A    
C4    C6    A    
C25   N1    A    
C20   C22   A    
C19   C29   A    
C21   H5    S    
C50   H38   S    
C43   H15   S    
C22   H6    S    
C13   H21   S    
C7    C9    A    
C32   C42   A    
C31   C41   A    
C19   C21   A    
Cu1   N2    S    
C34   C52   S    
C8    C10   A    
C23   O5    A    
C46   H23   S    
C3    C5    A    
Cu2   O7    S    
C27   H7    S    
C25   C27   A    
C52   H42   S    
C26   C28   A    
C51   H40   S    
Cu1   O5    S    
C1    O3    A    
C28   C30   A    
C37   C39   A    
C47   H32   S    
C38   C40   A    
C11   C13   A    
C1    O1    A    
C36   C38   A    
C33   C35   A    
C22   N2    A    
C34   C36   A    
C9    H19   S    
C26   C50   S    
C45   C46   S    
C16   C18   A    
C48   H30   S    
C48   H29   S    
C14   H22   S    
C51   H41   S    
C31   H9    S    
C32   H10   S    
Cu2   O3    S    
C37   H11   S    
