data_mof_unit_55435.cif
_audit_creation_date              2013-03-05T15:57:24-0500
_audit_creation_method            fapswitch 2.2
_symmetry_space_group_name_H-M    P1
_symmetry_Int_Tables_number       1
_space_group_crystal_system       triclinic
_cell_length_a                    13.039026
_cell_length_b                    13.038164
_cell_length_c                    15.458382
_cell_angle_alpha                 117.5902
_cell_angle_beta                  63.519778
_cell_angle_gamma                 97.898079
_cell_volume                      2076.87353226

loop_
_atom_site_label
_atom_site_type_symbol
_atom_site_description
_atom_site_fract_x
_atom_site_fract_y
_atom_site_fract_z
_atom_type_partial_charge
C1    C     C_R   0.997776 0.832704 0.059922 -0.106616
H1    H     H_    0.026904 0.893943 0.118875 0.100350
N1    N     N_R   0.037320 0.720000 0.995830 -0.045731
C2    C     C_R   0.679137 0.476494 0.219642 -0.135628
H2    H     H_    0.608741 0.439786 0.199300 0.103504
N2    N     N_R   0.790770 0.446140 0.151990 -0.042904
C3    C     C_R   0.755880 0.518493 0.893177 -0.165968
H3    H     H_    0.778543 0.546736 0.831649 0.094193
N3    N     N_R   0.824900 0.517970 0.936430 -0.039528
C4    C     C_R   0.025428 0.698120 0.297676 -0.147276
H4    H     H_    0.011125 0.657289 0.348083 0.100768
N4    N     N_R   0.003190 0.648180 0.211390 -0.041718
C5    C     C_R   0.676475 0.421177 0.990141 -0.125770
H5    H     H_    0.629255 0.358818 0.017413 0.106175
N5    N     N_R   0.774330 0.457010 0.995830 -0.044476
C6    C     C_R   0.102621 0.797472 0.203948 -0.151614
H6    H     H_    0.158197 0.848713 0.166816 0.124062
N6    N     N_R   0.053760 0.709130 0.151980 -0.042373
C7    C     C_R   0.783297 0.575646 0.309505 -0.087328
H7    H     H_    0.809209 0.637907 0.370298 0.118104
N7    N     N_R   0.853840 0.498830 0.211390 -0.042110
C8    C     C_R   0.894950 0.747562 0.965921 -0.164510
H8    H     H_    0.827339 0.729924 0.940257 0.103321
N8    N     N_R   0.974250 0.667320 0.936430 -0.039621
C9    C     C_R   0.906138 0.852097 0.044765 0.118159
C10   C     C_R   0.672760 0.555802 0.320598 0.036881
C11   C     C_R   0.662671 0.458343 0.925791 0.157235
C12   C     C_R   0.090646 0.791173 0.294527 0.074578
C13   C     C_R   0.338297 0.516168 0.950749 -0.123509
H9    H     H_    0.397443 0.554137 0.900445 0.091978
N9    N     N_R   0.225670 0.542990 0.004170 -0.044752
C14   C     C_R   0.967560 0.177885 0.780729 -0.120673
H10   H     H_    0.932204 0.114127 0.808366 0.132986
N10   N     N_R   0.946240 0.290870 0.848020 -0.043217
C15   C     C_R   0.206747 0.493319 0.690469 -0.134665
H11   H     H_    0.179047 0.454010 0.627892 0.134324
N11   N     N_R   0.146160 0.501170 0.788610 -0.040091
C16   C     C_R   0.051428 0.254951 0.086710 -0.093303
H12   H     H_    0.089972 0.274281 0.140998 0.082591
N12   N     N_R   0.025750 0.332680 0.063570 -0.041739
C17   C     C_R   0.948154 0.172231 0.995178 -0.130251
H13   H     H_    0.888685 0.116811 0.967551 0.120553
N13   N     N_R   0.962680 0.280000 0.004170 -0.044435
C18   C     C_R   0.302036 0.589601 0.789668 -0.145224
H14   H     H_    0.357112 0.649680 0.821194 0.106972
N14   N     N_R   0.209230 0.553860 0.848010 -0.038507
C19   C     C_R   0.259000 0.417329 0.047875 -0.130197
H15   H     H_    0.248398 0.363824 0.087075 0.123030
N15   N     N_R   0.175100 0.482030 0.063570 -0.046991
C20   C     C_R   0.049543 0.275894 0.684074 -0.123350
H16   H     H_    0.091219 0.299504 0.619095 0.093783
N16   N     N_R   0.996810 0.351820 0.788610 -0.039720
Ni1   Ni    Ni4+2 0.130310 0.630310 0.000000 0.216930
Ni2   Ni    Ni4+2 0.869690 0.369690 0.000000 0.225644
Ni3   Ni    Ni4+2 0.985660 0.509480 0.863750 0.216582
Ni4   Ni    Ni4+2 0.014340 0.490520 0.136250 0.217359
C21   C     C_R   0.361682 0.435385 0.975329 0.142491
C22   C     C_R   0.037888 0.164104 0.676123 0.057540
C23   C     C_R   0.302604 0.552535 0.690202 0.059675
C24   C     C_R   0.004861 0.151668 0.044078 0.052377
C25   C     C_R   0.407216 0.943587 0.104871 -0.258684
H17   H     H_    0.484960 0.889048 0.039712 0.156993
C26   C     C_R   0.347995 0.923753 0.195948 -0.212054
H18   H     H_    0.380638 0.854536 0.199616 0.139615
C27   C     C_R   0.246656 0.992531 0.281454 0.141917
C28   C     C_R   0.205926 0.081917 0.275214 -0.242853
H19   H     H_    0.127098 0.134777 0.340038 0.130919
C29   C     C_R   0.264963 0.101835 0.184427 -0.258968
H20   H     H_    0.231038 0.170927 0.181601 0.151992
C30   C     C_R   0.366173 0.032767 0.098088 0.440524
C31   C     C_R   0.162603 0.064377 0.478864 -0.236212
H21   H     H_    0.196241 0.145731 0.481475 0.129227
C32   C     C_R   0.090828 0.055152 0.574523 0.065538
C33   C     C_R   0.067743 0.942326 0.566349 0.032533
C34   C     C_R   0.100559 0.848075 0.464653 -0.231513
H22   H     H_    0.079310 0.763398 0.460617 0.124844
C35   C     C_R   0.136097 0.866188 0.373611 0.045729
C36   C     C_R   0.182934 0.971861 0.377729 0.043155
C37   C     C_R   0.034543 0.915786 0.726179 -0.165440
H23   H     H_    0.122776 0.932287 0.712689 0.128080
C38   C     C_R   0.960344 0.896496 0.814882 -0.166594
H24   H     H_    0.992046 0.897898 0.869071 0.141171
C39   C     C_R   0.845448 0.877544 0.834126 -0.123733
H25   H     H_    0.786822 0.864994 0.903627 0.105072
C40   C     C_R   0.805454 0.874546 0.763122 -0.068779
H26   H     H_    0.717441 0.857327 0.776727 0.159488
C41   C     C_R   0.878845 0.894794 0.675038 -0.180583
H27   H     H_    0.846657 0.893903 0.621076 0.126753
C42   C     C_R   0.992936 0.918016 0.657704 0.112029
H28   H     H_    0.027221 0.420576 0.351226 0.107980
C43   C     C_R   0.862644 0.364214 0.358281 -0.113059
H29   H     H_    0.896634 0.276954 0.295245 0.112119
C44   C     C_R   0.746766 0.398827 0.401390 -0.109038
H30   H     H_    0.692345 0.338925 0.368500 0.116986
C45   C     C_R   0.704240 0.514006 0.479487 0.116505
C46   C     C_R   0.774661 0.590179 0.522853 -0.193278
H31   H     H_    0.742375 0.678981 0.583405 0.122579
C47   C     C_R   0.891328 0.556430 0.476419 -0.136491
H32   H     H_    0.947802 0.618721 0.503095 0.132303
C48   C     C_R   0.935912 0.444702 0.391773 -0.109404
C49   C     C_R   0.501203 0.567774 0.592993 -0.228710
H33   H     H_    0.516505 0.552840 0.649960 0.127505
C50   C     C_R   0.390562 0.574414 0.603440 0.073372
C51   C     C_R   0.371218 0.586192 0.524968 0.026063
C52   C     C_R   0.465579 0.590384 0.436711 -0.244970
H34   H     H_    0.452862 0.596256 0.374353 0.132513
C53   C     C_R   0.576536 0.574721 0.423007 0.075984
C54   C     C_R   0.593814 0.559520 0.500742 0.016807
C55   C     C_R   0.242225 0.466166 0.446495 -0.165289
H35   H     H_    0.315625 0.407227 0.377802 0.124408
C56   C     C_R   0.132273 0.428303 0.466810 -0.152911
H36   H     H_    0.121280 0.342880 0.412142 0.113688
C57   C     C_R   0.037432 0.497689 0.561136 -0.135575
H37   H     H_    0.953036 0.465634 0.579867 0.131699
C58   C     C_R   0.051240 0.608559 0.631273 -0.119290
H38   H     H_    0.977252 0.661048 0.703963 0.134383
C59   C     C_R   0.161449 0.646522 0.612239 -0.127248
H39   H     H_    0.172640 0.726873 0.673049 0.119248
C60   C     C_R   0.257952 0.572121 0.523111 0.104291
C61   C     C_2   0.474661 0.394405 0.947988 -0.137424
H40   H     H_    0.477276 0.348538 0.990268 0.162771
C62   C     C_2   0.567747 0.437945 0.897109 -0.221377
H41   H     H_    0.566233 0.480425 0.851724 0.128690
C63   C     C_2   0.823903 0.956445 0.109773 -0.195706
H42   H     H_    0.757605 0.959352 0.086599 0.139109
C64   C     C_2   0.823876 0.046059 0.199324 -0.165602
H43   H     H_    0.885725 0.049177 0.229393 0.128608
N17   N     N_R   0.426447 0.052844 0.004176 0.226728
O1    O     O_R   0.519158 0.988008 0.923350 -0.449214
O2    O     O_R   0.388555 0.135428 0.998079 -0.448271

loop_
_geom_bond_atom_site_label_1
_geom_bond_atom_site_label_2
_geom_bond_distance
_ccdc_geom_bond_type
C25   C30   1.408311 A    
C6    C12   1.378312 A    
C28   C29   1.396011 A    
C41   H27   1.083505 S    
C26   C27   1.402654 A    
C44   H30   1.083331 S    
C49   H33   1.085991 S    
C45   C46   1.400181 A    
C17   H13   1.077623 S    
C15   H11   1.063172 S    
C14   C22   1.393479 A    
N17   O1    1.300999 A    
C38   H24   1.079554 S    
C3    H3    1.082327 S    
C19   N15   1.339638 A    
C35   C36   1.413324 A    
C61   H40   1.083272 S    
N8    Ni3   1.820145 S    
C52   C53   1.395548 A    
C64   H43   1.084347 S    
C33   C42   1.465421 S    
C15   N11   1.321271 A    
N2    Ni2   1.878618 S    
C55   C56   1.394746 A    
C16   H12   1.079698 S    
C43   C44   1.393413 A    
C18   C23   1.378529 A    
C30   N17   1.439340 S    
C58   H38   1.078931 S    
C3    C11   1.379918 A    
C15   C23   1.375298 A    
C1    H1    1.078684 S    
C32   C33   1.417951 A    
C25   C26   1.399357 A    
C7    C10   1.375456 A    
N6    Ni1   1.877814 S    
N12   N13   1.387505 A    
C39   H25   1.077719 S    
C61   C62   1.336760 D    
C6    H6    1.073390 S    
C58   C59   1.399634 A    
C8    C9    1.389094 A    
C46   C47   1.393052 A    
C20   N16   1.333602 A    
C53   C54   1.417150 A    
N3    Ni3   1.875307 S    
C43   C48   1.394374 A    
N16   Ni3   1.820897 S    
C51   C60   1.474483 S    
C49   C54   1.364292 A    
C28   H19   1.082615 S    
C49   C50   1.388675 A    
C5    H5    1.079958 S    
C1    C9    1.390739 A    
C17   N13   1.341243 A    
N1    N8    1.387507 A    
N9    N15   1.379019 A    
H28   C48   1.078936 S    
C51   C52   1.389883 A    
C38   C39   1.401025 A    
C11   C62   1.445323 S    
C18   N14   1.325121 A    
C40   C41   1.393218 A    
C33   C34   1.385555 A    
C20   C22   1.397305 A    
N5    Ni2   1.837080 S    
C2    N2    1.336590 A    
C4    H4    1.073642 S    
C43   H29   1.080215 S    
C31   C32   1.405924 A    
C29   H20   1.082702 S    
N12   Ni4   1.820145 S    
C40   H26   1.081360 S    
N2    N7    1.387520 A    
C26   H18   1.083199 S    
C1    N1    1.345680 A    
C14   N10   1.328403 A    
C34   H22   1.080325 S    
C13   H9    1.077665 S    
C19   C21   1.387299 A    
N13   Ni2   1.836024 S    
C19   H15   1.078580 S    
C5    N5    1.323706 A    
C46   H31   1.082870 S    
C20   H16   1.073618 S    
C56   C57   1.396908 A    
N9    Ni1   1.837080 S    
C12   C35   1.477023 S    
C34   C35   1.395481 A    
N4    Ni4   1.820897 S    
C4    N4    1.332570 A    
C21   C61   1.444346 S    
C16   C24   1.387986 A    
C6    N6    1.332518 A    
C39   C40   1.394022 A    
C13   C21   1.381671 A    
N10   Ni2   1.877815 S    
C47   C48   1.400330 A    
C41   C42   1.404432 A    
C8    N8    1.344120 A    
C18   H14   1.081985 S    
C55   C60   1.405846 A    
C63   C64   1.335275 D    
C57   H37   1.082144 S    
C4    C12   1.389859 A    
C3    N3    1.341468 A    
C27   C36   1.478226 S    
C56   H36   1.080498 S    
C7    N7    1.323448 A    
N10   N16   1.379024 A    
C17   C24   1.389483 A    
C2    H2    1.080629 S    
N17   O2    1.301575 A    
C10   C53   1.446797 S    
N7    Ni4   1.875783 S    
C2    C10   1.387367 A    
N15   Ni4   1.875306 S    
C52   H34   1.084878 S    
C37   C38   1.396062 A    
C23   C50   1.445094 S    
C14   H10   1.064952 S    
C7    H7    1.075830 S    
C59   C60   1.404994 A    
N3    N5    1.379020 A    
C31   H21   1.080456 S    
C13   N9    1.324024 A    
C59   H39   1.081925 S    
C16   N12   1.342756 A    
N1    Ni1   1.836024 S    
C44   C45   1.404510 A    
N14   Ni1   1.878619 S    
C27   C28   1.403377 A    
C25   H17   1.082547 S    
C9    C63   1.477886 S    
C37   C42   1.400199 A    
C45   C54   1.471587 S    
C37   H23   1.083025 S    
N11   Ni3   1.875782 S    
C29   C30   1.405849 A    
C47   H32   1.080791 S    
N4    N6    1.379023 A    
C50   C51   1.419411 A    
C62   H41   1.083819 S    
C8    H8    1.076633 S    
C5    C11   1.373639 A    
N11   N14   1.387521 A    
C55   H35   1.083536 S    
C31   C36   1.393169 A    
C22   C32   1.482295 S    
C63   H42   1.083877 S    
C57   C58   1.395826 A    
