data_mof_unit_27840.cif
_audit_creation_date              2012-12-10T17:15:42-0500
_audit_creation_method            fapswitch 2.2
_symmetry_space_group_name_H-M    P1
_symmetry_Int_Tables_number       1
_space_group_crystal_system       triclinic
_cell_length_a                    17.229245
_cell_length_b                    12.97507
_cell_length_c                    11.80081
_cell_angle_alpha                 100.031732
_cell_angle_beta                  88.60274
_cell_angle_gamma                 92.580828
_cell_volume                      2594.74461791

loop_
_atom_site_label
_atom_site_type_symbol
_atom_type_description
_atom_site_fract_x
_atom_site_fract_y
_atom_site_fract_z
_atom_type_partial_charge
C1    C     C_R   0.495788 0.299619 0.478915 0.879250
C2    C     C_R   0.502385 0.700656 0.521461 0.824468
C3    C     C_R   0.504350 0.814874 0.534586 -0.250635
C4    C     C_R   0.486914 0.186070 0.467625 -0.255260
C5    C     C_R   0.427063 0.018433 0.382190 0.474369
C6    C     C_R   0.558211 0.984884 0.622004 0.314604
C7    C     C_R   0.429391 0.128096 0.397358 0.244516
C8    C     C_R   0.556556 0.875275 0.610960 0.319908
C9    C     C_R   0.538271 0.135372 0.526382 0.439916
C10   C     C_R   0.454040 0.863080 0.469476 0.405784
C11   C     C_R   0.522501 0.029991 0.536350 -0.248107
C12   C     C_R   0.468213 0.969105 0.460125 -0.176406
C13   C     C_R   0.423366 0.398383 0.034332 0.275962
C14   C     C_R   0.566982 0.608393 0.968986 0.279092
C15   C     C_R   0.429145 0.415576 0.156199 0.447102
C16   C     C_R   0.564162 0.592822 0.846956 0.486435
C17   C     C_R   0.535449 0.536909 0.149511 0.580989
C18   C     C_R   0.471656 0.451177 0.846370 0.569768
C19   C     C_R   0.525142 0.536473 0.029940 -0.235732
C20   C     C_R   0.472906 0.460499 0.969172 -0.236200
C21   C     C_R   0.350690 0.503072 0.516158 0.883613
C22   C     C_R   0.649155 0.498485 0.483839 0.888886
C23   C     C_R   0.265847 0.512122 0.525986 -0.175771
C24   C     C_R   0.733695 0.490873 0.472624 -0.304837
C25   C     C_R   0.228100 0.565466 0.449874 0.235952
C26   C     C_R   0.769755 0.419571 0.529653 0.276601
C27   C     C_R   0.146269 0.567005 0.452006 0.308704
C28   C     C_R   0.851174 0.411196 0.520734 0.341981
C29   C     C_R   0.103936 0.523801 0.536591 -0.103009
C30   C     C_R   0.894151 0.466922 0.446997 -0.239501
C31   C     C_R   0.141367 0.477269 0.617829 0.276759
C32   C     C_R   0.857372 0.534523 0.385002 0.376821
C33   C     C_R   0.222749 0.466023 0.608378 0.248751
C34   C     C_R   0.777953 0.549924 0.401969 0.374239
C35   C     C_2   0.018261 0.522995 0.536405 0.552671
C36   C     C_2   0.979599 0.464516 0.448243 0.444842
Cu1   Cu    Cu3+1 0.505800 0.507690 0.615350 1.092260
Cu2   Cu    Cu3+1 0.494200 0.492310 0.384650 1.048165
N1    N     N_R   0.514530 0.519260 0.788680 -0.281360
N2    N     N_R   0.485470 0.480740 0.211320 -0.270762
O1    O     O_R   0.504120 0.354440 0.581590 -0.521677
O2    O     O_R   0.495880 0.645560 0.418410 -0.602660
O3    O     O_R   0.494320 0.341440 0.386760 -0.548042
O4    O     O_R   0.505680 0.658560 0.613240 -0.494908
O5    O     O_R   0.391870 0.507230 0.608700 -0.607412
O6    O     O_R   0.608130 0.492770 0.391300 -0.597733
O7    O     O_R   0.382070 0.494240 0.413880 -0.519691
O8    O     O_R   0.617930 0.505760 0.586120 -0.484124
O9    O     O_3   0.272462 0.615605 0.375049 -0.692498
H1    H     H_    0.244371 0.676259 0.358903 0.373834
O10   O     O_3   0.723829 0.358076 0.591329 -0.647334
H2    H     H_    0.750330 0.292416 0.593961 0.356808
O11   O     O_3   0.611910 0.649840 0.783578 -0.596274
H3    H     H_    0.662184 0.664755 0.823378 0.355631
O12   O     O_3   0.379545 0.363976 0.221493 -0.641843
H4    H     H_    0.327720 0.392169 0.213781 0.364223
S1    S     S_3+6 0.352444 0.301323 0.969489 0.100588
O13   O     O_2   0.298795 0.351486 0.898741 -0.218661
O14   O     O_2   0.392880 0.214568 0.892428 -0.180669
O15   O     O_3   0.297042 0.246211 0.064010 -0.467900
H5    H     H_    0.327819 0.188980 0.082682 0.410274
S2    S     S_3+6 0.611822 0.728020 0.041597 0.078677
O16   O     O_2   0.567190 0.769266 0.149789 -0.227575
O17   O     O_2   0.693536 0.708058 0.071290 -0.208479
O18   O     O_3   0.614483 0.820279 0.957501 -0.461097
H6    H     H_    0.648960 0.877600 0.997593 0.385294
O19   O     O_3   0.746245 0.625363 0.349938 -0.583951
H7    H     H_    0.700191 0.652478 0.395382 0.313642
O20   O     O_3   0.260863 0.406364 0.673734 -0.693858
H8    H     H_    0.224300 0.350669 0.693085 0.376613
O21   O     O_3   0.019625 0.402949 0.360469 -0.705987
H9    H     H_    0.981045 0.365941 0.305001 0.348817
O22   O     O_3   0.977593 0.581649 0.625764 -0.699770
H10   H     H_    0.015803 0.621226 0.680098 0.353022
O23   O     O_3   0.096698 0.441218 0.702772 -0.662859
H11   H     H_    0.129498 0.441609 0.770620 0.362660
O24   O     O_3   0.897408 0.592361 0.312711 -0.605121
H12   H     H_    0.950958 0.568224 0.298897 0.358058
O25   O     O_3   0.890796 0.351538 0.584707 -0.656428
H13   H     H_    0.862030 0.349815 0.658091 0.360843
O26   O     O_3   0.105923 0.609648 0.372770 -0.697442
H14   H     H_    0.135972 0.601103 0.299346 0.363829
O27   O     O_3   0.387832 0.810080 0.422809 -0.616704
H15   H     H_    0.372295 0.754462 0.467574 0.334889
O28   O     O_3   0.605603 0.189395 0.567056 -0.627823
H16   H     H_    0.647277 0.138433 0.561279 0.347832
O29   O     O_3   0.603902 0.825107 0.674941 -0.618481
H17   H     H_    0.648730 0.872471 0.702462 0.378357
O30   O     O_3   0.374961 0.175868 0.342262 -0.602901
H18   H     H_    0.365460 0.245873 0.387838 0.343210
S3    S     S_3+6 0.375229 0.948132 0.261793 0.135854
O31   O     O_2   0.414601 0.848649 0.212911 -0.197598
O32   O     O_2   0.293719 0.922534 0.299526 -0.214018
O33   O     O_3   0.371757 0.020991 0.157442 -0.468458
H19   H     H_    0.339525 0.978327 0.096703 0.383415
S4    S     S_3+6 0.588857 0.061706 0.755267 0.060635
O34   O     O_2   0.675597 0.080152 0.752860 -0.292856
O35   O     O_2   0.550316 0.165162 0.777915 -0.174971
O36   O     O_3   0.564212 0.996558 0.862942 -0.455200
H20   H     H_    0.580513 0.044350 0.934005 0.385886
O37   O     O_3   0.433884 0.365668 0.784392 -0.594495
H21   H     H_    0.404657 0.389496 0.724500 0.384799
O38   O     O_3   0.602096 0.584128 0.198864 -0.613576
H22   H     H_    0.588363 0.619512 0.276578 0.368553

loop_
_geom_bond_atom_site_label_1
_geom_bond_atom_site_label_2
_ccdc_geom_bond_type
C22   O8    A    
O29   H17   S    
O37   H21   S    
C27   C29   A    
O22   H10   S    
C35   C36   D    
O12   H4    S    
O26   H14   S    
O11   H3    S    
S2    O16   D    
C24   C26   A    
Cu2   O2    S    
O28   H16   S    
S1    O14   D    
C13   S1    S    
C7    O30   S    
S4    O36   S    
C10   O27   S    
C28   O25   S    
C18   N1    A    
C16   O11   S    
S2    O17   D    
C9    O28   S    
C32   O24   S    
C1    O3    A    
O27   H15   S    
C2    O4    A    
C23   C33   A    
S4    O35   D    
C31   C33   A    
C30   C32   A    
C18   C20   A    
S2    O18   S    
C36   O21   S    
C33   O20   S    
O33   H19   S    
C4    C7    A    
C21   O5    A    
O10   H2    S    
C27   O26   S    
C5    C12   A    
C3    C8    A    
S3    O31   D    
C5    C7    A    
S1    O15   S    
C6    C8    A    
O24   H12   S    
C24   C34   A    
O19   H7    S    
O15   H5    S    
C17   N2    A    
C15   O12   S    
O23   H11   S    
Cu1   Cu2   S    
S3    O32   D    
C31   O23   S    
O36   H20   S    
S4    O34   D    
Cu1   O8    S    
C9    C11   A    
Cu2   O7    S    
C5    S3    S    
C10   C12   A    
C1    O1    A    
C22   O6    A    
O9    H1    S    
C6    S4    S    
C13   C15   A    
C14   C16   A    
Cu1   O5    S    
O30   H18   S    
C6    C11   A    
C35   O22   S    
C13   C20   A    
C14   C19   A    
C34   O19   S    
C19   C20   A    
C11   C12   A    
C25   C27   A    
C29   C35   S    
C26   C28   A    
C30   C36   S    
C1    C4    S    
C8    O29   S    
Cu1   O4    S    
C21   C23   S    
C2    C3    S    
C17   O38   S    
Cu2   O3    S    
C29   C31   A    
C3    C10   A    
C26   O10   S    
S3    O33   S    
Cu2   N2    S    
S1    O13   D    
C2    O2    A    
C28   C30   A    
C17   C19   A    
C22   C24   S    
C23   C25   A    
Cu1   O1    S    
O20   H8    S    
C25   O9    S    
C15   N2    A    
Cu2   O6    S    
C16   N1    A    
O25   H13   S    
O21   H9    S    
Cu1   N1    S    
O18   H6    S    
O38   H22   S    
C4    C9    A    
C18   O37   S    
C32   C34   A    
C21   O7    A    
C14   S2    S    
