data_mof_unit_17191.cif
_audit_creation_date              2012-12-11T16:26:24-0500
_audit_creation_method            fapswitch 2.2
_symmetry_space_group_name_H-M    P1
_symmetry_Int_Tables_number       1
_space_group_crystal_system       triclinic
_cell_length_a                    6.93848
_cell_length_b                    17.519179
_cell_length_c                    19.464316
_cell_angle_alpha                 108.591742
_cell_angle_beta                  89.595664
_cell_angle_gamma                 90.571364
_cell_volume                      2242.41142622

loop_
_atom_site_label
_atom_site_type_symbol
_atom_type_description
_atom_site_fract_x
_atom_site_fract_y
_atom_site_fract_z
_atom_type_partial_charge
O1    O     O_R   0.494330 0.415720 0.413720 -0.542749
O2    O     O_R   0.819330 0.430070 0.560210 -0.547613
O3    O     O_R   0.994320 0.584280 0.586280 -0.519754
C1    C     C_R   0.650236 0.415352 0.582137 0.694000
O4    O     O_R   0.823730 0.406300 0.412670 -0.542376
O5    O     O_R   0.998760 0.560340 0.437690 -0.531600
C2    C     C_R   0.654944 0.383443 0.385060 0.685279
O6    O     O_R   0.489890 0.439660 0.562310 -0.549222
O7    O     O_3   0.662340 0.550560 0.508380 -0.357612
V1    V     V_3+5 0.935370 0.490620 0.498450 1.452166
O8    O     O_R   0.328750 0.569930 0.439790 -0.542041
C3    C     C_R   0.160807 0.584622 0.417797 0.807469
O9    O     O_R   0.324340 0.593700 0.587330 -0.539914
C4    C     C_R   0.155382 0.617220 0.614508 0.827458
V2    V     V_3+5 0.435940 0.509380 0.501550 1.444421
O10   O     O_3   0.159100 0.449440 0.491620 -0.383536
H1    H     H_    0.929316 0.865759 0.570013 0.144028
C5    C     C_R   0.262442 0.598345 0.750808 -0.154007
C6    C     C_R   0.313772 0.586658 0.815785 -0.114316
C7    C     C_R   0.302193 0.649852 0.880519 -0.118137
C8    C     C_R   0.238913 0.725165 0.880770 -0.136944
C9    C     C_R   0.186661 0.739000 0.815574 0.079568
C10   C     C_R   0.198967 0.674388 0.749158 0.051547
C11   C     C_R   0.119885 0.815306 0.816055 -0.150952
C12   C     C_R   0.066372 0.827366 0.750116 0.009451
C13   C     C_R   0.080165 0.763119 0.683150 -0.041661
C14   C     C_R   0.145658 0.686163 0.682952 -0.188449
C15   C     C_R   0.002119 0.903657 0.749587 -0.152185
C16   C     C_R   0.952072 0.916721 0.685247 -0.227457
C17   C     C_R   0.966587 0.854790 0.619961 -0.160738
C18   C     C_R   0.030558 0.778975 0.618156 0.593635
H2    H     H_    0.272466 0.546905 0.702143 0.095015
H3    H     H_    0.362072 0.528108 0.815887 0.115478
H4    H     H_    0.341489 0.640406 0.930918 0.114046
H5    H     H_    0.230314 0.772082 0.932686 0.096352
H6    H     H_    0.990758 0.954391 0.798764 0.123557
H7    H     H_    0.903270 0.975514 0.686018 0.146059
C19   C     C_R   0.307778 0.633492 0.321053 -0.239493
C20   C     C_R   0.153237 0.634005 0.368477 -0.078367
C21   C     C_R   0.990346 0.681110 0.367896 -0.172505
C22   C     C_R   0.982155 0.728034 0.321395 0.068633
C23   C     C_R   0.136693 0.726399 0.273406 0.051895
C24   C     C_R   0.299496 0.678536 0.272940 0.095100
C25   C     C_R   0.822221 0.776719 0.322074 -0.185349
C26   C     C_R   0.814150 0.822650 0.275035 -0.180551
C27   C     C_R   0.965574 0.820560 0.226274 0.087833
C28   C     C_R   0.128339 0.772664 0.225766 0.054132
C29   C     C_R   0.282832 0.771007 0.177747 0.090522
C30   C     C_R   0.442749 0.722305 0.177066 -0.194262
C31   C     C_R   0.450879 0.676418 0.224152 -0.182255
C32   C     C_R   0.957380 0.865700 0.178253 -0.218677
C33   C     C_R   0.111892 0.865206 0.130825 -0.084388
C34   C     C_R   0.274613 0.817950 0.131245 -0.231171
H8    H     H_    0.433102 0.596862 0.320680 0.120985
H9    H     H_    0.870940 0.682143 0.404414 0.156743
H10   H     H_    0.702579 0.778929 0.358733 0.139351
H11   H     H_    0.688575 0.859430 0.276463 0.134728
H12   H     H_    0.832132 0.902402 0.178713 0.124112
H13   H     H_    0.393859 0.816868 0.094643 0.126730
H14   H     H_    0.562370 0.720074 0.140394 0.133420
H15   H     H_    0.576473 0.639655 0.222742 0.132778
C35   C     C_R   0.784157 0.181783 0.866220 -0.234390
C36   C     C_R   0.622814 0.133115 0.867842 -0.083096
C37   C     C_R   0.466313 0.131094 0.821552 -0.211736
C38   C     C_R   0.470073 0.176728 0.773973 0.086454
C39   C     C_R   0.630806 0.226491 0.773535 0.051206
C40   C     C_R   0.788065 0.229258 0.820027 0.092562
C41   C     C_R   0.315752 0.173546 0.726843 -0.182465
C42   C     C_R   0.319135 0.220206 0.680331 -0.187659
C43   C     C_R   0.476959 0.270834 0.680055 0.091767
C44   C     C_R   0.634210 0.273601 0.726551 0.051212
C45   C     C_R   0.794965 0.323352 0.726104 0.087496
C46   C     C_R   0.949295 0.326522 0.773226 -0.184888
C47   C     C_R   0.945906 0.279868 0.819738 -0.188908
C48   C     C_R   0.480878 0.318315 0.633865 -0.234000
C49   C     C_R   0.642241 0.366980 0.632245 -0.079536
C50   C     C_R   0.798761 0.368976 0.678520 -0.214356
H16   H     H_    0.904783 0.183939 0.901925 0.124999
H17   H     H_    0.342058 0.093189 0.821979 0.124539
H18   H     H_    0.191570 0.135333 0.726299 0.132949
H19   H     H_    0.197606 0.217006 0.644827 0.133305
H20   H     H_    0.360251 0.316161 0.598160 0.124057
H21   H     H_    0.923058 0.406861 0.678081 0.121346
H22   H     H_    0.073493 0.364723 0.773763 0.131620
H23   H     H_    0.067459 0.283053 0.855230 0.132836
H24   H     H_    0.351762 0.148483 0.428407 0.114638
C51   C     C_R   0.800866 0.398165 0.250104 -0.149200
C52   C     C_R   0.871221 0.407413 0.185990 -0.125832
C53   C     C_R   0.859182 0.343977 0.121424 -0.118488
C54   C     C_R   0.776721 0.270808 0.120479 -0.131895
C55   C     C_R   0.705798 0.259237 0.184875 0.069838
C56   C     C_R   0.718133 0.324267 0.251081 0.069725
C57   C     C_R   0.619988 0.185011 0.183802 -0.185965
C58   C     C_R   0.546455 0.175843 0.248965 0.068048
C59   C     C_R   0.558796 0.240872 0.315171 0.070188
C60   C     C_R   0.644638 0.315092 0.316245 -0.183864
C61   C     C_R   0.463696 0.101950 0.249943 -0.145700
C62   C     C_R   0.393323 0.092706 0.314057 -0.122649
C63   C     C_R   0.405373 0.156142 0.378622 -0.119499
C64   C     C_R   0.487861 0.229305 0.379567 -0.133182
H25   H     H_    0.810980 0.449859 0.298557 0.103610
H26   H     H_    0.934219 0.464347 0.186371 0.116403
H27   H     H_    0.912781 0.351639 0.071639 0.113270
H28   H     H_    0.767890 0.223906 0.068582 0.102350
H29   H     H_    0.453570 0.050256 0.201490 0.110709
H30   H     H_    0.330303 0.035778 0.313675 0.119928
H31   H     H_    0.496696 0.276206 0.431464 0.102502
O11   O     O_R   0.775200 0.060470 0.937800 -0.544374
O12   O     O_R   0.441110 0.093720 0.087350 -0.537325
O13   O     O_R   0.266330 0.939630 0.062280 -0.544553
C65   C     C_R   0.609838 0.116637 0.114997 0.696977
O14   O     O_R   0.445750 0.069950 0.939820 -0.542490
O15   O     O_R   0.271000 0.915700 0.913700 -0.536430
C66   C     C_R   0.614842 0.084729 0.917938 0.706595
O16   O     O_R   0.770530 0.084400 0.086380 -0.536846
O17   O     O_3   0.602830 0.949510 0.991680 -0.368524
V3    V     V_3+5 0.329710 0.009370 0.001550 1.412571
O18   O     O_R   0.940990 0.906170 0.912570 -0.537721
C67   C     C_R   0.109953 0.883193 0.885189 0.693843
O19   O     O_R   0.936350 0.929940 0.060100 -0.541762
C68   C     C_R   0.104373 0.914775 0.081677 0.703914
V4    V     V_3+5 0.829160 0.990450 0.998310 1.413068
O20   O     O_3   0.105910 0.050480 0.008320 -0.368769
F1    F     F_    0.046339 0.722739 0.551932 -0.726635

loop_
_geom_bond_atom_site_label_1
_geom_bond_atom_site_label_2
_ccdc_geom_bond_type
C41   H18   S    
C51   C52   A    
C22   C23   A    
C57   C58   A    
C46   C47   A    
C59   C60   A    
C1    O6    A    
O14   C66   A    
C61   C62   A    
C34   H13   S    
O12   V3    S    
C26   C27   A    
O19   C68   A    
C12   C15   A    
C2    C60   S    
C26   H11   S    
C13   C14   A    
C35   C36   A    
C30   H14   S    
O17   V4    S    
C35   C40   A    
C8    C9    A    
C15   C16   A    
C18   F1    S    
O12   C65   A    
O13   C68   A    
O5    C3    A    
C17   C18   A    
C50   H21   S    
V2    O10   S    
C56   C60   A    
O17   V3    S    
C5    C6    A    
O18   V4    S    
O11   C66   A    
O18   C67   A    
C45   C50   A    
C51   H25   S    
C36   C66   S    
O8    V2    S    
C39   C44   A    
C41   C42   A    
C11   C67   S    
C43   C44   A    
O1    V2    S    
C10   C14   A    
C4    C14   S    
O7    V1    S    
C46   H22   S    
C61   H29   S    
C52   C53   A    
C38   C41   A    
C39   C40   A    
C13   C18   A    
O16   V4    S    
O15   C67   A    
O9    C4    A    
C53   H27   S    
H1    C17   S    
C42   C43   A    
O13   V3    S    
O19   V4    S    
C29   C34   A    
C32   C33   A    
C19   C20   A    
C49   C50   A    
C6    H3    S    
C20   C21   A    
C40   C47   A    
C59   C64   A    
C58   C61   A    
C12   C13   A    
C27   C32   A    
C5    C10   A    
O2    C1    A    
C48   C49   A    
C16   C17   A    
C55   C57   A    
C33   C68   S    
C25   H10   S    
C28   C29   A    
C19   H8    S    
C21   H9    S    
C24   C31   A    
C32   H12   S    
C11   C12   A    
H24   C63   S    
C54   H28   S    
O3    C4    A    
C57   C65   S    
O15   V3    S    
C21   C22   A    
C62   C63   A    
O6    V2    S    
O9    V2    S    
C37   H17   S    
C9    C11   A    
C5    H2    S    
C23   C24   A    
O2    V1    S    
C55   C56   A    
C33   C34   A    
O4    C2    A    
C27   C28   A    
C29   C30   A    
C64   H31   S    
O1    C2    A    
C35   H16   S    
C25   C26   A    
O11   V4    S    
C45   C46   A    
O5    V1    S    
C52   H26   S    
O8    C3    A    
C48   H20   S    
C8    H5    S    
C62   H30   S    
C63   C64   A    
C37   C38   A    
C6    C7    A    
V3    O20   S    
C7    H4    S    
O4    V1    S    
O3    V1    S    
V1    O10   S    
C54   C55   A    
O14   V3    S    
C3    C20   S    
C22   C25   A    
C23   C28   A    
C38   C39   A    
C47   H23   S    
O7    V2    S    
C58   C59   A    
C1    C49   S    
C42   H19   S    
C36   C37   A    
C19   C24   A    
C44   C45   A    
C7    C8    A    
C15   H6    S    
C30   C31   A    
C16   H7    S    
C43   C48   A    
V4    O20   S    
C31   H15   S    
C9    C10   A    
C65   O16   A    
C53   C54   A    
C51   C56   A    
