data_mof_unit_68301.cif
_audit_creation_date              2012-12-11T19:51:51-0500
_audit_creation_method            fapswitch 2.2
_symmetry_space_group_name_H-M    P1
_symmetry_Int_Tables_number       1
_space_group_crystal_system       triclinic
_cell_length_a                    17.092106
_cell_length_b                    27.931155
_cell_length_c                    8.850353
_cell_angle_alpha                 89.886948
_cell_angle_beta                  106.17965
_cell_angle_gamma                 90.058751
_cell_volume                      4057.82229678

loop_
_atom_site_label
_atom_site_type_symbol
_atom_type_description
_atom_site_fract_x
_atom_site_fract_y
_atom_site_fract_z
_atom_type_partial_charge
Ba1   Ba    Ba6+2 0.000400 0.534870 0.845190 1.723787
Ba2   Ba    Ba6+2 0.000400 0.465130 0.345190 1.718799
Ba3   Ba    Ba6+2 0.500400 0.034870 0.845190 1.724131
Ba4   Ba    Ba6+2 0.500400 0.965130 0.345190 1.717337
C1    C     C_3   0.945134 0.760130 0.645290 0.173594
C2    C     C_2   0.764178 0.646643 0.424156 -0.237258
C3    C     C_3   0.520558 0.776903 0.794896 -0.452471
C4    C     C_3   0.003010 0.811045 0.029774 -0.343193
C5    C     C_3   0.999258 0.186974 0.531130 -0.448840
C6    C     C_3   0.512027 0.310656 0.028057 -0.354966
C7    C     C_3   0.501126 0.687273 0.527826 -0.448708
C8    C     C_3   0.752887 0.528359 0.190519 -0.233399
C9    C     C_3   0.754818 0.471393 0.691044 -0.235111
C10   C     C_3   0.253984 0.028276 0.191038 -0.227751
C11   C     C_3   0.256409 0.971273 0.690830 -0.241257
C12   C     C_3   0.791096 0.559612 0.969036 -0.220776
C13   C     C_2   0.265593 0.852634 0.927489 -0.250146
C14   C     C_3   0.791246 0.439719 0.468073 -0.211880
C15   C     C_3   0.292504 0.059320 0.969979 -0.229496
C16   C     C_3   0.288823 0.938646 0.465530 -0.213281
C17   C     C_2   0.264144 0.146591 0.423633 -0.238836
C18   C     C_2   0.825836 0.386251 0.929297 0.090742
C19   C     C_2   0.825680 0.613508 0.427585 0.078378
C20   C     C_2   0.326366 0.886193 0.929510 0.090336
C21   C     C_2   0.325765 0.113499 0.427326 0.077610
C22   C     C_2   0.860343 0.341181 0.711945 -0.092510
C23   C     C_2   0.859359 0.658512 0.209065 -0.091611
C24   C     C_2   0.361765 0.840726 0.713788 -0.094631
C25   C     C_3   0.947862 0.238685 0.149902 0.170762
C26   C     C_2   0.359118 0.158432 0.208273 -0.092094
C27   C     C_3   0.787148 0.312877 0.697473 -0.020872
C28   C     C_3   0.785913 0.686645 0.194698 -0.045132
C29   C     C_3   0.288828 0.812260 0.699968 -0.030141
C30   C     C_3   0.285751 0.186612 0.193998 -0.048249
C31   C     C_3   0.761103 0.308979 0.841738 0.090670
C32   C     C_3   0.761616 0.690767 0.340793 0.110387
C33   C     C_3   0.263113 0.808434 0.844459 0.092353
C34   C     C_3   0.261500 0.190705 0.340168 0.119531
C35   C     C_2   0.785030 0.265448 0.609925 -0.063949
C36   C     C_3   0.443487 0.259280 0.647610 0.174992
C37   C     C_2   0.784528 0.734305 0.108560 -0.059728
C38   C     C_2   0.286597 0.764897 0.612153 -0.060189
C39   C     C_2   0.284716 0.234367 0.108513 -0.057170
C40   C     C_2   0.238129 0.728092 0.623444 -0.058341
C41   C     C_2   0.237403 0.271391 0.121793 -0.050661
C42   C     C_2   0.737055 0.228454 0.621982 -0.060526
C43   C     C_2   0.737902 0.771563 0.123044 -0.048684
C44   C     C_R   0.268133 0.679181 0.396841 -0.078116
C45   C     C_R   0.268034 0.320711 0.896395 -0.049942
C46   C     C_R   0.767672 0.179377 0.396299 -0.082453
C47   C     C_3   0.447241 0.738967 0.148923 0.172460
C48   C     C_R   0.767909 0.820653 0.896610 -0.053208
C49   C     C_R   0.224325 0.685532 0.517155 -0.049628
C50   C     C_R   0.224390 0.314360 0.017091 -0.043168
C51   C     C_R   0.723913 0.185660 0.516742 -0.046472
C52   C     C_R   0.724514 0.814389 0.017692 -0.043228
C53   C     C_3   0.032060 0.722943 0.124065 0.704057
C54   C     C_3   0.031800 0.275647 0.629559 0.688251
C55   C     C_3   0.532046 0.222703 0.127967 0.701955
C56   C     C_3   0.532494 0.775802 0.627976 0.692786
C57   C     C_R   0.250490 0.637835 0.287279 0.391790
C58   C     C_R   0.149132 0.610400 0.418431 -0.425731
C59   C     C_R   0.250221 0.362019 0.786247 0.378953
C60   C     C_R   0.750437 0.137901 0.287251 0.394445
C61   C     C_R   0.750012 0.861915 0.786293 0.378455
C62   C     C_R   0.192039 0.606022 0.292928 0.061199
C63   C     C_R   0.191922 0.393807 0.792178 0.047654
C64   C     C_R   0.692657 0.105763 0.294027 0.069295
C65   C     C_R   0.691761 0.893744 0.792210 0.052899
C66   C     C_R   0.163996 0.648507 0.526458 -0.010124
C67   C     C_R   0.164093 0.351364 0.026364 0.004398
C68   C     C_R   0.664457 0.148259 0.527514 -0.007557
C69   C     C_R   0.148773 0.389227 0.917269 -0.426571
C70   C     C_R   0.664151 0.851364 0.026815 0.001610
C71   C     C_3   0.068075 0.772424 0.091793 0.372553
C72   C     C_3   0.065366 0.224479 0.605064 0.338882
C73   C     C_3   0.572686 0.269963 0.090960 0.375242
C74   C     C_3   0.566586 0.724900 0.603151 0.337582
C75   C     C_3   0.729702 0.528774 0.018101 0.258768
C76   C     C_3   0.730514 0.470904 0.518709 0.263761
C77   C     C_3   0.230551 0.028896 0.018732 0.254552
C78   C     C_3   0.230279 0.970898 0.518417 0.263549
C79   C     C_3   0.642109 0.555693 0.951314 0.349195
C80   C     C_R   0.650490 0.109779 0.420911 -0.431195
C81   C     C_3   0.643797 0.442367 0.454801 0.366646
C82   C     C_3   0.143273 0.056196 0.952215 0.348827
C83   C     C_3   0.142692 0.943091 0.455730 0.358470
C84   C     C_3   0.245507 0.471684 0.153480 0.448647
C85   C     C_3   0.246999 0.528461 0.651807 0.427586
C86   C     C_3   0.741455 0.970052 0.161812 0.451170
C87   C     C_3   0.748154 0.027547 0.646127 0.432337
C88   C     C_3   0.327492 0.444807 0.204867 0.657791
C89   C     C_3   0.326263 0.556438 0.720033 0.637001
C90   C     C_3   0.817450 0.939905 0.235117 0.650810
C91   C     C_R   0.648681 0.889159 0.917466 -0.423775
C92   C     C_3   0.828234 0.055154 0.708772 0.637824
C93   C     C_3   0.979007 0.709513 0.641029 0.397640
C94   C     C_3   0.981002 0.289768 0.146869 0.340271
C95   C     C_3   0.478114 0.208802 0.644446 0.403126
C96   C     C_3   0.480797 0.789840 0.146141 0.333170
C97   C     C_2   0.880188 0.376419 0.826778 0.172310
C98   C     C_2   0.879864 0.623431 0.324492 0.174934
C99   C     C_2   0.380986 0.876485 0.826957 0.171640
C100  C     C_2   0.379887 0.123460 0.324019 0.174103
C101  C     C_3   0.576034 0.539707 0.027596 -0.333070
C102  C     C_2   0.764379 0.353005 0.925982 -0.249234
C103  C     C_3   0.576596 0.457296 0.530113 -0.359641
C104  C     C_3   0.077468 0.041197 0.030475 -0.334524
C105  C     C_3   0.077629 0.956443 0.537694 -0.351006
C106  C     C_3   0.604973 0.548472 0.775807 -0.240647
C107  C     C_3   0.606080 0.448280 0.278715 -0.255843
C108  C     C_3   0.105487 0.048349 0.777369 -0.234688
C109  C     C_3   0.102925 0.951271 0.281042 -0.241667
C110  C     C_3   0.021027 0.724257 0.291768 -0.465158
C111  C     C_3   0.019374 0.277096 0.796419 -0.449645
C112  C     C_3   0.517369 0.227770 0.291929 -0.462674
H1    H     H_    0.962355 0.687598 0.731848 0.075249
H2    H     H_    0.198094 0.545521 0.693520 -0.042561
H3    H     H_    0.580398 0.839185 0.661740 0.278803
H4    H     H_    0.964334 0.743807 0.287624 0.148941
H5    H     H_    0.015891 0.687598 0.335550 0.034251
H6    H     H_    0.073001 0.741121 0.379574 0.114622
H7    H     H_    0.015743 0.314359 0.835943 0.036184
H8    H     H_    0.961758 0.258363 0.792609 0.141056
H9    H     H_    0.070249 0.260417 0.887155 0.110211
H10   H     H_    0.460816 0.248468 0.279454 0.148081
H11   H     H_    0.510051 0.192174 0.341162 0.042323
H12   H     H_    0.568683 0.245256 0.379488 0.117326
H13   H     H_    0.689461 0.955005 0.199013 -0.028081
H14   H     H_    0.516810 0.814052 0.835248 0.040759
H15   H     H_    0.463100 0.758130 0.790973 0.137945
H16   H     H_    0.571512 0.760028 0.884783 0.107682
H17   H     H_    0.171518 0.759647 0.047711 0.321540
H18   H     H_    0.099352 0.233527 0.412399 0.334249
H19   H     H_    0.673605 0.252019 0.044462 0.323988
H20   H     H_    0.600999 0.733647 0.411546 0.334494
H21   H     H_    0.985331 0.827684 0.129105 0.079109
H22   H     H_    0.027343 0.839348 0.966644 0.128097
H23   H     H_    0.946984 0.796970 0.946372 0.106824
H24   H     H_    0.700047 0.046072 0.686361 -0.046188
H25   H     H_    0.983538 0.166262 0.626041 0.119260
H26   H     H_    0.942276 0.202956 0.457175 0.124074
H27   H     H_    0.021857 0.161501 0.456118 0.142838
H28   H     H_    0.501398 0.331313 0.127296 0.082242
H29   H     H_    0.537006 0.335523 0.954502 0.130281
H30   H     H_    0.452211 0.297889 0.955006 0.106078
H31   H     H_    0.482133 0.667958 0.621556 0.120451
H32   H     H_    0.445819 0.703019 0.447189 0.122487
H33   H     H_    0.526106 0.660758 0.459739 0.142775
H34   H     H_    0.733891 0.561979 0.233314 0.013579
H35   H     H_    0.320397 0.410421 0.138586 -0.072323
H36   H     H_    0.721465 0.498684 0.225268 0.123872
H37   H     H_    0.819146 0.522045 0.237265 0.110336
H38   H     H_    0.724894 0.501775 0.726484 0.123142
H39   H     H_    0.735110 0.438157 0.734790 0.016438
H40   H     H_    0.821483 0.476757 0.735413 0.107793
H41   H     H_    0.234979 0.061863 0.233872 0.009893
H42   H     H_    0.222724 0.998584 0.225745 0.124483
H43   H     H_    0.320174 0.021685 0.237987 0.114095
H44   H     H_    0.228011 0.002045 0.727884 0.124930
H45   H     H_    0.235990 0.938288 0.734997 0.012309
H46   H     H_    0.314707 0.595190 0.693537 -0.041639
H47   H     H_    0.323507 0.975420 0.732626 0.106671
H48   H     H_    0.829157 0.580138 0.065894 0.052539
H49   H     H_    0.833150 0.538632 0.929959 0.165120
H50   H     H_    0.761344 0.585022 0.875103 0.173211
H51   H     H_    0.822978 0.416219 0.561972 0.047889
H52   H     H_    0.760906 0.416116 0.369717 0.171038
H53   H     H_    0.838243 0.459321 0.438634 0.167028
H54   H     H_    0.333817 0.078181 0.067503 0.057774
H55   H     H_    0.331425 0.037615 0.925400 0.165486
H56   H     H_    0.263265 0.085658 0.878711 0.175929
H57   H     H_    0.813661 0.906003 0.164394 -0.068806
H58   H     H_    0.305167 0.909097 0.549770 0.050600
H59   H     H_    0.256616 0.920156 0.355853 0.167998
H60   H     H_    0.346411 0.954257 0.460210 0.168419
H61   H     H_    0.817502 0.093566 0.675886 -0.047276
H62   H     H_    0.950510 0.693372 0.524706 -0.014210
H63   H     H_    0.952552 0.306190 0.030497 0.015443
H64   H     H_    0.447317 0.191723 0.530856 -0.011427
H65   H     H_    0.963617 0.311532 0.237455 0.082204
H66   H     H_    0.452459 0.806397 0.030129 0.015194
H67   H     H_    0.891810 0.758321 0.693386 0.069172
H68   H     H_    0.898134 0.239464 0.208048 0.064249
H69   H     H_    0.392124 0.257622 0.701311 0.071463
H70   H     H_    0.395701 0.740193 0.203237 0.064007
H71   H     H_    0.109075 0.786540 0.204276 0.010458
H72   H     H_    0.098516 0.209319 0.721850 0.094255
H73   H     H_    0.616113 0.283389 0.201811 0.008409
H74   H     H_    0.599191 0.709629 0.719588 0.092975
H75   H     H_    0.723726 0.358539 0.999637 0.114470
H76   H     H_    0.464732 0.187435 0.739735 0.079380
H77   H     H_    0.723444 0.641005 0.497751 0.134092
H78   H     H_    0.225233 0.857964 0.001781 0.117884
H79   H     H_    0.223367 0.140930 0.497133 0.135117
H80   H     H_    0.107107 0.582554 0.429087 0.113351
H81   H     H_    0.106669 0.416966 0.927642 0.112967
H82   H     H_    0.608398 0.081930 0.431393 0.113686
H83   H     H_    0.606604 0.916896 0.927954 0.112112
H84   H     H_    0.815380 0.262793 0.518857 0.118960
H85   H     H_    0.814140 0.736804 0.016307 0.122593
H86   H     H_    0.316981 0.762236 0.521146 0.118865
H87   H     H_    0.463729 0.811556 0.236840 0.083347
H88   H     H_    0.315311 0.237169 0.017799 0.120705
H89   H     H_    0.205979 0.730420 0.711726 0.153345
H90   H     H_    0.205294 0.268955 0.210018 0.145277
H91   H     H_    0.704905 0.230752 0.710276 0.153652
H92   H     H_    0.706449 0.769419 0.212439 0.144534
H93   H     H_    0.992180 0.783188 0.724787 0.106840
H94   H     H_    0.995979 0.214458 0.219760 0.043374
H95   H     H_    0.491161 0.283099 0.721710 0.099467
H96   H     H_    0.494795 0.714775 0.222657 0.043907
H97   H     H_    0.568493 0.500306 0.016944 0.102251
H98   H     H_    0.225222 0.473692 0.022282 -0.083725
H99   H     H_    0.590359 0.552246 0.150683 0.102345
H100  H     H_    0.516595 0.556081 0.965886 0.160968
H101  H     H_    0.565757 0.496351 0.515710 0.114789
H102  H     H_    0.518003 0.439317 0.470336 0.159440
H103  H     H_    0.591931 0.444802 0.653872 0.098289
H104  H     H_    0.069003 0.001832 0.021339 0.101838
H105  H     H_    0.092674 0.054250 0.153145 0.101813
H106  H     H_    0.018266 0.057910 0.969172 0.157235
H107  H     H_    0.063385 0.995125 0.521719 0.120699
H108  H     H_    0.020149 0.936763 0.484028 0.151924
H109  H     H_    0.231119 0.528243 0.520861 -0.080974
H110  H     H_    0.096659 0.944467 0.662031 0.097313
H111  H     H_    0.660990 0.614680 0.081351 0.297412
H112  H     H_    0.663236 0.383883 0.588342 0.299757
H113  H     H_    0.164910 0.115496 0.080588 0.296344
H114  H     H_    0.167483 0.883560 0.582954 0.298028
H115  H     H_    0.546555 0.568181 0.732000 0.156432
H116  H     H_    0.643966 0.561219 0.702783 0.096999
H117  H     H_    0.591306 0.510373 0.762652 0.074064
H118  H     H_    0.555007 0.422761 0.238538 0.111385
H119  H     H_    0.582578 0.484941 0.260362 0.091378
H120  H     H_    0.728778 0.969278 0.031739 -0.098593
H121  H     H_    0.646467 0.438858 0.205018 0.090018
H122  H     H_    0.047505 0.068504 0.733252 0.154275
H123  H     H_    0.144628 0.060144 0.703438 0.096828
H124  H     H_    0.090676 0.010340 0.766504 0.074799
H125  H     H_    0.051713 0.925534 0.237580 0.110825
H126  H     H_    0.079798 0.988631 0.268283 0.097307
H127  H     H_    0.141825 0.942471 0.203696 0.084174
H128  H     H_    0.432257 0.450396 0.162891 0.283073
H129  H     H_    0.404221 0.508646 0.690698 0.329771
H130  H     H_    0.928909 0.942351 0.225021 0.278282
H131  H     H_    0.731634 0.025594 0.515417 -0.084715
H132  H     H_    0.906743 0.006376 0.689793 0.326073
H133  H     H_    0.370560 0.464205 0.426940 0.336274
H134  H     H_    0.379167 0.578998 0.934046 0.315704
H135  H     H_    0.847072 0.954082 0.462474 0.337430
H136  H     H_    0.880628 0.081031 0.918101 0.308739
H137  H     H_    0.956949 0.807182 0.489717 0.317234
H138  H     H_    0.952131 0.194065 0.983816 0.311059
H139  H     H_    0.449485 0.304978 0.484681 0.321078
H140  H     H_    0.459419 0.696946 0.980544 0.310057
H141  H     H_    0.332244 0.658970 0.189548 0.306433
H142  H     H_    0.199695 0.452764 0.200796 -0.037689
H143  H     H_    0.331298 0.340729 0.687303 0.312664
H144  H     H_    0.831051 0.159614 0.187571 0.305409
H145  H     H_    0.830884 0.840491 0.687032 0.312836
H146  H     H_    0.981429 0.394998 0.783716 0.280599
H147  H     H_    0.983433 0.607609 0.290494 0.278454
H148  H     H_    0.480707 0.896395 0.782935 0.286738
H149  H     H_    0.484451 0.108868 0.292758 0.274209
H150  H     H_    0.078995 0.659640 0.167132 0.275166
H151  H     H_    0.080349 0.339025 0.662836 0.279010
H152  H     H_    0.574990 0.159247 0.186908 0.268150
O1    O     O_2   0.163830 0.569270 0.980510 -0.416683
O2    O     O_3   0.957443 0.285120 0.512104 -0.639606
O3    O     O_3   0.457496 0.214323 0.010555 -0.625780
O4    O     O_3   0.457819 0.785157 0.511362 -0.638935
O5    O     O_3   0.904940 0.476110 0.001150 -0.450947
O6    O     O_3   0.904940 0.523890 0.501150 -0.454241
O7    O     O_3   0.404940 0.976110 0.001150 -0.450903
O8    O     O_3   0.404940 0.023890 0.501150 -0.455275
O9    O     O_3   0.095420 0.524330 0.188510 -0.511088
O10   O     O_3   0.095420 0.475670 0.688510 -0.509611
O11   O     O_3   0.595420 0.024330 0.188510 -0.514596
O12   O     O_2   0.163830 0.430730 0.480510 -0.411268
O13   O     O_3   0.595420 0.975670 0.688510 -0.509237
O14   O     O_3   0.028940 0.612400 0.656050 -0.460127
O15   O     O_3   0.028940 0.387600 0.156050 -0.458280
O16   O     O_3   0.528940 0.112400 0.656050 -0.460366
O17   O     O_3   0.528940 0.887600 0.156050 -0.459112
O18   O     O_2   0.163525 0.649365 0.842702 -0.396530
O19   O     O_2   0.165151 0.351854 0.342754 -0.378095
O20   O     O_2   0.662265 0.150373 0.843605 -0.396288
O21   O     O_2   0.664751 0.851541 0.343086 -0.370332
O22   O     O_3   0.259280 0.517691 0.214883 -0.591459
O23   O     O_2   0.663830 0.069270 0.980510 -0.413256
O24   O     O_3   0.260514 0.481756 0.708105 -0.602330
O25   O     O_3   0.758598 0.017008 0.212144 -0.582208
O26   O     O_3   0.760497 0.981679 0.709661 -0.607447
O27   O     O_3   0.064290 0.711856 0.672446 -0.605281
O28   O     O_3   0.066575 0.288241 0.179210 -0.648557
O29   O     O_3   0.562787 0.211775 0.667241 -0.609762
O30   O     O_3   0.566143 0.788191 0.178041 -0.648818
O31   O     O_2   0.837400 0.570350 0.710350 -0.514996
O32   O     O_2   0.837400 0.429650 0.210350 -0.515854
O33   O     O_2   0.337400 0.070350 0.710350 -0.516137
O34   O     O_2   0.663830 0.930730 0.480510 -0.407009
O35   O     O_2   0.337400 0.929650 0.210350 -0.514128
O36   O     O_3   0.972820 0.612580 0.035550 -0.477660
O37   O     O_3   0.972820 0.387420 0.535550 -0.486664
O38   O     O_3   0.472820 0.112580 0.035550 -0.469739
O39   O     O_3   0.472820 0.887420 0.535550 -0.490795
O40   O     O_2   0.840371 0.655954 0.882146 -0.473762
O41   O     O_2   0.840640 0.343566 0.384619 -0.483213
O42   O     O_2   0.340825 0.156336 0.881427 -0.475670
O43   O     O_2   0.340414 0.843674 0.385837 -0.481830
O44   O     O_3   0.650782 0.606188 0.969224 -0.748022
O45   O     O_3   0.732451 0.520559 0.473772 -0.669124
O46   O     O_3   0.655156 0.392366 0.476370 -0.747427
O47   O     O_3   0.152462 0.106725 0.968025 -0.747760
O48   O     O_3   0.153087 0.892701 0.470131 -0.745413
O49   O     O_3   0.388697 0.473110 0.168734 -0.684509
O50   O     O_3   0.386332 0.541218 0.649219 -0.753856
O51   O     O_3   0.887424 0.966460 0.231450 -0.693966
O52   O     O_3   0.887498 0.037701 0.639767 -0.746626
O53   O     O_3   0.348751 0.434343 0.369280 -0.709358
O54   O     O_3   0.353327 0.549215 0.884434 -0.680884
O55   O     O_3   0.820654 0.927117 0.391801 -0.682942
O56   O     O_3   0.732254 0.478820 0.974100 -0.669404
O57   O     O_3   0.855672 0.050438 0.873895 -0.694483
O58   O     O_3   0.918768 0.780283 0.493985 -0.736809
O59   O     O_3   0.915934 0.220565 0.997173 -0.748610
O60   O     O_3   0.413552 0.277958 0.495081 -0.738923
O61   O     O_3   0.417569 0.720071 0.995522 -0.742329
O62   O     O_3   0.293444 0.631946 0.178091 -0.680354
O63   O     O_3   0.292775 0.367880 0.676254 -0.663679
O64   O     O_3   0.792829 0.132326 0.177019 -0.681424
O65   O     O_3   0.792456 0.867682 0.676131 -0.658575
O66   O     O_3   0.945354 0.407121 0.847058 -0.711144
O67   O     O_3   0.232543 0.020493 0.472961 -0.667119
O68   O     O_3   0.945668 0.593485 0.344142 -0.713151
O69   O     O_3   0.445888 0.907211 0.847202 -0.718369
O70   O     O_3   0.446373 0.094014 0.344476 -0.712135
O71   O     O_3   0.088626 0.688090 0.110353 -0.689326
O72   O     O_3   0.091033 0.309061 0.614606 -0.666903
O73   O     O_3   0.587091 0.185826 0.124867 -0.696789
O74   O     O_3   0.591036 0.809426 0.612617 -0.666182
O75   O     O_3   0.114532 0.766745 0.984855 -0.684306
O76   O     O_3   0.126078 0.226958 0.525140 -0.680688
O77   O     O_3   0.617222 0.260673 0.982532 -0.681133
O78   O     O_3   0.232400 0.978945 0.974066 -0.668456
O79   O     O_3   0.627516 0.727778 0.524575 -0.681775
O80   O     O_3   0.956512 0.714376 0.009438 -0.625669
P1    P     P_3+3 0.171820 0.553000 0.158080 1.086869
P2    P     P_3+3 0.909056 0.339140 0.541438 0.910194
P3    P     P_3+3 0.408344 0.160586 0.039263 0.926491
P4    P     P_3+3 0.409436 0.839052 0.541872 0.907523
P5    P     P_3+3 0.106578 0.346174 0.175460 1.006406
P6    P     P_3+3 0.105859 0.654142 0.674175 1.008072
P7    P     P_3+3 0.606462 0.846103 0.175517 1.007977
P8    P     P_3+3 0.605563 0.154234 0.673869 1.007423
P9    P     P_3+3 0.171820 0.447000 0.658080 1.076887
P10   P     P_3+3 0.671820 0.053000 0.158080 1.089708
P11   P     P_3+3 0.671820 0.947000 0.658080 1.077186
P12   P     P_3+3 0.829210 0.554130 0.532500 0.970794
P13   P     P_3+3 0.829210 0.445870 0.032500 0.972059
P14   P     P_3+3 0.329210 0.054130 0.532500 0.971654
P15   P     P_3+3 0.329210 0.945870 0.032500 0.972402
P16   P     P_3+3 0.908220 0.660476 0.039421 0.924955

loop_
_geom_bond_atom_site_label_1
_geom_bond_atom_site_label_2
_ccdc_geom_bond_type
H138  O59   S    
C35   H84   S    
C101  H99   S    
C58   H80   S    
Ba2   O9    S    
C5    H27   S    
Ba3   O8    S    
C107  H121  S    
H152  O73   S    
C10   H42   S    
C62   P1    S    
C84   O22   S    
C11   H47   S    
O11   P10   S    
C97   O66   S    
C78   C83   S    
H150  O71   S    
C5    H26   S    
C58   C66   A    
C4    H22   S    
C36   O60   S    
C87   C92   S    
C40   C49   S    
C109  H127  S    
C42   C51   S    
O37   P2    S    
C18   P13   S    
C77   C82   S    
C72   H72   S    
C100  O70   S    
H149  O70   S    
C38   C40   D    
H134  O54   S    
Ba3   O33   S    
C71   H71   S    
C111  H7    S    
C8    H34   S    
C25   H94   S    
C58   C62   S    
Ba2   O32   S    
C81   O46   S    
C67   C69   A    
O17   P7    S    
C79   C101  S    
Ba4   O35   S    
H19   O77   S    
H112  O46   S    
Ba2   O6    S    
C85   O24   S    
C3    H16   S    
C68   C80   A    
C103  H103  S    
C43   H92   S    
C24   C29   A    
O35   P15   D    
C88   O53   S    
C72   O76   S    
C5    H25   S    
C11   H45   S    
C82   C104  S    
C65   C91   S    
C54   O2    S    
Ba4   O17   S    
C94   H65   S    
C95   H64   S    
C93   H62   S    
C40   H89   S    
C93   H1    S    
C9    H38   S    
C83   C109  S    
H129  O50   S    
C87   H24   S    
C16   H59   S    
C11   H44   S    
Ba2   P9    S    
O21   P7    D    
C48   C61   S    
C41   H90   S    
Ba2   O37   S    
C54   O72   S    
C8    H36   S    
C19   P12   S    
O22   P1    S    
C92   O52   S    
C54   C72   S    
C82   O47   S    
C12   H48   S    
Ba1   P12   S    
C56   C74   S    
C29   C38   S    
C28   C32   A    
Ba3   P10   S    
C78   O67   S    
C7    C74   S    
O78   P15   S    
Ba2   O12   S    
C95   H76   S    
C96   H87   S    
C7    H32   S    
Ba1   O1    S    
H17   O75   S    
C107  H118  S    
C3    H14   S    
C103  H101  S    
C86   H13   S    
C16   H58   S    
C17   C34   A    
C47   O61   S    
C108  H124  S    
C28   C37   S    
C70   P7    S    
C74   O79   S    
Ba2   P13   S    
C105  H107  S    
C106  H117  S    
O39   P4    S    
O16   P8    S    
C13   H78   S    
C11   C78   S    
O8    P14   S    
C44   C49   S    
O29   P8    S    
H144  O64   S    
C26   C30   A    
H18   O76   S    
C15   H56   S    
O13   P11   S    
O27   P6    S    
Ba4   O34   S    
C66   P6    S    
H128  O49   S    
C9    H40   S    
C95   O29   S    
O5    P13   S    
H130  O51   S    
C12   H49   S    
C88   H35   S    
C37   C43   D    
C79   C106  S    
C6    H28   S    
C39   C41   D    
C73   O77   S    
Ba1   O6    S    
O14   P6    S    
Ba3   O16   S    
C6    H30   S    
H132  O52   S    
C57   O62   S    
C38   H86   S    
H145  O65   S    
Ba3   Ba4   S    
Ba4   P11   S    
O33   P14   D    
C47   C96   S    
O45   P12   S    
C17   C21   A    
Ba4   O7    S    
C98   O68   S    
C30   C39   S    
C1    C93   S    
C105  H110  S    
C21   C100  S    
Ba3   O7    S    
C1    H93   S    
O34   P11   D    
C87   O26   S    
C10   C77   S    
C10   H43   S    
C20   C99   S    
C73   H73   S    
C53   C71   S    
C47   H70   S    
O30   P7    S    
C104  H105  S    
H135  O55   S    
C16   H60   S    
O9    P1    S    
C2    C32   A    
C85   C89   S    
C106  H115  S    
C90   H57   S    
O40   P16   D    
C109  H126  S    
C39   H88   S    
C56   O74   S    
C15   C77   S    
H114  O48   S    
C43   C52   S    
C25   H68   S    
C15   H54   S    
C60   O64   S    
C20   P15   S    
C1    O58   S    
C18   C97   S    
C59   O63   S    
C25   C94   S    
C16   C78   S    
H146  O66   S    
C8    C75   S    
C68   P8    S    
C110  H5    S    
C47   H96   S    
C7    H33   S    
C50   C67   S    
C55   C112  S    
C112  H11   S    
C107  H119  S    
Ba1   O36   S    
C63   C69   S    
C5    C72   S    
C92   H61   S    
C96   H66   S    
C3    H15   S    
C84   H142  S    
C24   P4    S    
C9    C76   S    
C101  H100  S    
C89   O50   S    
C23   P16   S    
C49   C66   S    
H133  O53   S    
C86   C90   S    
H140  O61   S    
C86   O25   S    
C87   H131  S    
C52   C70   S    
C10   H41   S    
H148  O69   S    
C64   C80   S    
Ba1   P1    S    
C80   H82   S    
C29   C33   A    
O20   P8    D    
O67   P14   S    
C4    H21   S    
C76   O45   S    
C76   C81   S    
C36   H95   S    
C14   H51   S    
H139  O60   S    
C86   H120  S    
O6    P12   S    
C17   H79   S    
O42   P3    D    
C53   C110  S    
H137  O58   S    
C92   O57   S    
C27   C31   A    
H141  O62   S    
C37   H85   S    
C60   C64   D    
C3    C56   S    
H3    O74   S    
C14   H53   S    
O15   P5    S    
C111  H8    S    
C23   C98   D    
C23   C28   A    
C93   O27   S    
Ba1   O31   S    
C94   O28   S    
C75   O56   S    
C85   H109  S    
O43   P4    D    
C81   C107  S    
C53   O71   S    
C83   C105  S    
H151  O72   S    
O18   P6    D    
C12   C75   S    
C99   O69   S    
Ba1   O10   S    
H20   O79   S    
Ba2   O5    S    
C75   C79   S    
C24   C99   D    
C7    H31   S    
O25   P10   S    
C89   H46   S    
C61   C65   D    
Ba3   O38   S    
C65   P11   S    
O38   P3    S    
Ba4   P15   S    
C61   O65   S    
C104  H104  S    
C88   O49   S    
Ba4   O11   S    
C90   O51   S    
C94   H63   S    
H113  O47   S    
C1    H67   S    
C2    H77   S    
C110  H4    S    
C45   C50   S    
C55   O73   S    
C83   O48   S    
C45   C59   S    
C46   C60   S    
C74   H74   S    
Ba3   O23   S    
C8    H37   S    
O23   P10   D    
C55   C73   S    
C36   C95   S    
O32   P13   D    
H111  O44   S    
O26   P11   S    
O10   P9    S    
C84   H98   S    
C4    H23   S    
C77   O78   S    
C71   O75   S    
C15   H55   S    
Ba1   Ba2   S    
C22   C97   D    
O3    P3    S    
Ba1   O14   S    
C19   C98   S    
C90   O55   S    
C63   P9    S    
O12   P9    D    
O31   P12   D    
C9    H39   S    
C57   C62   D    
O80   P16   S    
C84   C88   S    
C12   H50   S    
C69   H81   S    
H143  O63   S    
Ba1   O5    S    
C89   O54   S    
C22   C27   A    
C112  H10   S    
C102  H75   S    
C6    C73   S    
C42   H91   S    
C59   C63   D    
O4    P4    S    
C13   C20   A    
C101  H97   S    
Ba4   O8    S    
O28   P5    S    
C14   H52   S    
C36   H69   S    
Ba4   O39   S    
C18   C102  A    
C4    C71   S    
O1    P1    D    
O24   P9    S    
C25   O59   S    
C22   P2    S    
C82   C108  S    
C53   O80   S    
C103  H102  S    
C104  H106  S    
C108  H123  S    
C55   O3    S    
C13   C33   A    
C56   O4    S    
C67   P5    S    
C105  H108  S    
C106  H116  S    
C35   C42   D    
C91   H83   S    
C64   P10   S    
C41   C50   S    
C109  H125  S    
C26   P3    S    
C54   C111  S    
O56   P13   S    
O41   P2    D    
C30   C34   A    
C70   C91   A    
C51   C68   S    
C79   O44   S    
Ba2   O15   S    
C108  H122  S    
C46   C51   S    
C111  H9    S    
C31   C102  A    
C44   C57   S    
O36   P16   S    
C2    C19   A    
C27   C35   S    
C21   P14   S    
O19   P5    D    
Ba3   P14   S    
C6    H29   S    
C110  H6    S    
Ba3   O13   S    
C85   H2    S    
C14   C76   S    
C112  H12   S    
C26   C100  D    
C81   C103  S    
C96   O30   S    
H136  O57   S    
O2    P2    S    
C48   C52   S    
H147  O68   S    
O7    P15   S    
