data_mof_unit_60953.cif
_audit_creation_date              2013-03-05T16:25:03-0500
_audit_creation_method            fapswitch 2.2
_symmetry_space_group_name_H-M    P1
_symmetry_Int_Tables_number       1
_space_group_crystal_system       triclinic
_cell_length_a                    36.939933
_cell_length_b                    18.378523
_cell_length_c                    18.379058
_cell_angle_alpha                 89.999271
_cell_angle_beta                  119.787325
_cell_angle_gamma                 90.00195
_cell_volume                      10828.9742864

loop_
_atom_site_label
_atom_site_type_symbol
_atom_site_description
_atom_site_fract_x
_atom_site_fract_y
_atom_site_fract_z
_atom_type_partial_charge
O1    O     O_R   0.500010 0.061270 0.394200 -0.576481
O2    O     O_R   0.499990 0.938730 0.605800 -0.577722
O3    O     O_R   0.499990 0.061270 0.605800 -0.577516
O4    O     O_R   0.500010 0.938730 0.394200 -0.578935
O5    O     O_R   0.000010 0.561270 0.394200 -0.575508
O6    O     O_R   0.999990 0.438730 0.605800 -0.579237
O7    O     O_R   0.999990 0.561270 0.605800 -0.576664
O8    O     O_R   0.000010 0.438730 0.394200 -0.580320
C1    C     C_R   0.499984 0.000000 0.360127 0.832342
C2    C     C_R   0.500016 1.000000 0.639874 0.832173
C3    C     C_R   0.999987 0.500000 0.360130 0.835340
C4    C     C_R   0.000013 0.499999 0.639871 0.834902
O9    O     O_R   0.560280 0.061270 0.560280 -0.565019
O10   O     O_R   0.439720 0.938730 0.439720 -0.568052
O11   O     O_R   0.439720 0.061270 0.439720 -0.564181
O12   O     O_R   0.560280 0.938730 0.560280 -0.567432
O13   O     O_R   0.060280 0.561270 0.560280 -0.560809
O14   O     O_R   0.939720 0.438730 0.439720 -0.577438
O15   O     O_R   0.939720 0.561270 0.439720 -0.560794
O16   O     O_R   0.060280 0.438730 0.560280 -0.575586
C5    C     C_R   0.580009 0.000007 0.580048 0.800914
C6    C     C_R   0.419991 0.000003 0.419953 0.800750
C7    C     C_R   0.080004 0.499987 0.580020 0.803953
C8    C     C_R   0.919996 0.499983 0.419982 0.805275
Cu1   Cu    Cu3+1 0.500000 0.072550 0.500000 1.024190
Cu2   Cu    Cu3+1 0.500000 0.927450 0.500000 1.020701
Cu3   Cu    Cu3+1 0.000000 0.572550 0.500000 1.029642
Cu4   Cu    Cu3+1 0.000000 0.427450 0.500000 1.006909
C9    C     C_3   0.725285 0.051855 0.667853 0.033476
C10   C     C_3   0.273871 0.923992 0.292606 0.084690
C11   C     C_3   0.274709 0.055630 0.328540 0.033223
C12   C     C_3   0.726131 0.922862 0.712536 0.084297
C13   C     C_3   0.225330 0.569925 0.693020 0.038206
C14   C     C_3   0.773777 0.438354 0.323620 0.081038
C15   C     C_3   0.774660 0.572627 0.300480 0.037863
C16   C     C_3   0.226225 0.434018 0.682281 0.080663
C17   C     C_3   0.774746 0.920913 0.770668 0.225454
C18   C     C_3   0.225862 0.049652 0.286955 0.205842
C19   C     C_3   0.225259 0.921391 0.234615 0.225613
C20   C     C_3   0.774133 0.045432 0.709855 0.205748
C21   C     C_3   0.275002 0.429294 0.738105 0.227715
C22   C     C_3   0.725800 0.570794 0.259916 0.205171
C23   C     C_3   0.725003 0.432965 0.268235 0.227346
C24   C     C_3   0.274191 0.567380 0.733793 0.205106
H1    H     H_    0.781382 0.012668 0.667289 0.037621
H2    H     H_    0.211810 0.900688 0.273544 0.036397
H3    H     H_    0.218617 0.020283 0.331603 0.038138
H4    H     H_    0.788192 0.896764 0.733233 0.035661
H5    H     H_    0.281782 0.558269 0.682584 0.038894
H6    H     H_    0.711891 0.437842 0.311479 0.038715
H7    H     H_    0.718213 0.567076 0.311715 0.038512
H8    H     H_    0.288102 0.429024 0.694632 0.038248
H9    H     H_    0.712462 0.030517 0.602794 0.081661
H10   H     H_    0.279276 0.920003 0.357854 0.058190
H11   H     H_    0.287535 0.037851 0.394915 0.081804
H12   H     H_    0.720722 0.914868 0.647687 0.058259
H13   H     H_    0.212820 0.571015 0.623881 0.081795
H14   H     H_    0.779622 0.459555 0.385426 0.063300
H15   H     H_    0.787174 0.578909 0.369281 0.081988
H16   H     H_    0.220365 0.449997 0.618757 0.062999
C25   C     C_1   0.875178 0.000196 0.875327 -0.164640
C26   C     C_1   0.124821 0.000181 0.124664 -0.164443
C27   C     C_1   0.375193 0.500075 0.875342 -0.164594
C28   C     C_1   0.624807 0.500039 0.124662 -0.164719
C29   C     C_3   0.708600 0.000838 0.713925 -0.145285
C30   C     C_3   0.291400 0.000531 0.286035 -0.145111
C31   C     C_3   0.208600 0.497921 0.713107 -0.149610
C32   C     C_3   0.791400 0.497566 0.287149 -0.149731
C33   C     C_3   0.791381 0.000600 0.792631 -0.025624
C34   C     C_3   0.208619 0.000533 0.207329 -0.026079
C35   C     C_3   0.291402 0.499679 0.792369 -0.028090
C36   C     C_3   0.708598 0.499589 0.207697 -0.028004
C37   C     C_3   0.775066 0.035786 0.847810 -0.393275
C38   C     C_3   0.224934 0.030865 0.149957 -0.392845
C39   C     C_3   0.274927 0.502097 0.855473 -0.388334
C40   C     C_3   0.725078 0.494751 0.144713 -0.388319
C41   C     C_3   0.726348 0.027578 0.807884 0.891375
C42   C     C_3   0.273653 0.022103 0.190457 0.890757
C43   C     C_3   0.226186 0.491389 0.811222 0.891348
C44   C     C_3   0.773819 0.483686 0.189970 0.891863
C45   C     C_1   0.837532 0.000392 0.838051 0.076939
C46   C     C_1   0.162467 0.000357 0.161923 0.077234
C47   C     C_1   0.337552 0.500007 0.838010 0.078860
C48   C     C_1   0.662448 0.499942 0.162012 0.078653
C49   C     C_1   0.662438 0.000341 0.665567 0.096757
C50   C     C_1   0.337562 0.000195 0.334420 0.096909
C51   C     C_1   0.162423 0.499028 0.664847 0.089543
C52   C     C_1   0.837576 0.498879 0.335303 0.089385
C53   C     C_1   0.624799 0.000081 0.626110 -0.110796
C54   C     C_1   0.375201 0.000045 0.373887 -0.110797
C55   C     C_1   0.124787 0.499804 0.625775 -0.113862
C56   C     C_1   0.875213 0.499770 0.374287 -0.114104
H17   H     H_    0.784275 0.094086 0.856842 0.205278
H18   H     H_    0.208885 0.003070 0.087953 0.203541
H19   H     H_    0.215723 0.089043 0.137023 0.205557
H20   H     H_    0.791117 0.011133 0.911572 0.203441
H21   H     H_    0.284223 0.555140 0.888839 0.206876
H22   H     H_    0.709148 0.449583 0.099513 0.201800
H23   H     H_    0.715780 0.545384 0.106633 0.207201
H24   H     H_    0.290858 0.459780 0.904655 0.202599
C57   C     C_1   0.499956 0.000001 0.282637 -0.160534
C58   C     C_1   0.500044 0.999999 0.717363 -0.160678
C59   C     C_1   0.999959 0.499999 0.282641 -0.158898
C60   C     C_1   0.000041 0.499996 0.717360 -0.159083
C61   C     C_1   0.499951 0.000001 0.217390 -0.165654
C62   C     C_1   0.500049 0.999999 0.782610 -0.165688
C63   C     C_1   0.999953 0.499998 0.217392 -0.164114
C64   C     C_1   0.000047 0.499996 0.782609 -0.164089
O17   O     O_R   0.000000 0.105620 0.938740 -0.578203
O18   O     O_R   1.000000 0.894380 0.061260 -0.578983
O19   O     O_R   0.000000 0.105620 0.061260 -0.578835
O20   O     O_R   1.000000 0.894380 0.938740 -0.579157
O21   O     O_R   0.500000 0.605620 0.938740 -0.577772
O22   O     O_R   0.500000 0.394380 0.061260 -0.579201
O23   O     O_R   0.500000 0.605620 0.061260 -0.578334
O24   O     O_R   0.500000 0.394380 0.938740 -0.579491
C65   C     C_R   1.000000 0.139690 1.000000 0.844482
C66   C     C_R   0.000001 0.860310 0.000001 0.834924
C67   C     C_R   0.500000 0.639690 1.000000 0.843605
C68   C     C_R   0.500000 0.360310 0.000000 0.836868
O25   O     O_R   0.939730 0.000000 0.878470 -0.580322
O26   O     O_R   0.060270 0.000000 0.121530 -0.580669
O27   O     O_R   0.439730 0.500000 0.878470 -0.582869
O28   O     O_R   0.560270 0.500000 0.121530 -0.583296
O29   O     O_R   0.939720 0.000000 0.000940 -0.573925
O30   O     O_R   0.060280 0.000000 0.999060 -0.573685
O31   O     O_R   0.439720 0.500000 0.000940 -0.572333
O32   O     O_R   0.560280 0.500000 0.999060 -0.572086
C69   C     C_R   0.919987 0.000018 0.919996 0.811635
C70   C     C_R   0.080013 0.000018 0.080002 0.811836
C71   C     C_R   0.419992 0.500047 0.920003 0.812305
C72   C     C_R   0.580008 0.500040 0.079997 0.812403
Cu5   Cu    Cu3+1 0.000010 0.000000 0.927480 0.989727
Cu6   Cu    Cu3+1 0.999990 0.000000 0.072520 0.989296
Cu7   Cu    Cu3+1 0.500010 0.500000 0.927480 0.990150
Cu8   Cu    Cu3+1 0.499990 0.500000 0.072520 0.989673
O33   O     O_R   0.534900 0.894160 0.034870 -0.582253
O34   O     O_R   0.465100 0.105840 0.965130 -0.583820
O35   O     O_R   0.465100 0.894160 0.965130 -0.581699
O36   O     O_R   0.534900 0.105840 0.034870 -0.583152
O37   O     O_R   0.034900 0.394160 0.034870 -0.580749
O38   O     O_R   0.965100 0.605840 0.965130 -0.584143
O39   O     O_R   0.965100 0.394160 0.965130 -0.580457
O40   O     O_R   0.034900 0.605840 0.034870 -0.584358
C73   C     C_R   0.499999 0.859956 0.999999 0.844553
C74   C     C_R   0.500000 0.140044 0.000001 0.844586
C75   C     C_R   1.000000 0.359956 0.999999 0.843815
C76   C     C_R   0.000000 0.640044 0.000001 0.844247
O41   O     O_R   0.534890 0.000000 0.140680 -0.580577
O42   O     O_R   0.465110 0.000000 0.859320 -0.580668
O43   O     O_R   0.034890 0.500000 0.140680 -0.579784
O44   O     O_R   0.965110 0.500000 0.859320 -0.579082
O45   O     O_R   0.465110 0.000000 0.070890 -0.584810
O46   O     O_R   0.534890 0.000000 0.929110 -0.584653
O47   O     O_R   0.965110 0.500000 0.070890 -0.584664
O48   O     O_R   0.034890 0.500000 0.929110 -0.585127
C77   C     C_R   0.499983 0.000000 0.139958 0.844612
C78   C     C_R   0.500017 1.000000 0.860042 0.844704
C79   C     C_R   0.999983 0.499999 0.139958 0.843934
C80   C     C_R   0.000017 0.499998 0.860042 0.844113
Cu9   Cu    Cu3+1 0.541320 0.000000 0.041310 0.977746
Cu10  Cu    Cu3+1 0.458680 0.000000 0.958690 0.977455
Cu11  Cu    Cu3+1 0.041320 0.500000 0.041310 0.979507
Cu12  Cu    Cu3+1 0.958680 0.500000 0.958690 0.980779
C81   C     C_1   0.999999 0.217190 0.999998 -0.161935
C82   C     C_1   0.000001 0.782811 0.000003 -0.170367
C83   C     C_1   0.499999 0.717190 0.999998 -0.162958
C84   C     C_1   0.500000 0.282811 0.000002 -0.168509
C85   C     C_1   0.499999 0.782455 0.999998 -0.163921
C86   C     C_1   0.500001 0.217545 0.000002 -0.167847
C87   C     C_1   0.999999 0.282455 0.999998 -0.161941
C88   C     C_1   0.000002 0.717545 0.000003 -0.169018
N1    N     N_R   0.703775 0.862237 0.725616 0.175325
O49   O     O_R   0.677539 0.823885 0.661350 -0.366710
O50   O     O_R   0.711217 0.842514 0.799742 -0.263331
N2    N     N_R   0.289919 0.130518 0.332498 0.205381
O51   O     O_R   0.320708 0.154452 0.402680 -0.355826
O52   O     O_R   0.271368 0.175524 0.269892 -0.267425
N3    N     N_R   0.296234 0.861136 0.283681 0.175488
O53   O     O_R   0.322462 0.825423 0.350436 -0.367482
O54   O     O_R   0.288805 0.837001 0.211033 -0.265201
N4    N     N_R   0.710067 0.127321 0.658833 0.205311
O55   O     O_R   0.679299 0.148558 0.587109 -0.356767
O56   O     O_R   0.728603 0.175183 0.718329 -0.267799
N5    N     N_R   0.204191 0.364097 0.669443 0.168029
O57   O     O_R   0.175405 0.346160 0.594106 -0.373354
O58   O     O_R   0.214286 0.317283 0.729612 -0.268516
N6    N     N_R   0.790296 0.635753 0.274721 0.204918
O59   O     O_R   0.820726 0.674266 0.331792 -0.352278
O60   O     O_R   0.772404 0.657808 0.197228 -0.257576
N7    N     N_R   0.795824 0.367903 0.342932 0.167991
O61   O     O_R   0.824594 0.354321 0.419731 -0.373789
O62   O     O_R   0.785751 0.316693 0.287274 -0.268682
N8    N     N_R   0.209679 0.636567 0.712802 0.204990
O63   O     O_R   0.179247 0.672454 0.652302 -0.352874
O64   O     O_R   0.227563 0.664004 0.788017 -0.258588
O65   O     O_3   0.786686 0.882162 0.846242 -0.493015
C89   C     C_3   0.806178 0.815766 0.847632 -0.169817
H25   H     H_    0.836187 0.825634 0.848855 0.120771
H26   H     H_    0.785272 0.780991 0.793183 0.167796
H27   H     H_    0.813204 0.785853 0.905610 0.192064
O66   O     O_3   0.206018 0.118790 0.265352 -0.516419
C90   C     C_3   0.201995 0.147416 0.332245 -0.178185
H28   H     H_    0.232493 0.148852 0.391579 0.167768
H29   H     H_    0.178829 0.115592 0.340977 0.137583
H30   H     H_    0.190385 0.204122 0.316620 0.192068
O67   O     O_3   0.213331 0.878474 0.161777 -0.493161
C91   C     C_3   0.193805 0.813461 0.164738 -0.173213
H31   H     H_    0.163793 0.825265 0.162764 0.121783
H32   H     H_    0.214690 0.780990 0.221436 0.168364
H33   H     H_    0.186779 0.780217 0.108870 0.189830
O68   O     O_3   0.793967 0.114546 0.726822 -0.516863
C92   C     C_3   0.797976 0.138383 0.658161 -0.175397
H34   H     H_    0.767476 0.137863 0.598800 0.167500
H35   H     H_    0.821149 0.104525 0.651625 0.137242
H36   H     H_    0.809572 0.195242 0.669975 0.193562
O69   O     O_3   0.287843 0.367825 0.792232 -0.496229
C93   C     C_3   0.307913 0.315988 0.767786 -0.178318
H37   H     H_    0.337548 0.338261 0.775119 0.125880
H38   H     H_    0.287093 0.297661 0.702147 0.170892
H39   H     H_    0.315725 0.267757 0.809202 0.186098
O70   O     O_3   0.706300 0.632354 0.208263 -0.512518
C94   C     C_3   0.701679 0.688837 0.255045 -0.186855
H40   H     H_    0.731885 0.702644 0.311655 0.168033
H41   H     H_    0.678046 0.673900 0.273141 0.133286
H42   H     H_    0.690370 0.738205 0.215194 0.190996
O71   O     O_3   0.712181 0.367977 0.219898 -0.497063
C95   C     C_3   0.692123 0.320387 0.248895 -0.176809
H43   H     H_    0.662481 0.344566 0.239432 0.126846
H44   H     H_    0.712947 0.306244 0.316022 0.171929
H45   H     H_    0.684327 0.269287 0.212029 0.186202
O72   O     O_3   0.293680 0.631628 0.779689 -0.513253
C96   C     C_3   0.298293 0.683195 0.727965 -0.186717
H46   H     H_    0.268086 0.694513 0.670200 0.168261
H47   H     H_    0.321932 0.664536 0.711411 0.134725
H48   H     H_    0.309592 0.734969 0.763186 0.190406
O73   O     O_3   0.707673 0.095776 0.808080 -0.565248
C97   C     C_3   0.724218 0.127082 0.889004 -0.275595
H49   H     H_    0.744965 0.173154 0.895102 0.196304
H50   H     H_    0.741808 0.088453 0.941678 0.156466
H51   H     H_    0.698072 0.149295 0.895594 0.187473
O74   O     O_3   0.280912 0.964835 0.146532 -0.550616
C98   C     C_3   0.320179 0.967336 0.150111 -0.160609
H52   H     H_    0.344015 0.001934 0.200556 0.148248
H53   H     H_    0.315761 0.986774 0.089077 0.149999
H54   H     H_    0.333044 0.911435 0.159817 0.202794
O75   O     O_3   0.292326 0.088892 0.185740 -0.565968
C99   C     C_3   0.275784 0.115809 0.102863 -0.272424
H55   H     H_    0.255033 0.162748 0.093641 0.197767
H56   H     H_    0.258198 0.074909 0.052859 0.156300
H57   H     H_    0.301931 0.135788 0.094865 0.187488
O76   O     O_3   0.719094 0.973860 0.855533 -0.550467
C100  C     C_3   0.679829 0.978729 0.851715 -0.160636
H58   H     H_    0.655987 0.011443 0.799001 0.148359
H59   H     H_    0.684247 0.001932 0.911314 0.149967
H60   H     H_    0.666974 0.923158 0.845775 0.202886
O77   O     O_3   0.207868 0.546610 0.837427 -0.565550
C101  C     C_3   0.223263 0.547091 0.925198 -0.270238
H61   H     H_    0.237898 0.495112 0.957453 0.166511
H62   H     H_    0.196904 0.558343 0.936315 0.185334
H63   H     H_    0.246192 0.591878 0.954455 0.195974
O78   O     O_3   0.781213 0.410429 0.174206 -0.558247
C102  C     C_3   0.823000 0.395364 0.195147 -0.190711
H64   H     H_    0.841206 0.375414 0.260508 0.197647
H65   H     H_    0.839862 0.441472 0.186495 0.157708
H66   H     H_    0.822486 0.350739 0.154032 0.173167
O79   O     O_3   0.792151 0.534599 0.158914 -0.565442
C103  C     C_3   0.776746 0.528483 0.071399 -0.273017
H67   H     H_    0.762481 0.474855 0.044143 0.166264
H68   H     H_    0.803029 0.536986 0.059328 0.185423
H69   H     H_    0.753524 0.572072 0.037981 0.195375
O80   O     O_3   0.218787 0.420566 0.833606 -0.557568
C104  C     C_3   0.176997 0.407473 0.813943 -0.190178
H70   H     H_    0.158811 0.383190 0.750653 0.196777
H71   H     H_    0.160112 0.455746 0.818125 0.157278
H72   H     H_    0.177505 0.366839 0.859048 0.174472

loop_
_geom_bond_atom_site_label_1
_geom_bond_atom_site_label_2
_geom_bond_distance
_ccdc_geom_bond_type
O29   Cu6   1.943544 S    
C32   C44   1.588832 S    
C102  H66   1.108958 S    
N8    O64   1.301671 A    
C90   H28   1.112854 S    
C18   C34   1.560828 S    
C82   C88   1.199480 T    
C23   C36   1.560319 S    
C17   C33   1.561692 S    
C11   C30   1.579385 S    
C44   O79   1.429642 S    
C38   H18   1.113459 S    
O46   Cu9   1.955029 S    
C94   H40   1.112862 S    
O19   Cu6   1.952157 S    
C37   H17   1.111392 S    
O20   Cu5   1.952159 S    
O40   C76   1.283371 A    
O18   C66   1.288305 A    
C95   H44   1.112868 S    
Cu9   Cu10  2.649375 S    
C93   H37   1.112429 S    
C94   H42   1.109135 S    
O17   C65   1.288305 A    
Cu7   Cu8   2.666064 S    
C83   C85   1.199482 T    
O24   Cu7   1.952159 S    
C5    C53   1.436143 S    
N1    O49   1.301468 A    
C40   H23   1.111266 S    
O39   C75   1.283371 A    
C90   H29   1.112030 S    
C97   H51   1.109226 S    
C68   C84   1.424317 S    
O13   C7    1.291681 A    
O14   C8    1.291192 A    
N6    O60   1.301672 A    
C14   N7    1.476019 S    
C16   N5    1.476016 S    
C51   C55   1.206982 T    
C91   H33   1.109137 S    
O45   C77   1.283016 A    
O38   Cu12  1.956033 S    
C100  H58   1.108170 S    
O44   C80   1.282918 A    
N5    O58   1.300948 A    
O23   Cu8   1.952157 S    
O30   C70   1.291128 A    
C40   H22   1.113442 S    
C98   H52   1.108176 S    
C97   H50   1.112861 S    
O32   C72   1.291048 A    
C39   H21   1.111343 S    
C104  H72   1.108948 S    
O7    Cu3   1.955702 S    
C27   C71   1.436223 S    
O28   C72   1.291230 A    
C24   C35   1.559276 S    
C15   H15   1.115891 S    
O77   C101  1.419236 S    
C15   C22   1.574062 S    
C26   C70   1.436531 S    
N4    O55   1.301246 A    
C28   C48   1.206748 T    
O44   Cu12  1.955220 S    
O21   C67   1.288307 A    
C37   C41   1.577294 S    
C25   C45   1.206919 T    
O11   C6    1.291460 A    
O6    Cu4   1.955708 S    
C52   C56   1.206981 T    
O30   Cu5   1.943545 S    
C65   C81   1.424323 S    
O80   C104  1.420298 S    
C98   H53   1.109371 S    
C19   O67   1.422064 S    
C34   C38   1.554728 S    
C10   N3    1.475971 S    
C103  H69   1.109700 S    
C33   C37   1.554729 S    
C89   H25   1.112415 S    
C104  H71   1.108929 S    
C17   O65   1.422086 S    
O72   C96   1.411333 S    
O15   Cu3   1.943617 S    
C96   H46   1.112865 S    
C21   H8    1.121055 S    
C38   C42   1.577316 S    
C99   H57   1.109216 S    
C36   C40   1.555229 S    
C22   H7    1.120118 S    
C21   C35   1.560330 S    
Cu1   Cu2   2.666726 S    
N2    O52   1.301655 A    
N8    O63   1.301243 A    
C26   C46   1.206916 T    
O5    Cu3   1.955708 S    
O73   C97   1.418990 S    
O41   C77   1.282929 A    
O1    Cu1   1.955708 S    
O9    Cu1   1.943627 S    
C16   C21   1.571616 S    
O7    C4    1.288253 A    
C30   C42   1.590131 S    
C8    C56   1.435838 S    
C95   H43   1.112430 S    
C10   C30   1.578041 S    
C23   O71   1.421983 S    
C104  H70   1.107756 S    
C35   C47   1.479572 S    
C11   N2    1.474647 S    
N1    O50   1.300332 A    
C57   C61   1.199100 T    
C20   H1    1.120044 S    
O42   Cu10  1.955220 S    
C90   H30   1.109133 S    
C73   C85   1.424348 S    
C16   C31   1.578217 S    
C29   C41   1.590150 S    
C20   C33   1.560863 S    
O28   Cu8   1.943422 S    
C12   C29   1.578056 S    
O47   C79   1.283027 A    
N7    O61   1.301418 A    
O13   Cu3   1.943627 S    
O1    C1    1.288245 A    
O38   C76   1.283367 A    
C2    C58   1.423661 S    
O9    C5    1.291427 A    
O14   Cu4   1.943630 S    
O31   Cu8   1.943544 S    
O48   Cu11  1.955029 S    
O2    Cu2   1.955708 S    
O66   C90   1.411358 S    
O32   Cu7   1.943545 S    
C14   C32   1.578238 S    
O22   Cu8   1.952164 S    
C100  H59   1.109373 S    
C49   C53   1.207192 T    
C91   H31   1.112435 S    
O16   Cu4   1.943614 S    
O36   Cu9   1.956046 S    
C92   H34   1.112868 S    
O17   Cu5   1.952162 S    
C66   C82   1.424317 S    
C24   H5    1.120121 S    
O26   Cu6   1.943422 S    
O24   C68   1.288305 A    
C27   C47   1.206749 T    
N6    O59   1.301247 A    
C43   O77   1.429583 S    
C101  H62   1.109204 S    
C75   C87   1.424350 S    
O20   C66   1.288305 A    
C10   H10   1.115990 S    
C93   H38   1.112865 S    
O71   C95   1.410740 S    
O16   C7    1.291218 A    
O3    Cu1   1.955702 S    
O75   C99   1.418970 S    
C98   H54   1.108582 S    
C61   C77   1.423707 S    
C63   C79   1.423707 S    
O33   Cu9   1.956035 S    
C89   H27   1.109164 S    
C22   C36   1.559305 S    
C42   O75   1.431549 S    
C6    C54   1.436150 S    
C44   O78   1.431743 S    
O34   Cu10  1.956033 S    
C41   O76   1.430561 S    
C42   O74   1.430555 S    
C12   C17   1.568895 S    
O10   Cu2   1.943630 S    
C17   H4    1.121005 S    
C29   C49   1.480530 S    
C96   H47   1.112032 S    
C18   H3    1.120038 S    
C36   C48   1.479570 S    
O21   Cu7   1.952162 S    
C81   C87   1.199483 T    
C19   H2    1.121003 S    
C9    C29   1.579400 S    
C1    C57   1.423661 S    
N2    O51   1.301241 A    
C99   H56   1.112858 S    
C103  H68   1.109180 S    
C13   N8    1.474911 S    
O37   Cu11  1.956035 S    
O23   C67   1.288305 A    
C74   C86   1.424352 S    
O5    C3    1.288254 A    
C50   C54   1.207192 T    
Cu5   Cu6   2.666064 S    
C32   C52   1.481055 S    
C7    C55   1.435838 S    
O18   Cu6   1.952164 S    
C101  H63   1.109737 S    
O41   Cu9   1.955221 S    
O36   C74   1.283374 A    
O2    C2    1.288245 A    
C23   H6    1.121052 S    
C67   C83   1.424321 S    
O39   Cu12  1.956048 S    
C60   C64   1.199100 T    
C99   H55   1.109718 S    
C13   C31   1.579889 S    
C93   H39   1.109126 S    
C92   H36   1.109133 S    
O33   C73   1.283362 A    
C102  H65   1.108933 S    
C28   C72   1.436220 S    
C97   H49   1.109734 S    
O35   C73   1.283372 A    
C13   H13   1.115891 S    
O42   C78   1.282926 A    
N4    O56   1.301666 A    
O27   C71   1.291240 A    
C9    N4    1.474658 S    
C13   C24   1.574050 S    
C31   C51   1.481057 S    
C38   H19   1.111387 S    
O35   Cu10  1.956048 S    
C14   C23   1.571609 S    
C40   C44   1.577009 S    
O25   C69   1.291291 A    
C89   H26   1.112862 S    
C16   H16   1.115828 S    
O12   Cu2   1.943614 S    
C30   C50   1.480533 S    
C100  H60   1.108589 S    
O4    Cu2   1.955702 S    
O79   C103  1.419217 S    
C94   H41   1.112034 S    
O12   C5    1.291617 A    
C4    C60   1.423661 S    
O78   C102  1.420286 S    
C64   C80   1.423709 S    
O48   C80   1.283023 A    
C25   C69   1.436535 S    
O47   Cu12  1.955033 S    
C3    C59   1.423661 S    
C12   N1    1.475946 S    
C20   O68   1.421411 S    
O43   Cu11  1.955221 S    
C43   O80   1.431734 S    
C11   C18   1.575403 S    
O45   Cu10  1.955033 S    
O19   C65   1.288303 A    
O25   Cu5   1.943419 S    
O10   C6    1.291584 A    
C103  H67   1.112534 S    
C102  H64   1.107742 S    
O15   C8    1.291707 A    
O69   C93   1.410743 S    
C92   H35   1.112017 S    
O40   Cu11  1.956046 S    
O3    C2    1.288242 A    
C62   C78   1.423707 S    
C12   H12   1.115998 S    
N7    O62   1.300947 A    
O6    C4    1.288233 A    
C15   N6    1.474907 S    
N5    O57   1.301416 A    
C9    H9    1.115877 S    
C15   C32   1.579880 S    
O34   C74   1.283364 A    
O8    C3    1.288232 A    
O8    Cu4   1.955702 S    
O74   C98   1.419748 S    
C9    C20   1.575391 S    
C84   C86   1.199480 T    
C39   H24   1.113441 S    
C76   C88   1.424352 S    
C19   C34   1.561647 S    
O26   C70   1.291304 A    
C10   C19   1.568866 S    
C101  H61   1.112599 S    
C24   O72   1.421513 S    
O65   C89   1.410651 S    
C34   C46   1.479635 S    
C96   H48   1.109137 S    
O31   C71   1.291044 A    
Cu11  Cu12  2.649375 S    
C33   C45   1.479635 S    
O37   C75   1.283361 A    
N3    O53   1.301444 A    
O29   C69   1.291146 A    
C31   C43   1.588802 S    
O68   C92   1.411378 S    
O11   Cu1   1.943617 S    
C91   H32   1.112854 S    
C18   O66   1.421403 S    
C58   C62   1.199100 T    
O27   Cu7   1.943419 S    
Cu3   Cu4   2.666726 S    
C14   H14   1.115832 S    
O46   C78   1.283014 A    
O67   C91   1.410610 S    
O76   C100  1.419727 S    
C59   C63   1.199101 T    
C37   H20   1.113461 S    
C11   H11   1.115876 S    
O4    C1    1.288242 A    
C22   O70   1.421516 S    
C39   C43   1.577015 S    
O70   C94   1.411325 S    
C41   O73   1.431566 S    
C95   H45   1.109123 S    
O22   C68   1.288305 A    
O43   C79   1.282918 A    
C21   O69   1.421990 S    
N3    O54   1.300285 A    
C35   C39   1.555230 S    
