data_mof_unit_67479.cif
_audit_creation_date              2013-03-05T15:40:59-0500
_audit_creation_method            fapswitch 2.2
_symmetry_space_group_name_H-M    P1
_symmetry_Int_Tables_number       1
_space_group_crystal_system       triclinic
_cell_length_a                    10.828479
_cell_length_b                    8.683579
_cell_length_c                    7.609401
_cell_angle_alpha                 101.770273
_cell_angle_beta                  95.15175
_cell_angle_gamma                 92.851842
_cell_volume                      695.934944516

loop_
_atom_site_label
_atom_site_type_symbol
_atom_site_description
_atom_site_fract_x
_atom_site_fract_y
_atom_site_fract_z
_atom_type_partial_charge
O1    O     O_R   0.509140 0.286130 0.619770 -0.555143
O2    O     O_R   0.485380 0.256770 0.308360 -0.538954
C1    C     C_R   0.497766 0.201188 0.454777 0.826847
O3    O     O_R   0.329570 0.514650 0.655700 -0.574070
O4    O     O_R   0.305810 0.485300 0.344290 -0.537642
C2    C     C_R   0.261322 0.495368 0.500364 0.762801
Cu1   Cu    Cu3+1 0.514070 0.517380 0.684380 1.186490
Cu2   Cu    Cu3+1 0.485930 0.482620 0.315620 1.141122
O5    O     O_R   0.514620 0.743230 0.691640 -0.512180
O6    O     O_R   0.490860 0.713870 0.380230 -0.585882
O7    O     O_R   0.694190 0.514700 0.655710 -0.497257
O8    O     O_R   0.670430 0.485350 0.344300 -0.578402
C3    C     C_R   0.502198 0.798743 0.545090 0.842242
C4    C     C_R   0.740081 0.501598 0.500631 0.750578
C5    C     C_3   0.089142 0.531135 0.704364 0.023634
H1    H     H_    0.134419 0.445571 0.774961 0.115733
C6    C     C_3   0.943395 0.510233 0.708591 0.091819
H2    H     H_    0.131959 0.721775 0.418228 0.224336
H3    H     H_    0.957117 0.745566 0.555980 0.239617
C7    C     C_3   0.071570 0.610544 0.392944 -0.236540
C8    C     C_3   0.062282 0.317821 0.407850 -0.172901
C9    C     C_3   0.124159 0.489052 0.501257 -0.126217
C10   C     C_3   0.880014 0.498470 0.505641 -0.116357
C11   C     C_3   0.940953 0.645448 0.442019 -0.286290
C12   C     C_3   0.915950 0.333558 0.389103 -0.239514
H4    H     H_    0.869948 0.239339 0.443242 0.179445
H5    H     H_    0.066825 0.565748 0.245661 0.264692
C13   C     C_2   0.502454 0.034440 0.430205 -0.315323
H6    H     H_    0.511935 0.968688 0.296045 0.246981
C14   C     C_2   0.497314 0.965312 0.569114 -0.253854
H7    H     H_    0.487477 0.030884 0.702899 0.254451
N1    N     N_2   0.464720 0.456420 0.038520 0.040082
N2    N     N_2   0.535280 0.543580 0.961480 0.059545
N3    N     N_R   0.143942 0.685255 0.809859 0.214067
O9    O     O_R   0.191532 0.793067 0.734734 -0.318396
O10   O     O_R   0.155334 0.708905 0.985252 -0.275010
C15   C     C_2   0.858169 0.289408 0.196095 0.474465
H8    H     H_    0.851312 0.166710 0.125683 0.135539
O11   O     O_2   0.820207 0.387689 0.116545 -0.464977
C16   C     C_2   0.869321 0.724847 0.311601 0.576818
H9    H     H_    0.769640 0.710084 0.288017 0.126838
O12   O     O_2   0.922459 0.823653 0.246031 -0.450548
N4    N     N_R   0.459783 0.298729 0.956133 0.250071
O13   O     O_R   0.559628 0.222530 0.968733 -0.306178
O14   O     O_R   0.352289 0.219880 0.914561 -0.338699
N5    N     N_R   0.532218 0.702305 0.037854 0.235607
O15   O     O_R   0.425023 0.763866 0.040449 -0.293939
O16   O     O_R   0.631371 0.795531 0.047697 -0.326965
C17   C     C_2   0.914798 0.356449 0.774004 0.462492
H10   H     H_    0.985160 0.307579 0.851578 0.131419
O17   O     O_2   0.811490 0.287672 0.746902 -0.480480
N6    N     N_R   0.897937 0.642402 0.840226 0.172733
O18   O     O_R   0.922750 0.790702 0.840797 -0.293815
O19   O     O_R   0.820948 0.611544 0.951212 -0.258028
C18   C     C_2   0.109541 0.245296 0.226523 0.398848
H11   H     H_    0.118630 0.118855 0.190306 0.163454
O20   O     O_2   0.131196 0.322468 0.114522 -0.535330
C19   C     C_2   0.099263 0.199750 0.524287 0.232591
H12   H     H_    0.191410 0.212020 0.596792 0.127795
O21   O     O_2   0.031408 0.084029 0.527890 -0.484261

loop_
_geom_bond_atom_site_label_1
_geom_bond_atom_site_label_2
_geom_bond_distance
_ccdc_geom_bond_type
C4    C10   1.514049 S    
O4    Cu2   1.982716 S    
C10   C11   1.588835 S    
C5    C6    1.583588 S    
C15   H8    1.086220 S    
C7    H5    1.104452 S    
N4    O14   1.299980 A    
C5    N3    1.478083 S    
N3    O10   1.301814 A    
C14   H7    1.077479 S    
Cu2   O8    1.988588 S    
N1    N2    1.305450 D    
C18   H11   1.087808 S    
C13   C14   1.321669 D    
O2    C1    1.300486 A    
C19   H12   1.085333 S    
C8    C18   1.538404 S    
Cu1   Cu2   2.747649 S    
C15   O11   1.210262 D    
C8    C9    1.596611 S    
Cu1   O7    1.982716 S    
N2    N5    1.385557 S    
Cu1   N2    2.064624 S    
C13   H6    1.079623 S    
C6    C10   1.613917 S    
O3    Cu1   1.988589 S    
C6    N6    1.496192 S    
C16   O12   1.221988 D    
C16   H9    1.075083 S    
C11   C16   1.502000 S    
N1    N4    1.381087 S    
N6    O19   1.294836 A    
N3    O9    1.300794 A    
H2    C7    1.111890 S    
C18   O20   1.218062 D    
N4    O13   1.301681 A    
O4    C2    1.309487 A    
O7    C4    1.307126 A    
N5    O16   1.299254 A    
O3    C2    1.312025 A    
C7    C9    1.564229 S    
C19   O21   1.221386 D    
C5    H1    1.110316 S    
C2    C9    1.484226 S    
C3    C14   1.424710 S    
C8    C19   1.531122 S    
C10   C12   1.608679 S    
N6    O18   1.301401 A    
Cu2   O6    1.964378 S    
C17   H10   1.078259 S    
C17   O17   1.221667 D    
C6    C17   1.544233 S    
Cu1   O5    1.950363 S    
C8    C12   1.593339 S    
N5    O15   1.301951 A    
C1    C13   1.425736 S    
O5    C3    1.301103 A    
C12   C15   1.508926 S    
C12   H4    1.105009 S    
O1    Cu1   1.964378 S    
H3    C11   1.090170 S    
C5    C9    1.598305 S    
O2    Cu2   1.950364 S    
C7    C11   1.524182 S    
O8    C4    1.328037 A    
O1    C1    1.311819 A    
O6    C3    1.310769 A    
Cu2   N1    2.064624 S    
