data_mof_unit_29840.cif
_audit_creation_date              2013-03-05T15:45:58-0500
_audit_creation_method            fapswitch 2.2
_symmetry_space_group_name_H-M    P1
_symmetry_Int_Tables_number       1
_space_group_crystal_system       triclinic
_cell_length_a                    19.116555
_cell_length_b                    11.181265
_cell_length_c                    18.982256
_cell_angle_alpha                 89.985801
_cell_angle_beta                  90.103325
_cell_angle_gamma                 89.94716
_cell_volume                      4057.39689872

loop_
_atom_site_label
_atom_site_type_symbol
_atom_site_description
_atom_site_fract_x
_atom_site_fract_y
_atom_site_fract_z
_atom_type_partial_charge
O1    O     O_R   0.787510 0.042610 0.670410 -0.476430
O2    O     O_R   0.212490 0.042610 0.329590 -0.478606
O3    O     O_R   0.287510 0.542610 0.670410 -0.474887
O4    O     O_R   0.712490 0.542610 0.329590 -0.480598
O5    O     O_R   0.765670 0.292090 0.675090 -0.493733
O6    O     O_R   0.234330 0.292090 0.324910 -0.502188
O7    O     O_R   0.265670 0.792090 0.675090 -0.493445
O8    O     O_R   0.734330 0.792090 0.324910 -0.495518
C1    C     C_R   0.729530 0.376046 0.645840 0.571867
C2    C     C_R   0.270409 0.376749 0.354090 0.563748
C3    C     C_R   0.229337 0.875581 0.645581 0.572370
C4    C     C_R   0.770497 0.877031 0.354108 0.570435
O9    O     O_R   0.670220 0.409020 0.668560 -0.502783
O10   O     O_R   0.329780 0.409020 0.331440 -0.478316
O11   O     O_R   0.170220 0.909020 0.668560 -0.500768
O12   O     O_R   0.829780 0.909020 0.331440 -0.476774
O13   O     O_R   0.556580 0.251590 0.674980 -0.516108
O14   O     O_R   0.443420 0.251590 0.325020 -0.509312
O15   O     O_R   0.056580 0.751590 0.674980 -0.514565
O16   O     O_R   0.943420 0.751590 0.325020 -0.508259
C5    C     C_R   0.533705 0.152597 0.645448 0.560469
C6    C     C_R   0.467344 0.152131 0.353086 0.554503
C7    C     C_R   0.033709 0.652309 0.645611 0.558137
C8    C     C_R   0.966469 0.651674 0.353567 0.550585
O17   O     O_R   0.545890 0.049670 0.670030 -0.431707
O18   O     O_R   0.454110 0.049670 0.329970 -0.441075
O19   O     O_R   0.045890 0.549670 0.670030 -0.437770
O20   O     O_R   0.954110 0.549670 0.329970 -0.448835
O21   O     O_R   0.681340 0.957860 0.676500 -0.471146
O22   O     O_R   0.318660 0.957860 0.323500 -0.473436
O23   O     O_R   0.181340 0.457860 0.676500 -0.470069
O24   O     O_R   0.818660 0.457860 0.323500 -0.469116
C9    C     C_R   0.742006 0.973027 0.646522 0.566737
C10   C     C_R   0.257870 0.972261 0.353300 0.560440
C11   C     C_R   0.241990 0.472585 0.646589 0.566695
C12   C     C_R   0.758163 0.473476 0.353724 0.561153
O25   O     O_R   0.787380 0.044010 0.830940 -0.505730
O26   O     O_R   0.212620 0.044010 0.169060 -0.503489
O27   O     O_R   0.287380 0.544010 0.830940 -0.496649
O28   O     O_R   0.712620 0.544010 0.169060 -0.507168
O29   O     O_R   0.765540 0.293390 0.823910 -0.514498
O30   O     O_R   0.234460 0.293390 0.176090 -0.518493
O31   O     O_R   0.265540 0.793390 0.823910 -0.514412
O32   O     O_R   0.734460 0.793390 0.176090 -0.513177
C13   C     C_R   0.726845 0.372118 0.854746 0.549237
C14   C     C_R   0.271054 0.376172 0.147028 0.534490
C15   C     C_R   0.228095 0.875778 0.853292 0.548602
C16   C     C_R   0.772681 0.872980 0.145655 0.544930
O33   O     O_R   0.670090 0.410410 0.829090 -0.476221
O34   O     O_R   0.329910 0.410410 0.170910 -0.463910
O35   O     O_R   0.170090 0.910410 0.829090 -0.482919
O36   O     O_R   0.829910 0.910410 0.170910 -0.475298
O37   O     O_R   0.556450 0.252890 0.823790 -0.440642
O38   O     O_R   0.443550 0.252890 0.176210 -0.441032
O39   O     O_R   0.056450 0.752890 0.823790 -0.438252
O40   O     O_R   0.943550 0.752890 0.176210 -0.435335
C17   C     C_R   0.534509 0.157508 0.854571 0.585515
C18   C     C_R   0.467349 0.158510 0.146526 0.564515
C19   C     C_R   0.035301 0.657526 0.855061 0.587772
C20   C     C_R   0.967864 0.658409 0.146830 0.569520
O41   O     O_R   0.545750 0.051070 0.830560 -0.534799
O42   O     O_R   0.454250 0.051070 0.169440 -0.532888
O43   O     O_R   0.045750 0.551070 0.830560 -0.534382
O44   O     O_R   0.954250 0.551070 0.169440 -0.536035
O45   O     O_R   0.681210 0.959150 0.825320 -0.519275
O46   O     O_R   0.318790 0.959150 0.174680 -0.521909
O47   O     O_R   0.181210 0.459150 0.825320 -0.520048
O48   O     O_R   0.818790 0.459150 0.174680 -0.515686
C21   C     C_R   0.740653 0.974210 0.854837 0.556306
C22   C     C_R   0.261075 0.979566 0.143312 0.543015
C23   C     C_R   0.240400 0.476012 0.855766 0.559545
C24   C     C_R   0.759094 0.473404 0.145492 0.549885
Cr1   Cr    Cr6+3 0.771950 0.169480 0.750100 1.080535
Cr2   Cr    Cr6+3 0.228050 0.169480 0.249900 1.074169
Cr3   Cr    Cr6+3 0.271950 0.669480 0.750100 1.085656
Cr4   Cr    Cr6+3 0.728050 0.669480 0.249900 1.083791
Cr5   Cr    Cr6+3 0.614930 0.323340 0.749170 1.080815
Cr6   Cr    Cr6+3 0.385070 0.323340 0.250830 1.099351
Cr7   Cr    Cr6+3 0.114930 0.823340 0.749170 1.074483
Cr8   Cr    Cr6+3 0.885070 0.823340 0.250830 1.096558
Cr9   Cr    Cr6+3 0.616590 0.010620 0.750610 1.076467
Cr10  Cr    Cr6+3 0.383410 0.010620 0.249390 1.077032
Cr11  Cr    Cr6+3 0.116590 0.510620 0.750610 1.074911
Cr12  Cr    Cr6+3 0.883410 0.510620 0.249390 1.073997
O49   O     O_3   0.667820 0.167810 0.749960 -0.301822
O50   O     O_3   0.332180 0.167810 0.250040 -0.298262
O51   O     O_3   0.167820 0.667810 0.749960 -0.302039
O52   O     O_3   0.832180 0.667810 0.250040 -0.299106
C25   C     C_R   0.491624 0.146015 0.425710 -0.029419
C26   C     C_R   0.501820 0.148058 0.574577 -0.029008
C27   C     C_R   0.988194 0.643735 0.426892 -0.035480
C28   C     C_R   0.001546 0.646208 0.575168 -0.032764
C29   C     C_R   0.488321 0.249543 0.463582 -0.034023
C30   C     C_R   0.490466 0.252084 0.536079 -0.032160
C31   C     C_R   0.984107 0.746297 0.465072 -0.034531
C32   C     C_R   0.987472 0.748928 0.537278 -0.030837
C33   C     C_R   0.496072 0.036575 0.536933 0.192182
C34   C     C_R   0.493997 0.035527 0.463460 0.193346
C35   C     C_R   0.996264 0.534453 0.537891 0.196728
C36   C     C_R   0.991649 0.532792 0.464418 0.193711
C37   C     C_3   0.530832 0.357565 0.453413 -0.262814
C38   C     C_3   0.530216 0.365570 0.533460 -0.266445
C39   C     C_3   0.022817 0.857143 0.453939 -0.267343
C40   C     C_3   0.024640 0.864241 0.534072 -0.269870
H1    H     H_    0.988006 0.912281 0.421627 0.158189
H2    H     H_    0.078374 0.857813 0.555393 0.160680
H3    H     H_    0.499456 0.417010 0.419708 0.152356
H4    H     H_    0.583301 0.357188 0.556345 0.161867
H5    H     H_    0.583985 0.342481 0.431394 0.148990
H6    H     H_    0.496628 0.437684 0.554887 0.137311
H7    H     H_    0.075168 0.846199 0.430167 0.150316
H8    H     H_    0.990906 0.934470 0.556921 0.141338
C41   C     C_R   0.712121 0.856834 0.540193 -0.125821
C42   C     C_R   0.289621 0.856153 0.459424 -0.144915
C43   C     C_R   0.211911 0.355285 0.540289 -0.123052
C44   C     C_R   0.789581 0.358493 0.459969 -0.146529
H9    H     H_    0.678160 0.801743 0.570775 0.230184
H10   H     H_    0.324849 0.802215 0.428502 0.226764
H11   H     H_    0.178342 0.299590 0.571037 0.230434
H12   H     H_    0.823929 0.304431 0.428881 0.224778
C45   C     C_R   0.709721 0.850992 0.467455 -0.144120
C46   C     C_R   0.291959 0.849970 0.532283 -0.156804
C47   C     C_R   0.209863 0.348455 0.467420 -0.146966
C48   C     C_R   0.791964 0.351432 0.532744 -0.159591
H13   H     H_    0.670259 0.799267 0.442117 0.236725
H14   H     H_    0.332902 0.801343 0.557811 0.227887
H15   H     H_    0.171701 0.294199 0.441988 0.234621
H16   H     H_    0.832248 0.301489 0.558089 0.229589
C49   C     C_R   0.757040 0.914544 0.426706 0.012652
C50   C     C_R   0.243609 0.912103 0.572964 0.015450
C51   C     C_R   0.256277 0.413724 0.426538 0.007513
C52   C     C_R   0.744232 0.413710 0.573585 0.014303
C53   C     C_R   0.803957 0.994931 0.458763 0.271585
C54   C     C_R   0.196955 0.992530 0.541216 0.260907
C55   C     C_R   0.302240 0.495110 0.458551 0.272208
C56   C     C_R   0.698268 0.495490 0.542273 0.262307
C57   C     C_R   0.805301 0.003745 0.532471 0.138600
C58   C     C_R   0.193935 0.000135 0.467760 0.132160
C59   C     C_R   0.304180 0.503591 0.532138 0.140421
C60   C     C_R   0.695176 0.503819 0.468842 0.133457
C61   C     C_R   0.756414 0.937123 0.573494 -0.018863
C62   C     C_R   0.243496 0.934782 0.426195 -0.027920
C63   C     C_R   0.255873 0.436498 0.573430 -0.020345
C64   C     C_R   0.744102 0.437652 0.426954 -0.027654
C65   C     C_R   0.522188 0.065873 0.969449 -0.191994
C66   C     C_R   0.513089 0.067679 0.040630 -0.193412
C67   C     C_R   0.023659 0.565859 0.970005 -0.193811
C68   C     C_R   0.013937 0.567005 0.041181 -0.194763
H17   H     H_    0.536454 0.980540 0.946519 0.156726
H18   H     H_    0.516123 0.982860 0.068061 0.162067
H19   H     H_    0.037291 0.480448 0.946773 0.159300
H20   H     H_    0.015456 0.481656 0.068125 0.159690
C69   C     C_R   0.497569 0.173624 0.075366 -0.013464
C70   C     C_R   0.512665 0.168616 0.928791 -0.006376
C71   C     C_R   0.999736 0.673073 0.076337 -0.016926
C72   C     C_R   0.014812 0.669147 0.929764 -0.011600
C73   C     C_R   0.496771 0.285794 0.037592 0.187027
C74   C     C_R   0.496306 0.280803 0.961605 0.213456
C75   C     C_R   0.002632 0.785901 0.039471 0.212588
C76   C     C_R   0.000392 0.781885 0.963328 0.223525
C77   C     C_R   0.809138 0.973693 0.962655 -0.063165
C78   C     C_R   0.191264 0.970025 0.036909 -0.085634
C79   C     C_R   0.299560 0.504379 0.969897 -0.048270
C80   C     C_R   0.687132 0.460643 0.039813 -0.080803
H21   H     H_    0.851287 0.018205 0.935544 0.216475
H22   H     H_    0.146336 0.999566 0.066527 0.219289
H23   H     H_    0.339365 0.558957 0.945062 0.200181
H24   H     H_    0.642905 0.497649 0.067998 0.211112
C81   C     C_R   0.814119 0.963888 0.034431 0.246592
C82   C     C_R   0.184856 0.961196 0.965292 0.248777
C83   C     C_R   0.298546 0.501574 0.042457 0.263354
C84   C     C_R   0.682546 0.453491 0.967838 0.247101
C85   C     C_R   0.760043 0.905423 0.072369 0.015983
C86   C     C_R   0.241390 0.914057 0.925234 0.016796
C87   C     C_R   0.253177 0.418248 0.076248 0.007590
C88   C     C_R   0.738275 0.402066 0.928695 0.019029
C89   C     C_R   0.700964 0.862473 0.036277 -0.183894
C90   C     C_R   0.305620 0.890376 0.958084 -0.174321
C91   C     C_R   0.202407 0.356324 0.036419 -0.180554
C92   C     C_R   0.799040 0.364723 0.963730 -0.183489
H25   H     H_    0.659943 0.813963 0.063464 0.147910
H26   H     H_    0.349173 0.851989 0.929135 0.152094
H27   H     H_    0.167325 0.291355 0.060351 0.149821
H28   H     H_    0.841503 0.321161 0.935757 0.148062
C93   C     C_R   0.694754 0.881493 0.964120 -0.172934
C94   C     C_R   0.313631 0.916005 0.029275 -0.161313
C95   C     C_R   0.198288 0.373958 0.963845 -0.166922
C96   C     C_R   0.805796 0.385492 0.035650 -0.170993
H29   H     H_    0.646535 0.859634 0.937609 0.125275
H30   H     H_    0.364829 0.907339 0.053193 0.157768
H31   H     H_    0.156291 0.334378 0.933923 0.117378
H32   H     H_    0.855894 0.370869 0.060841 0.138131
C97   C     C_R   0.749732 0.934580 0.926927 -0.012228
C98   C     C_R   0.254820 0.947389 0.069724 -0.040751
C99   C     C_R   0.248551 0.443809 0.929908 -0.006184
C100  C     C_R   0.749255 0.430883 0.074121 -0.021552
N1    N     N_R   0.506116 0.923732 0.570220 0.106848
O53   O     O_R   0.569819 0.889987 0.583684 -0.371217
O54   O     O_R   0.453443 0.863907 0.597283 -0.358351
N2    N     N_R   0.496873 0.921345 0.428895 0.113073
O55   O     O_R   0.439442 0.868904 0.408643 -0.365891
O56   O     O_R   0.557261 0.876272 0.408109 -0.348104
N3    N     N_R   0.006534 0.421892 0.571828 0.117988
O57   O     O_R   0.069889 0.388347 0.587069 -0.361075
O58   O     O_R   0.953630 0.353821 0.589641 -0.363335
N4    N     N_R   0.993237 0.418150 0.429629 0.109089
O59   O     O_R   0.936042 0.373245 0.404011 -0.362548
O60   O     O_R   0.048181 0.349374 0.433486 -0.348587
O61   O     O_3   0.877433 0.994592 0.064669 -0.485657
C101  C     C_3   0.871432 0.108547 0.095612 -0.028529
H33   H     H_    0.826417 0.112721 0.134173 0.116491
H34   H     H_    0.865189 0.176980 0.053501 0.097923
H35   H     H_    0.920729 0.127617 0.125848 0.179792
O62   O     O_3   0.119096 0.980817 0.937370 -0.494517
C102  C     C_3   0.116815 0.094143 0.904571 -0.012756
H36   H     H_    0.166415 0.118058 0.877061 0.095315
H37   H     H_    0.101818 0.162745 0.943434 0.118223
H38   H     H_    0.075626 0.091868 0.862957 0.182735
O63   O     O_3   0.352600 0.561682 0.077271 -0.489131
C103  C     C_3   0.324826 0.642348 0.129793 -0.039514
H39   H     H_    0.278590 0.606076 0.161019 0.101497
H40   H     H_    0.307893 0.727855 0.104717 0.112101
H41   H     H_    0.367895 0.662142 0.168301 0.167834
O64   O     O_3   0.619588 0.485217 0.937512 -0.495371
C104  C     C_3   0.625274 0.601798 0.909792 -0.025671
H42   H     H_    0.673229 0.613863 0.877082 0.109752
H43   H     H_    0.623553 0.667509 0.952959 0.105758
H44   H     H_    0.580066 0.618145 0.874215 0.181433
O65   O     O_3   0.837704 0.078290 0.415913 -0.566711
C105  C     C_3   0.908585 0.098136 0.433909 -0.041485
H45   H     H_    0.929311 0.036464 0.473638 0.099738
H46   H     H_    0.914640 0.187257 0.457780 0.210909
H47   H     H_    0.941408 0.092688 0.385902 0.161665
O66   O     O_3   0.170214 0.083643 0.583223 -0.565626
C106  C     C_3   0.095652 0.091411 0.580008 -0.071895
H48   H     H_    0.072819 0.061617 0.529242 0.129382
H49   H     H_    0.079543 0.187885 0.580174 0.216387
H50   H     H_    0.070303 0.048169 0.627969 0.147518
O67   O     O_3   0.335973 0.578634 0.416098 -0.568260
C107  C     C_3   0.407747 0.591230 0.432537 -0.046112
H51   H     H_    0.427085 0.525277 0.470872 0.101094
H52   H     H_    0.416849 0.678613 0.457855 0.203846
H53   H     H_    0.439194 0.585375 0.383573 0.161024
O68   O     O_3   0.671942 0.585980 0.584821 -0.565889
C108  C     C_3   0.597428 0.592793 0.583092 -0.076957
H54   H     H_    0.574230 0.568050 0.531453 0.130567
H55   H     H_    0.581137 0.688726 0.587807 0.209507
H56   H     H_    0.572818 0.544745 0.629775 0.149815
N5    N     N_R   0.846056 0.098907 0.562356 -0.265627
O69   O     O_R   0.901572 0.078524 0.600611 -0.000143
O70   O     O_R   0.901535 0.078522 0.600591 -0.000143
N6    N     N_R   0.150854 0.093069 0.438566 -0.247581
O71   O     O_R   0.096574 0.070117 0.399313 -0.001720
O72   O     O_R   0.096561 0.069265 0.399256 -0.001717
N7    N     N_R   0.345679 0.598143 0.561803 -0.265117
O73   O     O_R   0.402223 0.576914 0.598494 -0.001434
O74   O     O_R   0.402115 0.576236 0.598419 -0.001433
N8    N     N_R   0.652445 0.597297 0.439956 -0.250914
O75   O     O_R   0.597794 0.575236 0.400994 -0.002021
O76   O     O_R   0.597716 0.574260 0.400870 -0.002017
N9    N     N_R   0.504248 0.396516 0.077656 0.102943
O77   O     O_R   0.540068 0.395449 0.136345 -0.353944
O78   O     O_R   0.485073 0.501973 0.053209 -0.232124
N10   N     N_R   0.468752 0.375880 0.916809 0.107433
O79   O     O_R   0.429066 0.348232 0.863558 -0.351367
O80   O     O_R   0.483490 0.488609 0.925482 -0.268357
N11   N     N_R   0.016798 0.894203 0.080520 0.114170
O81   O     O_R   0.044531 0.885040 0.142906 -0.356733
O82   O     O_R   0.016880 0.000787 0.053396 -0.276593
N12   N     N_R   0.973341 0.878496 0.919030 0.107161
O83   O     O_R   0.937382 0.852634 0.862880 -0.359995
O84   O     O_R   0.978567 0.991080 0.934773 -0.286185

loop_
_geom_bond_atom_site_label_1
_geom_bond_atom_site_label_2
_geom_bond_distance
_ccdc_geom_bond_type
C37   H3    1.099345 S    
C73   N9    1.460094 S    
N3    O57   1.299637 A    
O4    C12   1.251757 A    
C53   C57   1.402826 A    
C29   C30   1.377008 A    
O39   C19   1.286130 A    
O20   Cr12  2.085885 S    
O29   C13   1.290466 A    
C59   N7    1.436788 S    
C31   C32   1.372336 A    
O8    Cr4   1.980379 S    
C56   C60   1.398105 A    
O64   C104  1.409961 S    
C105  H46   1.100884 S    
N7    O74   1.305286 A    
C65   C66   1.362795 A    
C89   C93   1.390913 A    
C55   C59   1.400499 A    
C84   C88   1.421126 A    
N3    O58   1.311094 A    
N5    O69   1.304708 A    
C73   C74   1.443515 A    
C60   N8    1.434181 S    
O36   Cr8   2.086335 S    
C77   H21   1.078826 S    
O24   C12   1.303527 A    
N6    O72   1.304859 A    
O67   C107  1.413707 S    
C104  H42   1.116407 S    
C70   C74   1.435147 A    
C51   C55   1.403300 A    
C102  H37   1.102473 S    
O45   Cr9   1.964779 S    
C82   C86   1.423401 A    
N9    O77   1.306656 A    
O45   C21   1.277376 A    
O47   C23   1.283728 A    
C91   C95   1.393691 A    
N1    O53   1.299484 A    
C37   H5    1.112137 S    
C96   C100  1.400418 A    
O21   C9    1.303925 A    
C28   C32   1.381000 A    
C104  H44   1.110804 S    
O23   Cr11  1.965836 S    
O68   C108  1.426731 S    
C48   C52   1.385708 A    
C105  H47   1.108995 S    
C39   H7    1.105237 S    
O30   C14   1.285606 A    
C2    O10   1.267131 A    
O32   Cr4   1.974218 S    
C1    O9    1.268265 A    
C2    C51   1.461701 S    
O44   Cr12  2.085633 S    
C65   H17   1.083678 S    
O25   Cr1   2.099163 S    
C92   C96   1.390669 A    
C67   C68   1.364193 A    
C66   H18   1.083267 S    
C3    O11   1.268178 A    
C47   H15   1.064409 S    
O11   Cr7   2.093635 S    
C4    O12   1.264860 A    
O28   Cr4   2.100033 S    
N2    O55   1.302578 A    
C106  H48   1.108611 S    
C38   H4    1.107038 S    
C68   C71   1.387812 A    
O27   Cr3   2.099163 S    
C27   C36   1.431717 A    
C46   C50   1.391012 A    
C79   C83   1.377883 A    
Cr4   O52   1.990676 S    
C26   C33   1.441140 A    
C95   H31   1.078039 S    
O2    Cr2   2.095328 S    
O8    C4    1.298965 A    
C23   C99   1.460656 S    
C48   H16   1.064921 S    
C47   C51   1.387617 A    
C22   C98   1.447307 S    
Cr6   O50   2.012434 S    
C79   C99   1.408726 A    
O42   Cr10  2.085633 S    
Cr5   O49   2.010816 S    
O18   Cr10  2.085885 S    
C44   C64   1.388649 A    
C86   C90   1.401129 A    
O5    Cr1   1.979738 S    
C106  H49   1.121536 S    
C5    C26   1.476845 S    
C33   C34   1.395234 A    
C50   C54   1.401298 A    
C59   C63   1.426028 A    
O34   Cr6   2.086335 S    
Cr7   O51   2.010816 S    
C103  H39   1.139949 S    
C31   C39   1.459636 S    
Cr9   O49   2.012850 S    
C26   C30   1.390171 A    
C91   H27   1.088895 S    
C7    O19   1.258967 A    
O31   Cr3   1.974547 S    
O24   Cr12  1.966313 S    
O16   Cr8   1.965517 S    
C43   C63   1.387948 A    
O30   Cr2   1.974218 S    
N5    O70   1.303925 A    
C4    C49   1.463750 S    
O22   C10   1.303251 A    
C71   C75   1.443657 A    
O48   Cr12  1.965651 S    
C37   C38   1.522185 S    
C60   C64   1.433895 A    
C80   H24   1.083216 S    
C43   C47   1.385830 A    
O61   C101  1.407835 S    
C58   C62   1.433806 A    
C13   C88   1.459303 S    
C29   C37   1.469276 S    
O63   C103  1.445982 S    
N9    O78   1.318485 A    
C36   N4    1.442417 S    
N4    O59   1.297392 A    
N10   O79   1.300270 A    
C15   O35   1.260093 A    
O26   Cr2   2.100033 S    
C9    C61   1.469732 S    
C24   C100  1.447894 S    
Cr10  O50   2.011278 S    
O6    Cr2   1.980379 S    
O7    Cr3   1.979738 S    
O14   Cr6   1.965517 S    
C107  H53   1.109749 S    
O13   C5    1.315653 A    
C42   C46   1.385365 A    
C44   H12   1.070325 S    
C43   H11   1.068725 S    
O43   Cr11  2.085255 S    
O48   C24   1.277505 A    
O12   Cr8   2.093087 S    
C14   C87   1.463237 S    
Cr12  O52   2.011278 S    
C46   H14   1.068069 S    
C79   H23   1.084289 S    
C102  H36   1.115975 S    
C45   H13   1.065157 S    
O65   C105  1.414528 S    
C84   O64   1.379234 S    
C18   C69   1.479805 S    
C33   N1    1.423650 S    
O46   Cr10  1.965651 S    
O39   Cr7   1.970637 S    
O25   C21   1.270961 A    
C94   H30   1.082417 S    
C88   C92   1.400768 A    
O7    C3    1.290275 A    
C75   C76   1.446629 A    
C78   C82   1.368349 A    
C85   C89   1.404934 A    
C52   C56   1.399224 A    
C81   O61   1.382243 S    
C78   C98   1.387402 A    
C21   C97   1.448368 S    
C107  H52   1.102787 S    
C54   O66   1.391373 S    
C77   C97   1.392540 A    
C93   H29   1.077701 S    
C39   H1    1.093931 S    
C90   H26   1.086504 S    
O47   Cr11  1.964779 S    
Cr2   O50   1.990676 S    
O15   Cr7   1.966643 S    
C67   C72   1.394494 A    
Cr1   O49   1.990709 S    
C42   H10   1.078251 S    
C18   O42   1.302208 A    
C41   H9    1.067633 S    
C65   C70   1.395413 A    
C103  H41   1.122223 S    
C101  H34   1.112593 S    
Cr3   O51   1.990709 S    
O26   C22   1.271496 A    
O21   Cr9   1.965836 S    
C80   C84   1.371254 A    
O28   C24   1.270039 A    
C74   N10   1.458612 S    
C57   C61   1.427698 A    
C108  H55   1.120315 S    
O9    Cr5   2.093635 S    
C87   C91   1.411311 A    
O37   Cr5   1.970637 S    
C106  H50   1.139841 S    
C49   C53   1.407964 A    
C19   O43   1.293524 A    
C102  H38   1.114636 S    
O66   C106  1.429131 S    
O27   C23   1.268593 A    
O3    C11   1.254888 A    
N7    O73   1.306364 A    
C3    C50   1.463745 S    
C42   C62   1.394487 A    
N8    O76   1.307371 A    
O3    Cr3   2.095463 S    
O15   C7    1.317037 A    
C8    O20   1.248057 A    
C40   H8    1.104916 S    
C16   C85   1.457258 S    
O38   C18   1.280006 A    
C1    C52   1.462479 S    
C7    C28   1.472351 S    
C32   C40   1.474034 S    
C5    O17   1.263053 A    
C10   C62   1.472096 S    
O37   C17   1.286901 A    
O22   Cr10  1.966313 S    
C44   C48   1.384345 A    
C35   N3    1.426974 S    
O14   C6    1.314381 A    
C76   N12   1.462307 S    
C94   C98   1.406835 A    
C25   C29   1.364253 A    
C68   H20   1.082945 S    
C56   O68   1.389340 S    
C45   C49   1.387423 A    
O31   C15   1.293272 A    
C96   H32   1.081946 S    
O17   Cr9   2.085203 S    
Cr11  O51   2.012850 S    
C54   C58   1.398032 A    
C57   N5    1.435690 S    
C19   C72   1.477537 S    
C80   C100  1.393419 A    
C17   O41   1.292452 A    
C40   H2    1.105668 S    
C82   O62   1.380710 S    
C72   C76   1.439199 A    
C101  H35   1.123150 S    
C17   C70   1.475411 S    
C14   O34   1.271609 A    
C58   N6    1.435836 S    
O40   Cr8   1.970097 S    
C35   C36   1.397441 A    
C34   N2    1.436618 S    
C103  H40   1.115389 S    
C20   O44   1.301191 A    
N11   O81   1.300596 A    
O1    Cr1   2.095463 S    
N1    O54   1.314616 A    
N8    O75   1.302726 A    
C12   C64   1.471824 S    
C20   C71   1.480449 S    
C77   C81   1.369998 A    
Cr8   O52   2.012434 S    
O32   C16   1.289207 A    
O41   Cr9   2.085255 S    
O33   Cr5   2.087591 S    
O13   Cr5   1.966643 S    
N11   O82   1.298105 A    
O2    C10   1.253399 A    
O46   C22   1.273193 A    
C66   C69   1.387985 A    
C25   C34   1.428668 A    
C89   H25   1.085152 S    
C67   H19   1.083786 S    
O62   C102  1.412298 S    
O23   C11   1.302471 A    
O19   Cr11  2.085203 S    
C107  H51   1.099216 S    
C104  H43   1.101224 S    
C6    C25   1.455390 S    
C41   C61   1.386431 A    
C13   O33   1.262845 A    
C78   H22   1.078946 S    
N12   O84   1.297791 A    
O10   Cr6   2.093087 S    
C69   C73   1.444591 A    
C105  H45   1.095165 S    
O35   Cr7   2.087591 S    
C55   O67   1.392855 S    
C53   O65   1.396121 S    
C15   C86   1.453261 S    
C38   H6    1.108157 S    
O6    C2    1.295625 A    
O1    C9    1.252057 A    
O29   Cr1   1.974547 S    
C8    C27   1.454462 S    
C90   C94   1.389693 A    
O40   C20   1.281947 A    
C16   O36   1.265269 A    
C41   C45   1.382978 A    
O4    Cr4   2.095328 S    
C30   C38   1.480515 S    
C27   C31   1.359015 A    
N10   O80   1.302233 A    
C101  H33   1.131686 S    
C6    O18   1.252772 A    
C108  H56   1.138835 S    
C39   C40   1.523540 S    
C81   C85   1.420662 A    
N12   O83   1.300028 A    
C95   C99   1.396992 A    
C93   C97   1.399654 A    
O5    C1    1.289956 A    
C108  H54   1.110339 S    
N4    O60   1.303122 A    
C75   N11   1.465330 S    
O16   C8    1.316740 A    
N2    O56   1.320234 A    
C83   O63   1.398294 S    
C92   H28   1.085857 S    
C28   C35   1.439700 A    
C11   C63   1.470770 S    
N6    O71   1.302144 A    
O38   Cr6   1.970097 S    
C83   C87   1.426486 A    
