data_mof_unit_48339.cif
_audit_creation_date              2012-12-10T16:50:09-0500
_audit_creation_method            fapswitch 2.2
_symmetry_space_group_name_H-M    P1
_symmetry_Int_Tables_number       1
_space_group_crystal_system       triclinic
_cell_length_a                    23.267578
_cell_length_b                    8.700568
_cell_length_c                    7.5446
_cell_angle_alpha                 102.960577
_cell_angle_beta                  94.92761
_cell_angle_gamma                 92.721434
_cell_volume                      1479.41863179

loop_
_atom_site_label
_atom_site_type_symbol
_atom_type_description
_atom_site_fract_x
_atom_site_fract_y
_atom_site_fract_z
_atom_type_partial_charge
C1    C     C_R   0.498139 0.200084 0.453448 0.844169
C2    C     C_R   0.501637 0.799897 0.546569 0.848038
C3    C     C_R   0.248410 0.674878 0.478698 0.499686
C4    C     C_R   0.760467 0.400829 0.425621 0.489810
C5    C     C_R   0.307767 0.661566 0.511753 -0.299531
C6    C     C_R   0.702158 0.386933 0.455943 -0.297929
C7    C     C_R   0.329345 0.513148 0.501935 -0.062335
C8    C     C_R   0.670958 0.521299 0.495356 -0.091335
C9    C     C_R   0.291477 0.377968 0.468030 -0.265039
C10   C     C_R   0.698035 0.671264 0.508534 -0.286118
C11   C     C_R   0.231932 0.391913 0.451965 -0.158799
C12   C     C_R   0.756884 0.687067 0.489146 -0.178119
C13   C     C_R   0.210040 0.540168 0.458216 0.251377
C14   C     C_R   0.788533 0.552626 0.448694 0.273580
C15   C     C_2   0.497161 0.031937 0.427774 -0.372936
C16   C     C_2   0.502265 0.968000 0.572276 -0.379063
C17   C     C_R   0.391285 0.499277 0.500841 0.772809
C18   C     C_R   0.608694 0.504320 0.499210 0.787910
C19   C     C_R   0.883998 0.619393 0.608216 0.557570
C20   C     C_R   0.114894 0.504870 0.289738 0.510114
C21   C     C_R   0.873847 0.536973 0.282525 0.552419
C22   C     C_R   0.125281 0.611431 0.612460 0.592711
C23   C     C_R   0.933902 0.531142 0.280060 -0.008119
C24   C     C_R   0.065400 0.621243 0.613600 -0.020519
C25   C     C_R   0.969387 0.577000 0.446310 -0.013038
C26   C     C_R   0.029923 0.571993 0.447640 -0.018825
C27   C     C_R   0.944429 0.626922 0.611455 -0.024324
C28   C     C_R   0.054742 0.515067 0.283589 -0.011978
C29   C     C_R   0.959114 0.478049 0.116551 -0.178453
C30   C     C_R   0.040227 0.677034 0.776613 -0.169364
C31   C     C_R   0.018878 0.468261 0.118584 -0.183683
C32   C     C_R   0.980310 0.679284 0.775596 -0.185151
Cu1   Cu    Cu3+1 0.506340 0.517380 0.684380 1.003009
Cu2   Cu    Cu3+1 0.493660 0.482620 0.315620 1.003462
H1    H     H_    0.932671 0.440884 0.987074 0.202066
H2    H     H_    0.066640 0.716704 0.905873 0.187611
H3    H     H_    0.036842 0.424054 0.990601 0.196238
H4    H     H_    0.962215 0.721065 0.903870 0.193231
H5    H     H_    0.337308 0.765799 0.534479 0.139102
H6    H     H_    0.680806 0.271597 0.445599 0.136129
H7    H     H_    0.202754 0.287517 0.432946 0.166386
H8    H     H_    0.778011 0.803701 0.505554 0.164903
H9    H     H_    0.492354 0.960389 0.288590 0.200756
H10   H     H_    0.507026 0.039525 0.711458 0.204939
N1    N     N_R   0.850044 0.571190 0.445552 -0.449559
N2    N     N_R   0.148791 0.554437 0.452304 -0.453767
N3    N     N_2   0.484110 0.456420 0.038520 0.127899
N4    N     N_2   0.515890 0.543580 0.961480 0.141198
O1    O     O_R   0.504120 0.286130 0.619770 -0.534477
O2    O     O_R   0.495880 0.713870 0.380230 -0.530770
O3    O     O_R   0.493410 0.256770 0.308360 -0.596572
O4    O     O_R   0.506590 0.743230 0.691640 -0.604428
O5    O     O_R   0.423230 0.514630 0.655730 -0.561160
O6    O     O_R   0.576770 0.485370 0.344270 -0.566159
O7    O     O_R   0.412530 0.485280 0.344320 -0.624951
O8    O     O_R   0.587470 0.514720 0.655680 -0.611635
O9    O     O_2   0.859313 0.657948 0.766340 -0.520508
O10   O     O_2   0.139260 0.445256 0.135166 -0.545640
O11   O     O_2   0.839706 0.509943 0.123693 -0.558135
O12   O     O_2   0.159702 0.655590 0.770792 -0.558338
O13   O     O_3   0.228461 0.819146 0.463399 -0.623920
C33   C     C_3   0.220261 0.822496 0.275604 0.070182
H11   H     H_    0.186918 0.906955 0.259707 0.170146
H12   H     H_    0.202918 0.706610 0.186639 0.197389
C34   C     C_3   0.276163 0.879433 0.207603 -0.428376
H13   H     H_    0.285562 0.007632 0.267429 0.211775
H14   H     H_    0.313386 0.816584 0.249519 0.224723
C35   C     C_3   0.271303 0.849355 0.999680 -0.795777
H15   H     H_    0.264698 0.720513 0.938297 0.287593
H16   H     H_    0.312101 0.892971 0.955773 0.241950
H17   H     H_    0.234842 0.911202 0.949324 0.288820
O14   O     O_3   0.790269 0.266082 0.378589 -0.618127
C36   C     C_3   0.781510 0.205493 0.186518 0.091293
H18   H     H_    0.823504 0.166440 0.139182 0.189388
H19   H     H_    0.767512 0.294215 0.108517 0.165643
C37   C     C_3   0.737044 0.063546 0.136454 -0.389516
H20   H     H_    0.751489 0.970130 0.205771 0.232555
H21   H     H_    0.694657 0.099675 0.181872 0.205759
C38   C     C_3   0.728812 0.997847 0.929750 -0.894505
H22   H     H_    0.720562 0.093739 0.857158 0.255626
H23   H     H_    0.690749 0.911484 0.894218 0.240310
H24   H     H_    0.767787 0.938560 0.882257 0.290464
H25   H     H_    0.307985 0.262356 0.454157 0.139102
H26   H     H_    0.673598 0.775579 0.534676 0.150407
O15   O     O_3   0.458561 0.325867 0.922514 -0.510993
C39   C     C_3   0.402192 0.304061 0.970069 0.197588
H27   H     H_    0.380800 0.418100 0.994909 0.153016
H28   H     H_    0.403101 0.253266 0.092536 0.154600
C40   C     C_3   0.366794 0.186343 0.813499 -0.430429
H29   H     H_    0.375117 0.214564 0.681317 0.231868
H30   H     H_    0.380406 0.065093 0.810549 0.210093
C41   C     C_3   0.302200 0.191247 0.835201 -0.884478
H31   H     H_    0.293329 0.172555 0.971349 0.261984
H32   H     H_    0.277709 0.097541 0.727069 0.292342
H33   H     H_    0.287021 0.307783 0.822626 0.276535
O16   O     O_3   0.545804 0.664700 0.083532 -0.506844
C42   C     C_3   0.600342 0.696780 0.025676 0.167373
H34   H     H_    0.621157 0.801789 0.126989 0.113157
H35   H     H_    0.596122 0.735469 0.895714 0.159171
C43   C     C_3   0.640780 0.560600 0.024779 -0.386931
H36   H     H_    0.646597 0.536687 0.160715 0.241115
H37   H     H_    0.622280 0.448739 0.931689 0.239711
C44   C     C_3   0.701220 0.600987 0.978301 -0.829369
H38   H     H_    0.699167 0.642571 0.850738 0.275852
H39   H     H_    0.726337 0.494282 0.960168 0.278948
H40   H     H_    0.724051 0.694226 0.090399 0.266421

loop_
_geom_bond_atom_site_label_1
_geom_bond_atom_site_label_2
_ccdc_geom_bond_type
C36   H18   S    
C37   C38   S    
C42   H34   S    
O15   C39   S    
C19   O9    S    
Cu1   O4    S    
Cu2   O3    S    
C23   C29   A    
C24   C26   A    
C21   O11   S    
C22   O12   S    
C13   N2    S    
C39   H28   S    
Cu1   O1    S    
C15   C16   D    
C41   H31   S    
C33   H12   S    
C2    O2    A    
C35   H15   S    
C7    C17   S    
C12   H8    S    
C1    C15   S    
C32   H4    S    
C40   H30   S    
C2    C16   S    
C16   H10   S    
C3    C13   A    
C18   O8    A    
Cu1   O8    S    
C23   C25   A    
Cu2   O7    S    
C36   H19   S    
C10   C12   A    
C41   H32   S    
C42   H35   S    
C14   N1    S    
C21   N1    A    
C3    O13   S    
Cu1   O5    S    
Cu2   O2    S    
C37   H20   S    
C4    C6    A    
C38   H23   S    
C39   H27   S    
C6    C8    A    
C20   C28   A    
C34   H14   S    
C25   C26   A    
C43   C44   S    
C8    C18   S    
C31   H3    S    
C33   H11   S    
C1    O3    A    
N3    N4    D    
N3    O15   S    
C34   C35   S    
O16   C42   S    
C43   H37   S    
Cu1   Cu2   S    
C44   H39   S    
C40   C41   S    
C9    C11   A    
C2    O4    A    
C9    H25   S    
C8    C10   A    
C22   N2    A    
C12   C14   A    
Cu2   O6    S    
C21   C23   A    
C36   C37   S    
C6    H6    S    
C20   O10   S    
C17   O5    A    
C4    O14   S    
C42   C43   S    
C19   C27   A    
C5    C7    A    
C7    C9    A    
C17   O7    A    
N4    O16   S    
C33   C34   S    
C27   C32   A    
C28   C31   A    
C37   H21   S    
O14   C36   S    
C3    C5    A    
C39   C40   S    
C38   H24   S    
C19   N1    A    
C25   C27   A    
C29   H1    S    
C26   C28   A    
C30   H2    S    
C5    H5    S    
C15   H9    S    
C29   C31   A    
C30   C32   A    
C11   C13   A    
C35   H17   S    
C10   H26   S    
C43   H36   S    
C11   H7    S    
C44   H40   S    
C22   C24   A    
C41   H33   S    
C4    C14   A    
O13   C33   S    
C24   C30   A    
C18   O6    A    
C38   H22   S    
C35   H16   S    
C34   H13   S    
C44   H38   S    
Cu1   N4    S    
Cu2   N3    S    
C40   H29   S    
C1    O1    A    
C20   N2    A    
