data_mof_unit_24892.cif
_audit_creation_date              2012-12-11T14:41:13-0500
_audit_creation_method            fapswitch 2.2
_symmetry_space_group_name_H-M    P1
_symmetry_Int_Tables_number       1
_space_group_crystal_system       monoclinic
_cell_length_a                    6.9478
_cell_length_b                    17.699421
_cell_length_c                    18.899883
_cell_angle_alpha                 90.0
_cell_angle_beta                  90.0
_cell_angle_gamma                 89.999984
_cell_volume                      2324.1571158

loop_
_atom_site_label
_atom_site_type_symbol
_atom_type_description
_atom_site_fract_x
_atom_site_fract_y
_atom_site_fract_z
_atom_type_partial_charge
O1    O     O_R   0.377350 0.828520 0.186660 -0.542243
O2    O     O_R   0.622650 0.171480 0.813340 -0.534103
O3    O     O_R   0.122650 0.171480 0.686660 -0.542244
O4    O     O_R   0.877350 0.828520 0.313340 -0.534102
O5    O     O_R   0.877350 0.671480 0.313340 -0.542243
O6    O     O_R   0.122650 0.328520 0.686660 -0.534102
O7    O     O_R   0.622650 0.328520 0.813340 -0.542243
O8    O     O_R   0.377350 0.671480 0.186660 -0.534102
O9    O     O_R   0.707090 0.671930 0.178410 -0.543124
O10   O     O_R   0.292910 0.328070 0.821590 -0.540017
O11   O     O_R   0.792910 0.328070 0.678410 -0.543124
O12   O     O_R   0.207090 0.671930 0.321590 -0.540017
O13   O     O_R   0.207090 0.828070 0.321590 -0.543124
O14   O     O_R   0.792910 0.171930 0.678410 -0.540017
O15   O     O_R   0.292910 0.171930 0.821590 -0.543125
O16   O     O_R   0.707090 0.828070 0.178410 -0.540017
C1    C     C_R   0.539536 0.643854 0.163426 0.721660
C2    C     C_R   0.460329 0.355251 0.837579 0.727264
C3    C     C_R   0.960463 0.356146 0.663426 0.721659
C4    C     C_R   0.039671 0.644749 0.337579 0.727263
C5    C     C_R   0.039536 0.856146 0.336574 0.721660
C6    C     C_R   0.960329 0.144749 0.662421 0.727264
C7    C     C_R   0.460463 0.143854 0.836574 0.721660
C8    C     C_R   0.539671 0.855251 0.162421 0.727264
O17   O     O_3   0.543850 0.750000 0.294270 -0.369070
O18   O     O_3   0.456150 0.250000 0.705730 -0.369070
O19   O     O_3   0.956150 0.250000 0.794270 -0.369070
O20   O     O_3   0.043850 0.750000 0.205730 -0.369070
V1    V     V_3+5 0.818700 0.750000 0.241790 1.381019
V2    V     V_3+5 0.181300 0.250000 0.758210 1.381018
V3    V     V_3+5 0.681300 0.250000 0.741790 1.381018
V4    V     V_3+5 0.318700 0.750000 0.258210 1.381019
C9    C     C_R   0.962714 0.420297 0.612374 -0.184784
C10   C     C_R   0.038852 0.580602 0.388580 -0.170672
C11   C     C_R   0.537286 0.579703 0.112374 -0.184784
C12   C     C_R   0.461147 0.419398 0.888580 -0.170672
C13   C     C_R   0.462714 0.079703 0.887625 -0.184783
C14   C     C_R   0.538852 0.919398 0.111420 -0.170672
C15   C     C_R   0.037285 0.920297 0.387626 -0.184784
C16   C     C_R   0.961148 0.080602 0.611420 -0.170671
C17   C     C_R   0.185472 0.465125 0.436104 0.279424
C18   C     C_R   0.821507 0.537183 0.565874 0.289608
C19   C     C_R   0.314528 0.534875 0.936104 0.279424
C20   C     C_R   0.678493 0.462817 0.065874 0.289608
C21   C     C_R   0.685472 0.034875 0.063896 0.279424
C22   C     C_R   0.321507 0.962817 0.934126 0.289608
C23   C     C_R   0.814528 0.965125 0.563896 0.279424
C24   C     C_R   0.178492 0.037183 0.434126 0.289609
C25   C     C_R   0.172011 0.520190 0.382379 0.249512
C26   C     C_R   0.843001 0.484470 0.621632 0.255542
C27   C     C_R   0.327989 0.479810 0.882379 0.249512
C28   C     C_R   0.656998 0.515530 0.121632 0.255542
C29   C     C_R   0.672011 0.979810 0.117621 0.249512
C30   C     C_R   0.343002 0.015530 0.878368 0.255543
C31   C     C_R   0.827989 0.020190 0.617621 0.249512
C32   C     C_R   0.156998 0.984470 0.378368 0.255542
C33   C     C_R   0.917587 0.583499 0.447679 -0.276159
C34   C     C_R   0.076880 0.415141 0.551467 -0.279370
C35   C     C_R   0.582412 0.416501 0.947680 -0.276160
C36   C     C_R   0.423120 0.584859 0.051467 -0.279370
C37   C     C_R   0.417587 0.916501 0.052320 -0.276160
C38   C     C_R   0.576880 0.084859 0.948533 -0.279370
C39   C     C_R   0.082412 0.083499 0.552320 -0.276160
C40   C     C_R   0.923120 0.915141 0.448533 -0.279370
C41   C     C_R   0.933619 0.530428 0.503378 -0.006704
C42   C     C_R   0.067099 0.470076 0.497204 -0.014942
C43   C     C_R   0.566381 0.469572 0.003378 -0.006704
C44   C     C_R   0.432901 0.529923 0.997205 -0.014942
C45   C     C_R   0.433619 0.969572 0.996622 -0.006704
C46   C     C_R   0.567099 0.029923 0.002795 -0.014942
C47   C     C_R   0.066380 0.030428 0.496622 -0.006704
C48   C     C_R   0.932901 0.970077 0.502795 -0.014942
H1    H     H_    0.169294 0.366299 0.546239 0.149290
H2    H     H_    0.816381 0.629769 0.450688 0.145198
H3    H     H_    0.330706 0.633701 0.046239 0.149291
H4    H     H_    0.683619 0.370231 0.950688 0.145198
H5    H     H_    0.669293 0.133701 0.953761 0.149291
H6    H     H_    0.316381 0.870231 0.049312 0.145198
H7    H     H_    0.830707 0.866298 0.453761 0.149290
H8    H     H_    0.183618 0.129769 0.549312 0.145198
N1    N     N_2   0.747025 0.498316 0.687438 -0.519676
H9    H     H_    0.728102 0.453362 0.721166 0.252431
C49   C     C_3   0.796378 0.567852 0.724086 -0.509116
H10   H     H_    0.842574 0.555261 0.779127 0.207725
H11   H     H_    0.668785 0.605336 0.726125 0.207514
H12   H     H_    0.914712 0.599054 0.697334 0.191821
N2    N     N_2   0.299966 0.514718 0.323600 -0.505012
H13   H     H_    0.402155 0.556812 0.321013 0.262080
C50   C     C_3   0.211267 0.497170 0.256326 -0.499796
H14   H     H_    0.121705 0.544834 0.237427 0.191318
H15   H     H_    0.122427 0.445514 0.260947 0.199688
H16   H     H_    0.323778 0.486785 0.216114 0.194068
N3    N     N_2   0.752974 0.501684 0.187438 -0.519676
H17   H     H_    0.771897 0.546637 0.221166 0.252431
C51   C     C_3   0.703622 0.432148 0.224086 -0.509116
H18   H     H_    0.657425 0.444739 0.279127 0.207725
H19   H     H_    0.831215 0.394664 0.226125 0.207514
H20   H     H_    0.585287 0.400946 0.197334 0.191821
N4    N     N_2   0.200034 0.485282 0.823600 -0.505012
H21   H     H_    0.097845 0.443188 0.821013 0.262080
C52   C     C_3   0.288732 0.502830 0.756326 -0.499800
H22   H     H_    0.176222 0.513215 0.716114 0.194069
H23   H     H_    0.378295 0.455166 0.737427 0.191319
H24   H     H_    0.377572 0.554486 0.760947 0.199689
N5    N     N_2   0.247027 0.001683 0.812562 -0.519676
H25   H     H_    0.228103 0.046637 0.778833 0.252431
C53   C     C_3   0.296380 0.932148 0.775914 -0.509117
H26   H     H_    0.342576 0.944738 0.720872 0.207725
H27   H     H_    0.168788 0.894663 0.773875 0.207514
H28   H     H_    0.414716 0.900946 0.802666 0.191821
N6    N     N_2   0.799965 0.985282 0.176400 -0.505012
H29   H     H_    0.902155 0.943188 0.178987 0.262080
C54   C     C_3   0.711267 0.002830 0.243674 -0.499798
H30   H     H_    0.621705 0.955166 0.262573 0.191319
H31   H     H_    0.622426 0.054486 0.239053 0.199689
H32   H     H_    0.823777 0.013215 0.283886 0.194069
N7    N     N_2   0.252973 0.998316 0.312562 -0.519676
H33   H     H_    0.271896 0.953362 0.278833 0.252431
C55   C     C_3   0.203621 0.067852 0.275913 -0.509116
H34   H     H_    0.157425 0.055261 0.220872 0.207725
H35   H     H_    0.331214 0.105336 0.273875 0.207514
H36   H     H_    0.085286 0.099054 0.302665 0.191821
N8    N     N_2   0.700036 0.014717 0.676401 -0.505012
H37   H     H_    0.597845 0.056812 0.678987 0.262080
C56   C     C_3   0.788735 0.997170 0.743674 -0.499797
H38   H     H_    0.878291 0.044836 0.762575 0.191319
H39   H     H_    0.877583 0.945516 0.739053 0.199689
H40   H     H_    0.676225 0.986783 0.783886 0.194069
N9    N     N_2   0.329821 0.408263 0.429714 -0.497562
H41   H     H_    0.411639 0.399907 0.474550 0.247672
C57   C     C_3   0.266228 0.338825 0.396788 -0.533656
H42   H     H_    0.390315 0.299755 0.391088 0.192667
H43   H     H_    0.207078 0.350224 0.343346 0.211003
H44   H     H_    0.154230 0.310895 0.429569 0.173946
N10   N     N_2   0.686413 0.597105 0.574587 -0.509947
H45   H     H_    0.734132 0.650125 0.560486 0.238047
C58   C     C_3   0.493685 0.579748 0.550728 -0.525844
H46   H     H_    0.395943 0.627322 0.563943 0.186790
H47   H     H_    0.439273 0.528080 0.577517 0.216669
H48   H     H_    0.492275 0.571077 0.492508 0.189840
N11   N     N_2   0.170179 0.591737 0.929714 -0.497562
H49   H     H_    0.088361 0.600093 0.974550 0.247672
C59   C     C_3   0.233772 0.661175 0.896788 -0.533655
H50   H     H_    0.109685 0.700245 0.891088 0.192667
H51   H     H_    0.292920 0.649776 0.843346 0.211003
H52   H     H_    0.345770 0.689104 0.929569 0.173946
N12   N     N_2   0.813587 0.402895 0.074587 -0.509947
H53   H     H_    0.765868 0.349875 0.060486 0.238047
C60   C     C_3   0.006315 0.420252 0.050727 -0.525844
H54   H     H_    0.007724 0.428923 0.992507 0.189840
H55   H     H_    0.104057 0.372678 0.063942 0.186790
H56   H     H_    0.060727 0.471920 0.077517 0.216668
N13   N     N_2   0.829821 0.091737 0.070286 -0.497562
H57   H     H_    0.911639 0.100093 0.025450 0.247672
C61   C     C_3   0.766229 0.161175 0.103212 -0.533656
H58   H     H_    0.890316 0.200245 0.108912 0.192667
H59   H     H_    0.707080 0.149775 0.156654 0.211004
H60   H     H_    0.654231 0.189105 0.070431 0.173946
N14   N     N_2   0.186413 0.902895 0.925413 -0.509947
H61   H     H_    0.234133 0.849875 0.939514 0.238047
C62   C     C_3   0.993685 0.920252 0.949272 -0.525844
H62   H     H_    0.895943 0.872678 0.936057 0.186790
H63   H     H_    0.939273 0.971920 0.922483 0.216668
H64   H     H_    0.992276 0.928923 0.007492 0.189840
N15   N     N_2   0.670179 0.908263 0.570286 -0.497562
H65   H     H_    0.588362 0.899907 0.525450 0.247672
C63   C     C_3   0.733772 0.838825 0.603213 -0.533655
H66   H     H_    0.845770 0.810895 0.570432 0.173946
H67   H     H_    0.609685 0.799755 0.608913 0.192667
H68   H     H_    0.792922 0.850225 0.656655 0.211004
N16   N     N_2   0.313587 0.097105 0.425413 -0.509947
H69   H     H_    0.265867 0.150125 0.439513 0.238047
C64   C     C_3   0.506314 0.079748 0.449272 -0.525844
H70   H     H_    0.507724 0.071077 0.507492 0.189840
H71   H     H_    0.604057 0.127322 0.436057 0.186789
H72   H     H_    0.560727 0.028080 0.422483 0.216669

loop_
_geom_bond_atom_site_label_1
_geom_bond_atom_site_label_2
_ccdc_geom_bond_type
C59   H52   S    
O2    V3    S    
N2    H13   S    
N15   H65   S    
C61   H59   S    
C51   H18   S    
C32   N7    S    
C25   N2    S    
C38   H5    S    
N6    H29   S    
O14   V3    S    
N16   H69   S    
C57   H44   S    
C19   C27   A    
N7    C55   S    
N1    H9    S    
C51   H20   S    
N10   H45   S    
C63   H67   S    
O5    C4    A    
C64   H70   S    
C15   C40   A    
C58   H47   S    
O11   C3    A    
C9    C34   A    
C16   C39   A    
O20   V1    S    
N12   C60   S    
N9    H41   S    
C55   H35   S    
C60   H55   S    
N14   H61   S    
C23   N15   S    
N8    C56   S    
C59   H50   S    
C20   N12   S    
C35   C43   A    
C38   C46   A    
C24   C32   A    
C52   H23   S    
C22   C45   A    
O13   V4    S    
C62   H63   S    
C12   C35   A    
N11   H49   S    
C34   C42   A    
N12   H53   S    
C19   C44   A    
C18   C41   A    
C8    C14   S    
C53   H26   S    
N14   C62   S    
N13   C61   S    
O4    V1    S    
O9    V1    S    
C14   C37   A    
C4    C10   S    
C29   N6    S    
O17   V4    S    
O15   C7    A    
O11   V3    S    
O18   V3    S    
O16   C8    A    
N10   C58   S    
O12   V4    S    
O19   V2    S    
O17   V1    S    
C53   H27   S    
O12   C4    A    
C17   C25   A    
N1    C49   S    
C62   H62   S    
C63   H68   S    
O5    V1    S    
C39   H8    S    
C64   H71   S    
C27   N4    S    
C58   H48   S    
C31   N8    S    
C61   H58   S    
O7    V3    S    
C20   C43   A    
O19   V3    S    
C43   C44   A    
O8    V4    S    
C52   H22   S    
N8    H37   S    
C3    C9    S    
C60   H56   S    
C50   H14   S    
C63   H66   S    
O16   V1    S    
C7    C13   S    
O1    V4    S    
C11   C36   A    
C33   H2    S    
O3    V2    S    
O6    C3    A    
C56   H40   S    
C24   N16   S    
N5    C53   S    
O10   V2    S    
C49   H10   S    
C5    C15   S    
O20   V4    S    
C37   H6    S    
O7    C2    A    
C6    C16   S    
C22   C30   A    
O13   C5    A    
C28   N3    S    
N6    C54   S    
N3    H17   S    
C50   H16   S    
O14   C6    A    
C12   C27   A    
C18   C26   A    
C13   C30   A    
O9    C1    A    
C49   H11   S    
C39   C47   A    
O18   V2    S    
C52   H24   S    
N2    C50   S    
C56   H38   S    
C53   H28   S    
C19   N11   S    
C21   N13   S    
C24   C47   A    
C57   H42   S    
C15   C32   A    
C11   C28   A    
C62   H64   S    
O15   V2    S    
C23   C31   A    
C54   H30   S    
C58   H46   S    
C55   H36   S    
C37   C45   A    
C59   H51   S    
C10   C25   A    
C30   N5    S    
O6    V2    S    
C21   C46   A    
C33   C41   A    
C57   H43   S    
C16   C31   A    
C55   H34   S    
C51   H19   S    
C17   C42   A    
N16   C64   S    
C40   H7    S    
N5    H25   S    
C36   H3    S    
O8    C1    A    
N4    H21   S    
C54   H32   S    
N11   C59   S    
C9    C26   A    
C47   C48   A    
C41   C42   A    
N7    H33   S    
C17   N9    S    
O4    C5    A    
C20   C28   A    
N3    C51   S    
C14   C29   A    
O10   C2    A    
C10   C33   A    
C61   H60   S    
C22   N14   S    
C64   H72   S    
C40   C48   A    
C26   N1    S    
C45   C46   A    
C23   C48   A    
C21   C29   A    
C49   H12   S    
C36   C44   A    
O1    C8    A    
N15   C63   S    
C50   H15   S    
O2    C7    A    
C56   H39   S    
C13   C38   A    
C18   N10   S    
O3    C6    A    
C1    C11   S    
C54   H31   S    
N13   H57   S    
C60   H54   S    
C2    C12   S    
C35   H4    S    
N4    C52   S    
C34   H1    S    
N9    C57   S    
