data_mof_unit_33495.cif
_audit_creation_date              2012-12-10T17:36:48-0500
_audit_creation_method            fapswitch 2.2
_symmetry_space_group_name_H-M    P1
_symmetry_Int_Tables_number       1
_space_group_crystal_system       triclinic
_cell_length_a                    10.623862
_cell_length_b                    12.329859
_cell_length_c                    13.22229
_cell_angle_alpha                 116.612702
_cell_angle_beta                  77.483056
_cell_angle_gamma                 100.038842
_cell_volume                      1505.76622094

loop_
_atom_site_label
_atom_site_type_symbol
_atom_type_description
_atom_site_fract_x
_atom_site_fract_y
_atom_site_fract_z
_atom_type_partial_charge
C1    C     C_R   0.508906 0.855432 0.287166 0.828483
C2    C     C_3   0.027566 0.048850 0.615195 -0.301350
C3    C     C_3   0.937760 0.934375 0.556690 0.035380
C4    C     C_3   0.874948 0.004971 0.512674 -0.127683
C5    C     C_R   0.343461 0.281157 0.031124 -0.240824
C6    C     C_R   0.458415 0.229361 0.837620 -0.111892
C7    C     C_R   0.587878 0.816265 0.086007 -0.161473
C8    C     C_R   0.610133 0.739245 0.969254 0.187571
C9    C     C_R   0.562625 0.616606 0.931889 -0.246307
C10   C     C_R   0.489479 0.570045 0.009334 0.072596
C11   C     C_R   0.454206 0.653294 0.124934 0.084031
C12   C     C_R   0.739057 0.002645 0.506034 0.898063
C13   C     C_R   0.451326 0.443568 0.976647 0.084534
C14   C     C_R   0.371883 0.405073 0.057595 0.133300
C15   C     C_R   0.322585 0.490701 0.165197 -0.214629
C16   C     C_R   0.360856 0.613322 0.197593 -0.194052
C17   C     C_R   0.492444 0.353789 0.867179 -0.246434
C18   C     C_R   0.390151 0.192537 0.923495 -0.008340
C19   C     C_R   0.513008 0.774311 0.164431 -0.122922
C20   C     C_R   0.624777 0.302418 0.282935 -0.275435
C21   C     C_R   0.341092 0.771784 0.659110 0.139488
C22   C     C_R   0.311999 0.682544 0.699768 -0.232955
C23   C     C_R   0.482153 0.145292 0.714161 0.833282
C24   C     C_R   0.368011 0.572618 0.638786 -0.189257
C25   C     C_R   0.450852 0.549308 0.533978 -0.015911
C26   C     C_R   0.479695 0.643585 0.495150 0.199953
C27   C     C_R   0.507464 0.436257 0.466115 -0.024704
C28   C     C_R   0.562917 0.409068 0.351092 0.144963
C29   C     C_R   0.566778 0.493717 0.307908 -0.300261
C30   C     C_R   0.557111 0.615455 0.384968 0.007196
C31   C     C_R   0.512388 0.348795 0.506606 0.028548
C32   C     C_R   0.632416 0.223307 0.329314 0.083530
C33   C     C_R   0.260388 0.002185 0.500756 0.783062
C34   C     C_3   0.974291 0.964693 0.401145 -0.207284
C35   C     C_3   0.036920 0.893039 0.445427 -0.219926
C36   C     C_3   0.124718 0.007929 0.503521 -0.029279
C37   C     C_3   0.064030 0.079653 0.459768 0.153480
C38   C     C_3   0.964698 0.119656 0.570467 -0.004275
Cu1   Cu    Cu3+1 0.529830 0.098270 0.475420 0.953246
Cu2   Cu    Cu3+1 0.470170 0.901730 0.524580 0.996218
H1    H     H_    0.072097 0.801180 0.393841 0.144119
H2    H     H_    0.551715 0.378340 0.802415 0.165695
H3    H     H_    0.630069 0.909410 0.117262 0.155143
H4    H     H_    0.582875 0.560680 0.841125 0.123468
H5    H     H_    0.315645 0.675868 0.280254 0.166702
H6    H     H_    0.677577 0.139528 0.275916 0.122443
H7    H     H_    0.614763 0.472306 0.220511 0.168323
H8    H     H_    0.669064 0.281448 0.195035 0.144689
H9    H     H_    0.465530 0.359709 0.591061 0.120236
H10   H     H_    0.296528 0.856512 0.706843 0.160880
H11   H     H_    0.950823 0.929404 0.313394 0.166963
H12   H     H_    0.340741 0.505281 0.672572 0.156312
H13   H     H_    0.245661 0.698687 0.778814 0.174242
H14   H     H_    0.051979 0.083390 0.702568 0.159957
H15   H     H_    0.256025 0.462645 0.225635 0.151611
H16   H     H_    0.287946 0.253341 0.096148 0.158523
N1    N     N_R   0.575030 0.246270 0.438190 -0.179884
N2    N     N_R   0.425760 0.754330 0.561190 -0.214113
O1    O     O_R   0.537510 0.972500 0.318130 -0.609045
O2    O     O_R   0.487140 0.806530 0.359650 -0.583029
O3    O     O_R   0.708330 0.082950 0.479220 -0.558701
O4    O     O_R   0.657960 0.916980 0.520740 -0.536210
O5    O     O_R   0.512860 0.193470 0.640350 -0.577292
O6    O     O_R   0.462490 0.027500 0.681870 -0.565171
O7    O     O_R   0.342040 0.083020 0.479260 -0.601184
O8    O     O_R   0.291670 0.917050 0.520780 -0.587863
C39   C     C_3   0.683809 0.782842 0.880782 -0.397905
C40   C     C_3   0.746151 0.914087 0.928097 -0.751680
H17   H     H_    0.671012 0.979377 0.975590 0.253794
H18   H     H_    0.815630 0.926020 0.984895 0.240681
H19   H     H_    0.800327 0.935402 0.856603 0.273448
H20   H     H_    0.761559 0.721829 0.827054 0.224084
H21   H     H_    0.614410 0.774230 0.825396 0.206405
C41   C     C_2   0.684439 0.680791 0.369899 0.916882
O9    O     O_2   0.710878 0.723250 0.299415 -0.624499
O10   O     O_R   0.783388 0.665959 0.415424 -0.763915
H22   H     H_    0.871961 0.687980 0.379116 0.316950
C42   C     C_3   0.139262 0.160885 0.402811 -0.375027
C43   C     C_3   0.049654 0.209851 0.360087 -0.794950
H23   H     H_    0.996839 0.133652 0.295410 0.246334
H24   H     H_    0.978611 0.265413 0.432258 0.267199
H25   H     H_    0.107872 0.268175 0.319561 0.239129
H26   H     H_    0.193298 0.238462 0.465367 0.230468
H27   H     H_    0.210121 0.107068 0.329069 0.211452
C44   C     C_2   0.929948 0.247747 0.644763 0.836774
O11   O     O_2   0.015345 0.328418 0.681765 -0.601254
O12   O     O_R   0.801083 0.274436 0.672446 -0.759214
H28   H     H_    0.790853 0.364076 0.722748 0.325579
C45   C     C_2   0.878988 0.852725 0.614117 0.878995
O13   O     O_2   0.949511 0.799696 0.635350 -0.594689
O14   O     O_R   0.744988 0.834675 0.640469 -0.719207
H29   H     H_    0.717881 0.760534 0.656692 0.330366
C46   C     C_2   0.370864 0.064661 0.907702 0.822891
O15   O     O_2   0.264205 0.022595 0.937814 -0.621923
O16   O     O_R   0.476736 0.994851 0.865794 -0.739153
H30   H     H_    0.452788 0.911313 0.865040 0.323439

loop_
_geom_bond_atom_site_label_1
_geom_bond_atom_site_label_2
_ccdc_geom_bond_type
C24   H12   S    
O12   H28   S    
C46   O15   D    
Cu2   O2    S    
C34   C37   S    
C5    H16   S    
O16   H30   S    
C33   O7    A    
C7    C8    A    
C44   O11   D    
C11   C19   A    
C34   H11   S    
C37   C38   S    
C41   O10   S    
C29   H7    S    
C36   C37   S    
C39   H20   S    
C1    O1    A    
C30   C41   S    
C15   C16   A    
Cu1   N1    S    
C33   C36   S    
Cu2   O4    S    
C34   C35   S    
C17   H2    S    
C42   H26   S    
C35   C36   S    
C40   H17   S    
C39   H21   S    
C7    H3    S    
C45   O14   S    
C9    C10   A    
C23   O5    A    
C46   O16   S    
Cu2   O8    S    
C21   C22   A    
Cu1   O7    S    
C32   N1    A    
C31   H9    S    
Cu1   O3    S    
C21   H10   S    
C33   O8    A    
C22   H13   S    
C44   O12   S    
C6    C18   A    
C4    C34   S    
C1    C19   S    
Cu2   N2    S    
C41   O9    D    
C38   C44   S    
C27   C31   A    
C39   C40   S    
C24   C25   A    
C2    H14   S    
C1    O2    A    
Cu1   Cu2   S    
C43   H24   S    
C42   C43   S    
C8    C9    A    
C5    C18   A    
C20   C28   A    
C25   C26   A    
C15   H15   S    
C29   C30   A    
C12   O4    A    
C11   C16   A    
C2    C38   S    
C3    C35   S    
Cu1   O1    S    
O10   H22   S    
C26   N2    A    
C5    C14   A    
C20   H8    S    
C23   O6    A    
C4    C38   S    
C26   C30   A    
C7    C19   A    
C22   C24   A    
C4    C12   S    
C3    C4    S    
O14   H29   S    
C20   C32   A    
C2    C36   S    
C6    C17   A    
C28   C29   A    
C9    H4    S    
C32   H6    S    
C10   C13   A    
C16   H5    S    
C43   H25   S    
C25   C27   A    
Cu1   O5    S    
C37   C42   S    
Cu2   O6    S    
C13   C17   A    
C3    C45   S    
C31   N1    A    
C2    C3    S    
C21   N2    A    
C12   O3    A    
C40   H19   S    
C6    C23   S    
C35   H1    S    
C10   C11   A    
C43   H23   S    
C42   H27   S    
C8    C39   S    
C40   H18   S    
C27   C28   A    
C18   C46   S    
C14   C15   A    
C45   O13   D    
C13   C14   A    
