data_mof_unit_47708.cif
_audit_creation_date              2012-10-26T18:30:17-0400
_audit_creation_method            fapswitch 2.2
_symmetry_space_group_name_H-M    P1
_symmetry_Int_Tables_number       1
_space_group_crystal_system       triclinic
_cell_length_a                    10.652562
_cell_length_b                    12.935645
_cell_length_c                    11.853428
_cell_angle_alpha                 97.582272
_cell_angle_beta                  92.302088
_cell_angle_gamma                 94.432682
_cell_volume                      1612.15362972

loop_
_atom_site_label
_atom_site_type_symbol
_atom_type_description
_atom_site_fract_x
_atom_site_fract_y
_atom_site_fract_z
_atom_type_partial_charge
C1    C     C_R   0.498142 0.299896 0.479834 0.548698
C2    C     C_R   0.594790 0.601537 0.848231 0.006258
C3    C     C_R   0.551124 0.550544 0.152608 0.389807
C4    C     C_R   0.448003 0.452554 0.849820 0.385657
C5    C     C_R   0.534938 0.546644 0.031075 -0.006099
C6    C     C_R   0.446001 0.472396 0.971376 -0.036763
C7    C     C_R   0.260247 0.500613 0.501505 0.585679
C8    C     C_R   0.739486 0.495776 0.498530 0.585481
C9    C     C_3   0.044198 0.518841 0.609154 -0.049371
C10   C     C_3   0.955983 0.472788 0.392307 -0.045268
C11   C     C_3   0.955407 0.422735 0.560903 0.249221
C12   C     C_R   0.504904 0.700047 0.519498 0.579268
C13   C     C_3   0.044310 0.569184 0.440501 0.282381
C14   C     C_3   0.875852 0.492369 0.496675 -0.003745
C15   C     C_3   0.123894 0.499762 0.504440 -0.008372
C16   C     C_3   0.963988 0.589870 0.545536 -0.133677
C17   C     C_3   0.036327 0.402160 0.456228 -0.160270
C18   C     C_R   0.518011 0.812963 0.527415 0.034648
C19   C     C_R   0.493184 0.186611 0.467772 0.006163
C20   C     C_R   0.415917 0.018257 0.364709 -0.110577
C21   C     C_R   0.603379 0.980899 0.625293 -0.094586
C22   C     C_R   0.423486 0.126778 0.375422 -0.133809
C23   C     C_R   0.558368 0.137768 0.547155 -0.044009
C24   C     C_R   0.587315 0.872798 0.619807 -0.121922
C25   C     C_3   0.092397 0.546234 0.732914 -0.316929
C26   C     C_3   0.909808 0.439889 0.268989 -0.310544
C27   C     C_R   0.464574 0.861030 0.440514 -0.051198
C28   C     C_R   0.546844 0.029581 0.540206 0.044709
C29   C     C_R   0.475804 0.969260 0.447689 0.037841
C30   C     C_R   0.357686 0.421054 0.035728 -0.113440
C31   C     C_R   0.602391 0.616194 0.966801 -0.114297
C32   C     C_R   0.377997 0.421486 0.152687 0.034371
Cu1   Cu    Cu3+1 0.509400 0.507730 0.615930 1.082970
Cu2   Cu    Cu3+1 0.490600 0.492270 0.384070 1.079059
H1    H     H_    0.933104 0.666947 0.581418 0.152657
H2    H     H_    0.311070 0.378341 0.198899 0.135891
H3    H     H_    0.268047 0.385831 0.998881 0.183158
H4    H     H_    0.659729 0.685005 0.004416 0.201728
H5    H     H_    0.050170 0.222353 0.660377 0.363059
H6    H     H_    0.023525 0.791379 0.281945 0.370482
H7    H     H_    0.011416 0.556906 0.788127 0.163511
H8    H     H_    0.145884 0.482344 0.759055 0.218293
H9    H     H_    0.154934 0.619894 0.743034 0.140041
H10   H     H_    0.991664 0.432134 0.214352 0.160256
H11   H     H_    0.852638 0.363603 0.261100 0.138081
H12   H     H_    0.067756 0.325212 0.420564 0.134353
H13   H     H_    0.851085 0.498914 0.240703 0.236592
H14   H     H_    0.281184 0.252748 0.630386 0.346125
H15   H     H_    0.673567 0.823123 0.219959 0.373425
H16   H     H_    0.412171 0.814391 0.368598 0.198186
H17   H     H_    0.618327 0.183691 0.614039 0.224634
H18   H     H_    0.630828 0.835821 0.686528 0.126369
H19   H     H_    0.373553 0.163978 0.312460 0.135981
H20   H     H_    0.361201 0.972923 0.293402 0.143075
H21   H     H_    0.657904 0.026373 0.696632 0.156962
H22   H     H_    0.647567 0.655807 0.802256 0.130496
N1    N     N_R   0.523540 0.519360 0.790140 -0.235199
N2    N     N_R   0.476460 0.480640 0.209860 -0.257256
O1    O     O_R   0.506670 0.354460 0.582000 -0.406813
O2    O     O_2   0.839749 0.230613 0.552842 -0.340184
O3    O     O_3   0.017827 0.279770 0.711954 -0.467628
O4    O     O_2   0.194847 0.744696 0.442954 -0.326037
O5    O     O_2   0.169791 0.625518 0.262514 -0.278083
O6    O     O_3   0.983937 0.736638 0.323251 -0.446216
O7    O     O_2   0.496766 0.263316 0.758549 -0.279148
O8    O     O_2   0.307997 0.261851 0.860013 -0.294648
O9    O     O_3   0.293458 0.326447 0.667038 -0.514203
O10   O     O_2   0.702996 0.663282 0.343130 -0.235251
O11   O     O_2   0.784234 0.649510 0.156924 -0.318409
O12   O     O_R   0.493330 0.645540 0.418000 -0.427270
O13   O     O_3   0.603152 0.768170 0.200565 -0.562170
O14   O     O_R   0.490800 0.341410 0.386200 -0.536614
O15   O     O_R   0.509200 0.658590 0.613800 -0.544645
O16   O     O_R   0.324790 0.506500 0.597880 -0.472208
O17   O     O_R   0.675210 0.493500 0.402120 -0.470228
O18   O     O_R   0.308910 0.493440 0.402080 -0.492806
O19   O     O_R   0.691090 0.506560 0.597920 -0.484096
O20   O     O_2   0.800926 0.358048 0.717388 -0.219670
S1    S     S_3+6 0.898124 0.320203 0.636914 0.013734
S2    S     S_3+6 0.103840 0.671129 0.364908 0.025372
S3    S     S_3+6 0.384990 0.323883 0.785073 0.040360
S4    S     S_3+6 0.664498 0.655319 0.219694 0.018628

loop_
_geom_bond_atom_site_label_1
_geom_bond_atom_site_label_2
_ccdc_geom_bond_type
C24   H18   S    
O2    S1    D    
C27   C29   A    
C32   N2    A    
C25   H9    S    
C2    N1    A    
C9    C25   S    
C18   C24   A    
C32   H2    S    
O4    S2    D    
C28   C29   A    
C9    C16   S    
C1    O1    A    
C16   H1    S    
C5    C6    A    
C11   C14   S    
C10   C17   S    
O11   S4    D    
C26   H11   S    
O7    S3    D    
C4    S3    S    
C4    N1    A    
C8    C14   S    
C7    O16   A    
Cu2   O12   S    
C27   H16   S    
Cu2   O17   S    
C20   C29   A    
O13   S4    S    
C10   C26   S    
C7    C15   S    
C13   S2    S    
Cu1   O1    S    
C12   O15   A    
O6    S2    S    
C22   H19   S    
O5    S2    D    
H5    O3    S    
C1    C19   S    
C1    O14   A    
C26   H10   S    
C19   C22   A    
C17   H12   S    
C20   H20   S    
C10   C14   S    
C25   H7    S    
C21   H21   S    
O20   S1    D    
C8    O17   A    
C30   H3    S    
C2    C31   A    
C19   C23   A    
C23   H17   S    
C3    S4    S    
Cu1   Cu2   S    
C23   C28   A    
C9    C11   S    
C11   S1    S    
C26   H13   S    
Cu1   O15   S    
C6    C30   A    
C21   C28   A    
C20   C22   A    
O9    S3    S    
C13   C15   S    
C8    O19   A    
C14   C16   S    
C21   C24   A    
C4    C6    A    
Cu2   O14   S    
C15   C17   S    
C12   O12   A    
C11   C17   S    
Cu1   N1    S    
C18   C27   A    
C3    C5    A    
C10   C13   S    
C25   H8    S    
C7    O18   A    
H6    O6    S    
C31   H4    S    
O10   S4    D    
C9    C15   S    
C2    H22   S    
O8    S3    D    
C30   C32   A    
Cu1   O19   S    
O3    S1    S    
H14   O9    S    
C3    N2    A    
Cu1   O16   S    
H15   O13   S    
C13   C16   S    
C12   C18   S    
Cu2   N2    S    
Cu2   O18   S    
C5    C31   A    
