data_mof_unit_51279.cif
_audit_creation_date              2012-12-11T15:37:05-0500
_audit_creation_method            fapswitch 2.2
_symmetry_space_group_name_H-M    P1
_symmetry_Int_Tables_number       1
_space_group_crystal_system       triclinic
_cell_length_a                    16.611153
_cell_length_b                    7.050742
_cell_length_c                    15.193453
_cell_angle_alpha                 89.999636
_cell_angle_beta                  95.06744
_cell_angle_gamma                 90.000328
_cell_volume                      1772.51650663

loop_
_atom_site_label
_atom_site_type_symbol
_atom_type_description
_atom_site_fract_x
_atom_site_fract_y
_atom_site_fract_z
_atom_type_partial_charge
O1    O     O_R   0.578230 0.505720 0.424270 -0.530757
O2    O     O_R   0.421770 0.005720 0.575730 -0.530756
O3    O     O_R   0.412470 0.173950 0.404530 -0.544241
O4    O     O_R   0.587530 0.673950 0.595470 -0.544239
C1    C     C_R   0.384943 0.345458 0.381373 0.676968
C2    C     C_R   0.615053 0.845459 0.618631 0.676971
O5    O     O_R   0.577030 0.175880 0.413670 -0.533663
O6    O     O_R   0.422970 0.675880 0.586330 -0.533669
O7    O     O_R   0.587510 0.007580 0.584940 -0.539498
O8    O     O_R   0.412490 0.507580 0.415060 -0.539496
C3    C     C_R   0.603497 0.344795 0.393123 0.712075
C4    C     C_R   0.396503 0.844794 0.606877 0.712069
O9    O     O_3   0.503240 0.339850 0.556180 -0.368283
O10   O     O_3   0.496760 0.839850 0.443820 -0.368281
V1    V     V_3+5 0.499400 0.064230 0.489580 1.402479
V2    V     V_3+5 0.500600 0.564230 0.510420 1.402474
C5    C     C_1   0.334074 0.855122 0.669091 -0.195323
C6    C     C_1   0.665926 0.355125 0.330908 -0.195319
C7    C     C_1   0.281503 0.865842 0.720444 0.007625
C8    C     C_1   0.718497 0.365843 0.279556 0.007632
C9    C     C_1   0.219350 0.879277 0.780600 0.012034
C10   C     C_1   0.780649 0.379276 0.219399 0.012052
C11   C     C_1   0.166633 0.889957 0.831771 -0.179373
C12   C     C_1   0.833366 0.389954 0.168229 -0.179346
C13   C     C_3   0.741695 0.755816 0.847430 -0.017505
C14   C     C_3   0.258332 0.255961 0.152547 -0.017522
H1    H     H_    0.767009 0.609591 0.847443 0.132576
H2    H     H_    0.233052 0.109705 0.152510 0.132680
C15   C     C_3   0.665102 0.752872 0.777745 0.017441
C16   C     C_3   0.334927 0.253060 0.222228 0.017402
H3    H     H_    0.653256 0.601591 0.759619 0.123099
H4    H     H_    0.346827 0.101777 0.240306 0.123127
H5    H     H_    0.859794 0.650296 0.745135 0.132309
H6    H     H_    0.140237 0.150144 0.254800 0.132336
H7    H     H_    0.751635 0.617317 0.645026 0.120608
H8    H     H_    0.248418 0.117112 0.354874 0.120626
C17   C     C_3   0.836271 0.794951 0.728081 -0.024569
C18   C     C_3   0.163741 0.294794 0.271898 -0.024570
C19   C     C_3   0.773325 0.089803 0.789908 -0.129901
C20   C     C_3   0.226625 0.589820 0.210156 -0.129870
C21   C     C_3   0.809871 0.889570 0.815095 0.030741
C22   C     C_3   0.190124 0.389574 0.184912 0.030729
H9    H     H_    0.821194 0.180824 0.765500 0.105902
H10   H     H_    0.178730 0.680755 0.234568 0.105897
C23   C     C_3   0.684441 0.859840 0.691542 0.042045
C24   C     C_3   0.315553 0.359843 0.308466 0.042055
C25   C     C_3   0.761878 0.771058 0.658473 -0.393111
C26   C     C_3   0.238137 0.270867 0.341497 -0.393119
C27   C     C_3   0.704241 0.071776 0.714852 -0.337462
C28   C     C_3   0.295693 0.571785 0.285228 -0.337464
H11   H     H_    0.648853 0.147467 0.731758 0.151329
H12   H     H_    0.351062 0.647620 0.268368 0.151347
H13   H     H_    0.723423 0.144905 0.655161 0.132000
H14   H     H_    0.276471 0.644759 0.344939 0.131982
H15   H     H_    0.773574 0.836837 0.594191 0.159448
H16   H     H_    0.226426 0.336482 0.405808 0.159439
O11   O     O_R   0.087480 0.241090 0.084980 -0.545519
O12   O     O_R   0.912520 0.741090 0.915020 -0.545530
O13   O     O_R   0.922960 0.569060 0.086330 -0.539657
O14   O     O_R   0.077040 0.069060 0.913670 -0.539650
C29   C     C_R   0.896067 0.400204 0.106358 0.734330
C30   C     C_R   0.103933 0.900205 0.893642 0.734351
O15   O     O_R   0.087520 0.570920 0.095480 -0.538844
O16   O     O_R   0.912480 0.070920 0.904520 -0.538848
O17   O     O_R   0.078240 0.739160 0.924260 -0.527415
O18   O     O_R   0.921760 0.239160 0.075740 -0.527410
C31   C     C_R   0.117166 0.402132 0.116261 0.680573
C32   C     C_R   0.882832 0.902131 0.883742 0.680580
O19   O     O_3   0.996740 0.404980 0.943840 -0.371702
O20   O     O_3   0.003260 0.904980 0.056160 -0.371697
V3    V     V_3+5 0.000600 0.680640 0.010420 1.422768
V4    V     V_3+5 0.999400 0.180640 0.989580 1.422777
C33   C     C_3   0.905949 0.898243 0.687289 -0.790653
H17   H     H_    0.926482 0.811626 0.632434 0.211155
H18   H     H_    0.886551 0.038284 0.659716 0.213333
H19   H     H_    0.958584 0.917934 0.736688 0.194841
C34   C     C_3   0.094049 0.397962 0.312719 -0.790675
H20   H     H_    0.073521 0.311234 0.367541 0.211160
H21   H     H_    0.113432 0.537966 0.340342 0.213348
H22   H     H_    0.041416 0.417698 0.263321 0.194833
C35   C     C_3   0.722872 0.782451 0.944752 -0.726222
H23   H     H_    0.683923 0.664431 0.964239 0.224401
H24   H     H_    0.778577 0.777337 0.990571 0.201670
H25   H     H_    0.691185 0.916804 0.955897 0.232912
C36   C     C_3   0.277143 0.282711 0.055228 -0.726245
H26   H     H_    0.316120 0.164763 0.035721 0.224365
H27   H     H_    0.221438 0.277560 0.009412 0.201659
H28   H     H_    0.308799 0.417119 0.044104 0.232931
C37   C     C_3   0.586127 0.824471 0.813432 -0.748601
H29   H     H_    0.592445 0.971493 0.838941 0.223442
H30   H     H_    0.535198 0.820897 0.761060 0.184150
H31   H     H_    0.568724 0.730570 0.867211 0.217615
C38   C     C_3   0.413875 0.324888 0.186563 -0.748569
H32   H     H_    0.407503 0.471941 0.161102 0.223468
H33   H     H_    0.464806 0.321329 0.238934 0.184134
H34   H     H_    0.431309 0.231120 0.132750 0.217610
C39   C     C_1   0.745585 0.193892 0.865937 0.278353
N1    N     N_1   0.724059 0.276253 0.925443 -0.395991
C40   C     C_1   0.254369 0.694023 0.134161 0.278344
N2    N     N_1   0.275898 0.776472 0.074681 -0.396035

loop_
_geom_bond_atom_site_label_1
_geom_bond_atom_site_label_2
_ccdc_geom_bond_type
C3    C6    S    
C38   H32   S    
C2    C23   S    
C33   H17   S    
O1    C3    A    
H7    C25   S    
C2    O7    A    
C15   C37   S    
C35   H23   S    
C19   C21   S    
C36   H26   S    
O5    C3    A    
C12   C29   S    
O16   C32   A    
C7    C9    S    
C18   C22   S    
C16   C38   S    
C27   H13   S    
O12   V3    S    
C19   C39   S    
O14   V4    S    
O14   C30   A    
O19   V3    S    
C29   O18   A    
C11   C30   S    
O18   V4    S    
C27   H11   S    
C4    C5    S    
C28   H12   S    
O20   V3    S    
C17   C25   S    
C18   C26   S    
C34   H20   S    
C23   C25   S    
O2    C4    A    
O6    V2    S    
C13   C35   S    
C33   H18   S    
O11   C31   A    
C20   C40   S    
C35   H24   S    
C39   N1    T    
C21   C32   S    
O15   C31   A    
C34   H21   S    
C13   C15   S    
C24   C26   S    
O13   C29   A    
C36   H27   S    
O4    C2    A    
C36   H28   S    
C13   C21   S    
C19   H9    S    
O5    V1    S    
O17   V3    S    
H5    C17   S    
C15   C23   S    
O4    V2    S    
O19   V4    S    
C40   N2    T    
C23   C27   S    
O6    C4    A    
O1    V2    S    
C28   H14   S    
C37   H31   S    
O2    V1    S    
O12   C32   A    
C19   C27   S    
C8    C10   S    
C14   C16   S    
C38   H34   S    
C9    C11   T    
C22   C31   S    
C33   H19   S    
C10   C12   T    
C37   H30   S    
C35   H25   S    
O3    V1    S    
C14   C22   S    
C25   H15   S    
C34   H22   S    
C26   H16   S    
C17   C33   S    
C30   O17   A    
H6    C18   S    
C16   C24   S    
O15   V3    S    
O3    C1    A    
C18   C34   S    
C13   H1    S    
C1    C24   S    
C24   C28   S    
C14   H2    S    
O7    V1    S    
C1    O8    A    
C15   H3    S    
O8    V2    S    
C16   H4    S    
C14   C36   S    
C20   C28   S    
C20   C22   S    
C5    C7    T    
H8    C26   S    
C6    C8    T    
O16   V4    S    
O11   V4    S    
C17   C21   S    
C20   H10   S    
C38   H33   S    
O9    V2    S    
O10   V1    S    
O20   V4    S    
C37   H29   S    
O13   V3    S    
