data_mof_unit_6438.cif
_audit_creation_date              2012-12-11T14:56:27-0500
_audit_creation_method            fapswitch 2.2
_symmetry_space_group_name_H-M    P1
_symmetry_Int_Tables_number       1
_space_group_crystal_system       triclinic
_cell_length_a                    10.556129
_cell_length_b                    10.750473
_cell_length_c                    17.071034
_cell_angle_alpha                 79.597686
_cell_angle_beta                  89.729232
_cell_angle_gamma                 119.227497
_cell_volume                      1653.08675213

loop_
_atom_site_label
_atom_site_type_symbol
_atom_type_description
_atom_site_fract_x
_atom_site_fract_y
_atom_site_fract_z
_atom_type_partial_charge
C1    C     C_R   0.278402 0.887933 0.132531 0.541496
C2    C     C_R   0.750140 0.305438 0.287789 -0.014180
C3    C     C_R   0.772678 0.341436 0.204258 -0.032369
C4    C     C_R   0.655941 0.335847 0.161422 0.020990
C5    C     C_1   0.668822 0.847404 0.205223 -0.033574
C6    C     C_1   0.681193 0.839432 0.274611 -0.051862
C7    C     C_1   0.227820 0.853662 0.215530 -0.043434
C8    C     C_1   0.179294 0.835530 0.283083 -0.046421
C9    C     C_1   0.663909 0.354821 0.780017 0.031507
C10   C     C_1   0.687586 0.398710 0.709388 -0.026320
C11   C     C_R   0.660818 0.712351 0.817715 0.195753
C12   C     C_R   0.637457 0.280342 0.086979 0.601924
C13   C     C_R   0.617358 0.676661 0.743772 -0.018811
C14   C     C_R   0.680162 0.791792 0.675358 -0.054261
C15   C     C_R   0.748528 0.936611 0.683834 -0.135896
C16   C     C_R   0.755504 0.967960 0.758786 0.161198
C17   C     C_R   0.705692 0.853731 0.826705 0.047492
C18   C     C_R   0.109066 0.919371 0.777299 -0.015249
C19   C     C_R   0.034481 0.870251 0.713160 -0.135026
C20   C     C_R   0.054034 0.771201 0.680863 -0.030951
C21   C     C_R   0.103322 0.684351 0.727952 0.027123
C22   C     C_R   0.112306 0.689968 0.809065 0.224221
C23   C     C_R   0.640573 0.857691 0.125131 0.556607
C24   C     C_R   0.139022 0.820055 0.831099 0.037736
C25   C     C_R   0.686669 0.810550 0.357266 0.554688
C26   C     C_R   0.682169 0.384945 0.398741 0.564940
C27   C     C_R   0.108070 0.812932 0.359921 0.558088
C28   C     C_R   0.697482 0.763887 0.596989 0.526997
C29   C     C_R   0.717574 0.445037 0.625627 0.532699
C30   C     C_R   0.031764 0.774004 0.596765 0.529988
C31   C     C_R   0.218482 0.862384 0.900653 0.575150
C32   C     C_R   0.640392 0.289211 0.861648 0.638730
C33   C     C_R   0.649579 0.868209 0.899953 0.607458
C34   C     C_R   0.537722 0.335787 0.200615 0.206422
C35   C     C_R   0.528482 0.327072 0.284153 -0.000387
C36   C     C_R   0.642521 0.322816 0.326520 -0.020504
Cr1   Cr    Cr6+3 0.402240 0.783890 0.019450 1.112061
Cr2   Cr    Cr6+3 0.382360 0.097900 0.991800 1.078446
Cr3   Cr    Cr6+3 0.715380 0.118170 0.988700 1.093987
Cr4   Cr    Cr6+3 0.936650 0.882420 0.465510 0.973838
Cr5   Cr    Cr6+3 0.605770 0.565620 0.493360 0.983966
Cr6   Cr    Cr6+3 0.921340 0.550490 0.496380 0.993697
H1    H     H_    0.991815 0.931600 0.677400 0.149658
H2    H     H_    0.793370 0.025906 0.631942 0.176725
O1    O     O_R   0.521780 0.757110 0.108900 -0.467354
O2    O     O_R   0.513330 0.228330 0.898660 -0.518297
O3    O     O_R   0.739230 0.266130 0.888050 -0.408743
O4    O     O_R   0.712580 0.991850 0.918770 -0.454201
O5    O     O_3   0.499990 0.999980 0.999980 -0.315048
O6    O     O_R   0.083770 0.911170 0.376030 -0.513654
O7    O     O_R   0.808770 0.880340 0.383890 -0.492843
O8    O     O_R   0.584340 0.689460 0.394160 -0.510730
O9    O     O_R   0.614320 0.443940 0.423590 -0.502633
O10   O     O_R   0.805020 0.410040 0.421340 -0.511578
O11   O     O_R   0.049240 0.685450 0.403290 -0.496339
O12   O     O_R   0.275160 0.783810 0.101120 -0.500007
O13   O     O_R   0.077520 0.903010 0.551800 -0.531461
O14   O     O_R   0.802980 0.872780 0.546830 -0.522312
O15   O     O_R   0.578090 0.681300 0.569920 -0.521775
O16   O     O_R   0.608530 0.436370 0.586530 -0.520326
O17   O     O_R   0.798770 0.401880 0.597100 -0.496058
O18   O     O_R   0.043450 0.677890 0.566230 -0.522631
O19   O     O_3   0.821250 0.666180 0.485090 -0.289386
O20   O     O_R   0.237900 0.972600 0.090980 -0.472538
O21   O     O_R   0.511190 0.220540 0.061620 -0.441395
O22   O     O_R   0.736920 0.257720 0.063840 -0.526847
O23   O     O_R   0.710450 0.984050 0.081720 -0.523176
O24   O     O_R   0.524090 0.765520 0.933110 -0.464995
O25   O     O_R   0.277300 0.791600 0.938160 -0.442037
O26   O     O_R   0.240210 0.981010 0.915190 -0.545465
Cl1   Cl    Cl    0.412481 0.366354 0.142579 -0.582899
C37   C     C_3   0.196445 0.634886 0.690842 -0.253709
C38   C     C_3   0.111601 0.475548 0.685781 -0.369493
H3    H     H_    0.009817 0.450567 0.659178 0.235501
H4    H     H_    0.177692 0.450844 0.647396 0.107111
H5    H     H_    0.083696 0.405536 0.746247 0.234441
H6    H     H_    0.251283 0.704147 0.631009 0.171314
H7    H     H_    0.287720 0.653414 0.727520 0.155757
Cl2   Cl    Cl    0.106268 0.542241 0.877759 -0.613810
C39   C     C_3   0.394746 0.316125 0.327378 -0.250279
C40   C     C_3   0.328281 0.192354 0.401951 -0.396996
H8    H     H_    0.334814 0.096715 0.391428 0.173924
H9    H     H_    0.384070 0.224826 0.455480 0.162714
H10   H     H_    0.212506 0.160966 0.416542 0.158918
H11   H     H_    0.421699 0.421484 0.342985 0.185313
H12   H     H_    0.305751 0.292888 0.288368 0.188758
C41   C     C_3   0.824563 0.229172 0.335339 -0.221598
C42   C     C_3   0.985236 0.329513 0.346274 -0.373541
H13   H     H_    0.058774 0.314396 0.307490 0.119942
H14   H     H_    0.015835 0.446235 0.332980 0.183915
H15   H     H_    0.005064 0.301039 0.409109 0.131774
H16   H     H_    0.762332 0.170795 0.395469 0.155525
H17   H     H_    0.815718 0.140994 0.306715 0.134234
C43   C     C_3   0.927176 0.410923 0.161879 -0.224131
C44   C     C_3   0.976165 0.302265 0.148595 -0.348299
H18   H     H_    0.080372 0.327960 0.174224 0.156433
H19   H     H_    0.892731 0.187848 0.174857 0.159730
H20   H     H_    0.997400 0.311250 0.083452 0.198580
H21   H     H_    0.936595 0.480943 0.103065 0.188100
H22   H     H_    0.006178 0.489093 0.195708 0.144383
Cl3   Cl    Cl    0.655699 0.584314 0.900713 -0.596227
C45   C     C_3   0.477061 0.536416 0.739805 -0.275413
C46   C     C_3   0.372719 0.460618 0.817591 -0.380806
H23   H     H_    0.405915 0.392501 0.858690 0.219408
H24   H     H_    0.367530 0.541370 0.847698 0.238087
H25   H     H_    0.261309 0.385358 0.805349 0.139056
H26   H     H_    0.416442 0.562655 0.693602 0.160767
H27   H     H_    0.497219 0.457878 0.718287 0.149705
Cl4   Cl    Cl    0.823002 0.151020 0.762445 -0.657254
C47   C     C_3   0.176252 0.082306 0.776849 -0.243256
C48   C     C_3   0.186882 0.178072 0.695601 -0.454906
H28   H     H_    0.231889 0.151053 0.646387 0.172070
H29   H     H_    0.078966 0.166259 0.683253 0.183787
H30   H     H_    0.262322 0.293544 0.695416 0.129154
H31   H     H_    0.114849 0.098187 0.823452 0.195639
H32   H     H_    0.291864 0.126286 0.789198 0.176065

loop_
_geom_bond_atom_site_label_1
_geom_bond_atom_site_label_2
_ccdc_geom_bond_type
C41   C42   S    
Cr2   O26   S    
C23   O1    A    
Cr1   O25   S    
Cr6   O19   S    
C38   H3    S    
C44   H18   S    
Cr3   O22   S    
C40   H8    S    
C44   H20   S    
C7    C8    T    
C48   H29   S    
Cr2   O5    S    
C20   C30   S    
C39   H11   S    
Cr4   O19   S    
C18   C24   A    
C1    O12   A    
C22   Cl2   S    
C18   C19   A    
C5    C6    T    
C27   O11   A    
C6    C25   S    
C15   C16   A    
C30   O13   A    
C35   C39   S    
C34   Cl1   S    
C34   C35   A    
C23   O23   A    
C47   C48   S    
C37   H7    S    
C9    C32   S    
Cr1   O12   S    
C31   O26   A    
C19   C20   A    
Cr3   O23   S    
C16   C17   A    
C39   H12   S    
Cr2   O21   S    
C45   H27   S    
C48   H30   S    
C9    C10   T    
Cr6   O18   S    
Cr5   O8    S    
C27   O6    A    
C13   C14   A    
C38   H4    S    
C43   C44   S    
C17   C33   S    
C26   O10   A    
C40   H9    S    
C19   H1    S    
C16   Cl4   S    
Cr2   O20   S    
C29   O17   A    
Cr4   O14   S    
C21   C37   S    
C2    C41   S    
Cr1   O24   S    
Cr5   O15   S    
C11   Cl3   S    
C1    O20   A    
C39   C40   S    
C12   O22   A    
C35   C36   A    
C25   O7    A    
C37   H6    S    
Cr6   O11   S    
Cr1   O5    S    
C5    C23   S    
C42   H15   S    
C43   H22   S    
C45   H26   S    
C46   H24   S    
C42   H13   S    
Cr6   O17   S    
Cr5   O9    S    
C26   C36   S    
Cr3   O5    S    
C42   H14   S    
C30   O18   A    
C32   O3    A    
C22   C24   A    
C4    C12   S    
Cr5   O19   S    
Cr1   O1    S    
C3    C4    A    
C26   O9    A    
C47   H32   S    
C40   H10   S    
C41   H16   S    
Cr3   O3    S    
C28   O15   A    
C2    C36   A    
C8    C27   S    
C11   C17   A    
Cr4   O13   S    
C48   H28   S    
C1    C7    S    
C32   O2    A    
C18   C47   S    
Cr5   O16   S    
C37   C38   S    
C3    C43   S    
C15   H2    S    
C44   H19   S    
C28   O14   A    
Cr4   O7    S    
C12   O21   A    
C2    C3    A    
C25   O8    A    
Cr6   O10   S    
Cr2   O2    S    
C11   C13   A    
C10   C29   S    
C43   H21   S    
Cr4   O6    S    
C41   H17   S    
C38   H5    S    
C46   H25   S    
C4    C34   A    
C45   C46   S    
C24   C31   S    
C31   O25   A    
C20   C21   A    
C46   H23   S    
C33   O4    A    
C14   C15   A    
C29   O16   A    
C14   C28   S    
C13   C45   S    
C21   C22   A    
C47   H31   S    
C33   O24   A    
Cr3   O4    S    
