data_mof_unit_38310.cif
_audit_creation_date              2012-12-10T18:43:45-0500
_audit_creation_method            fapswitch 2.2
_symmetry_space_group_name_H-M    P1
_symmetry_Int_Tables_number       1
_space_group_crystal_system       triclinic
_cell_length_a                    10.812512
_cell_length_b                    10.653339
_cell_length_c                    9.854068
_cell_angle_alpha                 90.398414
_cell_angle_beta                  103.943131
_cell_angle_gamma                 89.948681
_cell_volume                      1101.61193075

loop_
_atom_site_label
_atom_site_type_symbol
_atom_type_description
_atom_site_fract_x
_atom_site_fract_y
_atom_site_fract_z
_atom_type_partial_charge
C1    C     C_R   0.497326 0.260259 0.498680 0.893783
C2    C     C_R   0.502693 0.739736 0.501320 0.886961
C3    C     C_R   0.259043 0.503512 0.441817 0.937523
C4    C     C_R   0.740943 0.503736 0.558241 0.939489
C5    C     C_R   0.589675 0.566079 0.096033 -0.063529
C6    C     C_R   0.410285 0.433978 0.903957 -0.068198
C7    C     C_R   0.589726 0.565919 0.952275 -0.075737
C8    C     C_R   0.410256 0.434108 0.047720 -0.076087
C9    C     C_2   0.122711 0.517531 0.408926 -0.379431
C10   C     C_2   0.877265 0.518014 0.591385 -0.382366
C11   C     C_2   0.067903 0.542840 0.513249 -0.148059
C12   C     C_2   0.932149 0.543059 0.487424 -0.149787
C13   C     C_R   0.406724 0.061074 0.395715 0.195548
C14   C     C_R   0.593419 0.938887 0.604180 0.195486
C15   C     C_R   0.411690 0.931828 0.399536 -0.228579
C16   C     C_R   0.588382 0.068138 0.600439 -0.228984
C17   C     C_R   0.503452 0.872159 0.502666 -0.072136
C18   C     C_R   0.496610 0.127817 0.497314 -0.074519
H1    H     H_    0.877285 0.554272 0.380048 0.182228
H2    H     H_    0.122813 0.554130 0.620785 0.187297
H3    H     H_    0.661369 0.619073 0.169656 0.122806
H4    H     H_    0.338525 0.381070 0.830311 0.129948
H5    H     H_    0.932540 0.506523 0.698440 0.149504
H6    H     H_    0.067395 0.505875 0.301725 0.149362
H7    H     H_    0.661677 0.618415 0.917319 0.122531
H8    H     H_    0.338291 0.381631 0.082672 0.122966
H9    H     H_    0.343227 0.877033 0.323454 0.155051
H10   H     H_    0.656844 0.122927 0.676527 0.154755
N1    N     N_R   0.499970 0.499970 0.857200 -0.078771
N2    N     N_R   0.500030 0.500030 0.142800 -0.077958
O1    O     O_R   0.499990 0.316750 0.614620 -0.620044
O2    O     O_R   0.500010 0.683250 0.385380 -0.622864
O3    O     O_R   0.499990 0.316780 0.385290 -0.609486
O4    O     O_R   0.500010 0.683220 0.614710 -0.612609
O5    O     O_R   0.317810 0.500000 0.571850 -0.619835
O6    O     O_R   0.682190 0.500000 0.428150 -0.617730
O7    O     O_R   0.317810 0.500030 0.342520 -0.621067
O8    O     O_R   0.682190 0.499970 0.657480 -0.621054
Zn1   Zn    Zn3+2 0.500000 0.499980 0.653120 0.942079
Zn2   Zn    Zn3+2 0.500000 0.500020 0.346880 0.943304
C19   C     C_3   0.304113 0.125035 0.286959 -0.893686
H11   H     H_    0.250568 0.191898 0.338274 0.229191
H12   H     H_    0.347519 0.176166 0.212345 0.251336
H13   H     H_    0.234854 0.056469 0.225897 0.231466
C20   C     C_3   0.696235 0.874895 0.712684 -0.893387
H14   H     H_    0.749744 0.808193 0.661125 0.230785
H15   H     H_    0.765496 0.943462 0.773734 0.231433
H16   H     H_    0.653040 0.823578 0.787340 0.251072

loop_
_geom_bond_atom_site_label_1
_geom_bond_atom_site_label_2
_ccdc_geom_bond_type
C6    N1    A    
C16   H10   S    
O5    Zn1   S    
C11   C12   S    
C4    O6    A    
C9    H6    S    
C15   C17   A    
C3    C9    S    
C10   H5    S    
O7    Zn2   S    
C8    H8    S    
C19   H11   S    
C19   H12   S    
C15   H9    S    
C7    H7    S    
C3    O5    A    
C8    N2    A    
N1    Zn1   S    
C13   C19   S    
C1    O3    A    
C20   H14   S    
C2    C17   S    
C9    C11   D    
C14   C17   A    
C2    O4    A    
C1    C18   S    
C10   C12   D    
C13   C18   A    
C7    N1    A    
C12   H1    S    
C16   C18   A    
C4    O8    A    
C14   C20   S    
C13   C15   A    
O8    Zn1   S    
C19   H13   S    
C14   C16   A    
C11   H2    S    
C20   H16   S    
O3    Zn2   S    
N2    Zn2   S    
O4    Zn1   S    
C6    H4    S    
C1    O1    A    
O2    Zn2   S    
C5    H3    S    
C3    O7    A    
C2    O2    A    
C5    N2    A    
C20   H15   S    
C5    C7    A    
O6    Zn2   S    
C6    C8    A    
C4    C10   S    
O1    Zn1   S    
