data_mof_unit_53792.cif
_audit_creation_date              2012-12-10T17:56:47-0500
_audit_creation_method            fapswitch 2.2
_symmetry_space_group_name_H-M    P1
_symmetry_Int_Tables_number       1
_space_group_crystal_system       triclinic
_cell_length_a                    10.823218
_cell_length_b                    9.650826
_cell_length_c                    10.879041
_cell_angle_alpha                 86.590076
_cell_angle_beta                  95.343628
_cell_angle_gamma                 90.017317
_cell_volume                      1129.39112055

loop_
_atom_site_label
_atom_site_type_symbol
_atom_type_description
_atom_site_fract_x
_atom_site_fract_y
_atom_site_fract_z
_atom_type_partial_charge
C1    C     C_R   0.262651 0.499825 0.502196 0.808689
C2    C     C_R   0.737621 0.499942 0.500773 0.817741
C3    C     C_R   0.936551 0.625652 0.504140 -0.147436
C4    C     C_R   0.064515 0.625471 0.506630 -0.164904
C5    C     C_R   0.415502 0.079038 0.423078 0.208561
C6    C     C_R   0.582471 0.069082 0.579121 0.175759
C7    C     C_R   0.416098 0.931039 0.422274 0.159411
C8    C     C_R   0.582963 0.920916 0.578955 0.210498
C9    C     C_R   0.503062 0.504463 0.261747 0.819594
C10   C     C_R   0.493366 0.496103 0.736618 0.813256
C11   C     C_R   0.451573 0.764997 0.078947 -0.209068
C12   C     C_R   0.344216 0.694011 0.849999 -0.213315
C13   C     C_R   0.391802 0.869157 0.996455 0.194174
C14   C     C_R   0.322999 0.826756 0.887563 0.203854
C15   C     C_R   0.426064 0.601904 0.921267 0.065129
C16   C     C_R   0.458925 0.626079 0.045830 0.077519
C17   C     C_R   0.506948 0.512200 0.126019 -0.094730
C18   C     C_R   0.479763 0.489409 0.869226 -0.088826
C19   C     C_R   0.546543 0.392105 0.073426 -0.197763
C20   C     C_R   0.538368 0.383683 0.946125 -0.187276
C21   C     C_R   0.064488 0.373791 0.507986 -0.150048
C22   C     C_R   0.936569 0.373909 0.505600 -0.147877
C23   C     C_R   0.871885 0.499877 0.503097 -0.029458
C24   C     C_R   0.128950 0.499670 0.506026 -0.028582
Cu1   Cu    Cu3+1 0.500000 0.640660 0.500000 1.000053
Cu2   Cu    Cu3+1 0.500000 0.359340 0.500000 0.999922
H1    H     H_    0.586771 0.305027 0.130937 0.172303
H2    H     H_    0.578309 0.294940 0.908231 0.185709
H3    H     H_    0.502759 0.796102 0.162637 0.179172
H4    H     H_    0.299881 0.664067 0.762078 0.145588
H5    H     H_    0.112343 0.275121 0.510757 0.173942
H6    H     H_    0.888739 0.275381 0.505244 0.179762
H7    H     H_    0.888671 0.724296 0.502489 0.178489
H8    H     H_    0.112434 0.723879 0.508329 0.178966
N1    N     N_R   0.500000 0.852070 0.500000 -0.227334
N2    N     N_R   0.500000 0.147940 0.500000 -0.217677
O1    O     O_R   0.319640 0.618740 0.499990 -0.571513
O2    O     O_R   0.680360 0.618740 0.500010 -0.566038
O3    O     O_R   0.319620 0.381170 0.499990 -0.562227
O4    O     O_R   0.680380 0.381170 0.500010 -0.564495
O5    O     O_R   0.500000 0.618810 0.319650 -0.570994
O6    O     O_R   0.500000 0.618810 0.680350 -0.552029
O7    O     O_R   0.499970 0.381240 0.319640 -0.556192
O8    O     O_R   0.500030 0.381240 0.680360 -0.567587
C25   C     C_3   0.424802 0.020150 0.016378 -0.389417
C26   C     C_3   0.315746 0.121405 0.010056 -0.757522
H9    H     H_    0.287722 0.160678 0.913892 0.244254
H10   H     H_    0.235868 0.073187 0.053040 0.283882
H11   H     H_    0.345177 0.214949 0.058795 0.269145
H12   H     H_    0.478266 0.028081 0.108065 0.207914
H13   H     H_    0.488008 0.055930 0.946370 0.208956
C27   C     C_3   0.228764 0.915898 0.807064 -0.391176
C28   C     C_3   0.288520 0.001723 0.706829 -0.790844
H14   H     H_    0.367474 0.063555 0.745855 0.258734
H15   H     H_    0.322556 0.930520 0.641444 0.256297
H16   H     H_    0.218650 0.072992 0.655565 0.245670
H17   H     H_    0.158049 0.848308 0.760098 0.202578
H18   H     H_    0.173465 0.980303 0.862380 0.220858
I1    I     I_    0.273140 0.190245 0.307690 -0.368003
I2    I     I_    0.709205 0.166389 0.710186 -0.361878
I3    I     I_    0.276313 0.834994 0.303262 -0.353560
I4    I     I_    0.714920 0.809344 0.708296 -0.318607

loop_
_geom_bond_atom_site_label_1
_geom_bond_atom_site_label_2
_ccdc_geom_bond_type
Cu1   O6    S    
C15   C18   A    
C5    N2    A    
C2    O4    A    
Cu1   O2    S    
C10   O6    A    
C19   H1    S    
C11   C16   A    
C2    O2    A    
C9    O5    A    
C19   C20   A    
C12   C15   A    
C1    O1    A    
Cu1   O1    S    
C21   H5    S    
C6    N2    A    
C21   C24   A    
Cu2   O8    S    
C3    H7    S    
Cu1   O5    S    
C28   H14   S    
C13   C25   S    
C11   C13   A    
C26   H11   S    
Cu2   O4    S    
C27   H18   S    
C25   H12   S    
Cu1   N1    S    
C25   H13   S    
C9    C17   S    
C17   C19   A    
C10   C18   S    
Cu2   O7    S    
C18   C20   A    
C28   H15   S    
C4    C24   A    
C4    H8    S    
Cu2   O3    S    
C9    O7    A    
C27   H17   S    
C1    O3    A    
C10   O8    A    
C3    C4    A    
C26   H10   S    
C6    I2    S    
C7    N1    A    
C22   H6    S    
C27   C28   S    
C11   H3    S    
C1    C24   S    
C28   H16   S    
Cu2   N2    S    
C2    C23   S    
C5    C7    A    
C5    I1    S    
C26   H9    S    
C7    I3    S    
C6    C8    A    
C20   H2    S    
C13   C14   A    
C12   H4    S    
Cu1   Cu2   S    
C21   C22   A    
C3    C23   A    
C22   C23   A    
C14   C27   S    
C15   C16   A    
C8    I4    S    
C12   C14   A    
C16   C17   A    
C8    N1    A    
C25   C26   S    
