data_mof_unit_60459.cif
_audit_creation_date              2013-03-05T16:34:15-0500
_audit_creation_method            fapswitch 2.2
_symmetry_space_group_name_H-M    P1
_symmetry_Int_Tables_number       1
_space_group_crystal_system       triclinic
_cell_length_a                    21.570038
_cell_length_b                    20.80671
_cell_length_c                    14.272188
_cell_angle_alpha                 90.000162
_cell_angle_beta                  90.000192
_cell_angle_gamma                 89.999495
_cell_volume                      6405.37974424

loop_
_atom_site_label
_atom_site_type_symbol
_atom_site_description
_atom_site_fract_x
_atom_site_fract_y
_atom_site_fract_z
_atom_type_partial_charge
O1    O     O_R   0.065470 0.434530 0.579480 -0.587164
O2    O     O_R   0.934530 0.565470 0.420520 -0.558485
O3    O     O_R   0.934530 0.565470 0.579480 -0.560460
O4    O     O_R   0.065470 0.434530 0.420520 -0.588705
O5    O     O_R   0.934530 0.434530 0.420520 -0.560478
O6    O     O_R   0.065470 0.565470 0.579480 -0.588612
O7    O     O_R   0.065470 0.565470 0.420520 -0.587311
O8    O     O_R   0.934530 0.434530 0.579480 -0.558703
O9    O     O_R   0.565470 0.934530 0.579480 -0.588702
O10   O     O_R   0.434530 0.065470 0.420520 -0.560464
O11   O     O_R   0.434530 0.065470 0.579480 -0.558479
O12   O     O_R   0.565470 0.934530 0.420520 -0.587176
O13   O     O_R   0.434530 0.934530 0.420520 -0.558692
O14   O     O_R   0.565470 0.065470 0.579480 -0.587311
O15   O     O_R   0.565470 0.065470 0.420520 -0.588615
O16   O     O_R   0.434530 0.934530 0.579480 -0.560478
C1    C     C_R   0.085328 0.413784 0.500029 1.043993
C2    C     C_R   0.912880 0.585267 0.499859 0.980538
C3    C     C_R   0.912884 0.414729 0.500141 0.980441
C4    C     C_R   0.085329 0.586215 0.499972 1.044054
C5    C     C_R   0.585328 0.913784 0.499971 1.044003
C6    C     C_R   0.412880 0.085267 0.500141 0.980527
C7    C     C_R   0.412884 0.914730 0.499859 0.980448
C8    C     C_R   0.585329 0.086215 0.500029 1.044054
Zn1   Zn    Zn3+2 0.000000 0.500000 0.606140 1.131690
Zn2   Zn    Zn3+2 1.000000 0.500000 0.393860 1.131630
Zn3   Zn    Zn3+2 0.500000 0.000000 0.606140 1.131634
Zn4   Zn    Zn3+2 0.500000 0.000000 0.393860 1.131684
H1    H     H_    0.966127 0.403194 0.067280 0.201133
H2    H     H_    0.966041 0.596730 0.932761 0.201164
H3    H     H_    0.034550 0.596418 0.067261 0.197184
H4    H     H_    0.034625 0.403558 0.932676 0.196984
H5    H     H_    0.534620 0.903558 0.067321 0.196993
H6    H     H_    0.534548 0.096420 0.932739 0.197182
H7    H     H_    0.466046 0.096733 0.067240 0.201163
H8    H     H_    0.466127 0.903194 0.932719 0.201132
C9    C     C_R   0.803357 0.287187 0.580437 -0.222861
C10   C     C_R   0.236242 0.667429 0.471345 -0.203692
C11   C     C_R   0.160557 0.744426 0.530121 -0.217916
C12   C     C_R   0.776741 0.317698 0.421256 -0.209530
C13   C     C_R   0.160542 0.255564 0.469881 -0.217909
C14   C     C_R   0.776739 0.682301 0.578758 -0.209507
C15   C     C_R   0.803311 0.712771 0.419545 -0.222849
C16   C     C_R   0.236233 0.332554 0.528660 -0.203708
C17   C     C_R   0.276741 0.817698 0.578745 -0.209528
C18   C     C_R   0.660558 0.244426 0.469880 -0.217915
C19   C     C_R   0.736242 0.167429 0.528658 -0.203698
C20   C     C_R   0.303354 0.787188 0.419562 -0.222862
C21   C     C_R   0.736235 0.832554 0.471356 -0.203706
C22   C     C_R   0.303308 0.212768 0.580460 -0.222849
C23   C     C_R   0.276744 0.182308 0.421237 -0.209510
C24   C     C_R   0.660538 0.755561 0.530108 -0.217905
H9    H     H_    0.795055 0.258440 0.642519 0.204122
H10   H     H_    0.283000 0.655748 0.449412 0.201777
H11   H     H_    0.148283 0.792755 0.551470 0.197381
H12   H     H_    0.748249 0.312047 0.359272 0.200571
H13   H     H_    0.148264 0.207236 0.448532 0.197396
H14   H     H_    0.748261 0.687967 0.640755 0.200583
H15   H     H_    0.794990 0.741503 0.357452 0.204157
H16   H     H_    0.282992 0.344228 0.550596 0.201786
H17   H     H_    0.248251 0.812047 0.640730 0.200571
H18   H     H_    0.648284 0.292755 0.448531 0.197380
H19   H     H_    0.782999 0.155748 0.550590 0.201776
H20   H     H_    0.295052 0.758441 0.357480 0.204123
H21   H     H_    0.782995 0.844229 0.449430 0.201788
H22   H     H_    0.294984 0.241496 0.642555 0.204157
H23   H     H_    0.248269 0.187978 0.359237 0.200583
H24   H     H_    0.648259 0.707232 0.551448 0.197396
C25   C     C_R   0.850204 0.332224 0.581348 0.629531
C26   C     C_R   0.191317 0.620140 0.470150 0.613701
C27   C     C_R   0.115624 0.697092 0.529232 0.620122
C28   C     C_R   0.823535 0.363172 0.421672 0.622935
C29   C     C_R   0.115611 0.302902 0.470775 0.620125
C30   C     C_R   0.823538 0.636832 0.578343 0.622917
C31   C     C_R   0.850160 0.667735 0.418630 0.629566
C32   C     C_R   0.191313 0.379848 0.529853 0.613989
C33   C     C_R   0.323535 0.863172 0.578328 0.622935
C34   C     C_R   0.615624 0.197092 0.470769 0.620125
C35   C     C_R   0.691317 0.120140 0.529853 0.613704
C36   C     C_R   0.350202 0.832226 0.418650 0.629536
C37   C     C_R   0.691314 0.879849 0.470162 0.613959
C38   C     C_R   0.350156 0.167731 0.581374 0.629567
C39   C     C_R   0.323543 0.136838 0.421653 0.622922
C40   C     C_R   0.615608 0.802900 0.529214 0.620133
C41   C     C_R   0.861886 0.369324 0.500856 -0.334442
C42   C     C_R   0.131430 0.635133 0.499903 -0.307130
C43   C     C_R   0.131424 0.364861 0.500099 -0.307026
C44   C     C_R   0.861872 0.630663 0.499141 -0.334518
C45   C     C_R   0.361885 0.869325 0.499144 -0.334448
C46   C     C_R   0.631430 0.135133 0.500098 -0.307134
C47   C     C_R   0.631423 0.864860 0.499902 -0.307025
C48   C     C_R   0.361872 0.130663 0.500859 -0.334525
C49   C     C_R   0.980924 0.446073 0.104045 -0.269708
C50   C     C_R   0.980870 0.553871 0.895975 -0.269772
C51   C     C_R   0.018790 0.553880 0.103962 -0.269342
C52   C     C_R   0.018822 0.446093 0.896006 -0.269428
C53   C     C_R   0.518819 0.946093 0.103993 -0.269424
C54   C     C_R   0.518789 0.053881 0.896037 -0.269341
C55   C     C_R   0.480873 0.053873 0.104026 -0.269767
C56   C     C_R   0.480924 0.946074 0.895954 -0.269709
C57   C     C_R   0.767529 0.279053 0.500030 -0.027927
C58   C     C_R   0.220795 0.729516 0.501254 -0.023009
C59   C     C_R   0.220780 0.270469 0.498746 -0.023067
C60   C     C_R   0.767507 0.720926 0.499970 -0.027961
C61   C     C_R   0.267529 0.779054 0.499971 -0.027929
C62   C     C_R   0.720796 0.229516 0.498747 -0.023008
C63   C     C_R   0.720779 0.770467 0.501256 -0.023069
C64   C     C_R   0.267509 0.220928 0.500030 -0.027959
C65   C     C_R   0.982039 0.446113 0.202996 0.388220
C66   C     C_R   0.981997 0.553862 0.797026 0.388175
C67   C     C_R   0.018799 0.553509 0.202928 0.401243
C68   C     C_R   0.018833 0.446497 0.797042 0.401463
C69   C     C_R   0.518831 0.946496 0.202957 0.401445
C70   C     C_R   0.518798 0.053510 0.797072 0.401249
C71   C     C_R   0.482000 0.053863 0.202974 0.388180
C72   C     C_R   0.482040 0.946113 0.797004 0.388224
N1    N     N_R   0.000000 0.500000 0.252470 -0.205176
N2    N     N_R   1.000000 0.500000 0.747530 -0.205192
N3    N     N_R   0.500000 0.000000 0.252470 -0.205192
N4    N     N_R   0.500000 0.000000 0.747530 -0.205175
C73   C     C_R   0.999438 0.500067 0.052867 0.060941
C74   C     C_R   0.999428 0.499880 0.947127 0.061043
C75   C     C_R   0.499428 0.999881 0.052872 0.061038
C76   C     C_R   0.499438 0.000068 0.947132 0.060943
F1    F     F_    0.883888 0.338746 0.660898 -0.577325
F2    F     F_    0.206131 0.559896 0.441172 -0.591120
F3    F     F_    0.056583 0.712022 0.553852 -0.588865
F4    F     F_    0.830070 0.401953 0.345849 -0.594302
F5    F     F_    0.056567 0.287975 0.446172 -0.588865
F6    F     F_    0.830095 0.598073 0.654185 -0.594306
F7    F     F_    0.883812 0.661188 0.339054 -0.577322
F8    F     F_    0.206132 0.440091 0.558832 -0.591011
F9    F     F_    0.330071 0.901953 0.654152 -0.594301
F10   F     F_    0.556584 0.212022 0.446148 -0.588865
F11   F     F_    0.706131 0.059896 0.558832 -0.591108
F12   F     F_    0.383883 0.838749 0.339099 -0.577323
F13   F     F_    0.706137 0.940093 0.441195 -0.591014
F14   F     F_    0.383804 0.161178 0.660955 -0.577323
F15   F     F_    0.330102 0.098082 0.345806 -0.594302
F16   F     F_    0.556562 0.787973 0.553808 -0.588868
N5    N     N_R   0.966388 0.387671 0.249942 0.243458
O17   O     O_R   0.008272 0.358864 0.299929 -0.297317
O18   O     O_R   0.918735 0.354621 0.221598 -0.303815
N6    N     N_R   0.966324 0.612310 0.750110 0.243502
O19   O     O_R   0.918707 0.645381 0.778542 -0.303830
O20   O     O_R   0.008160 0.641091 0.700006 -0.297208
N7    N     N_R   0.040485 0.609771 0.249980 0.225657
O21   O     O_R   0.002608 0.643244 0.301123 -0.265171
O22   O     O_R   0.093381 0.634949 0.226038 -0.360743
N8    N     N_R   0.040600 0.390295 0.749947 0.225563
O23   O     O_R   0.093770 0.365482 0.773370 -0.360663
O24   O     O_R   0.002672 0.356559 0.699231 -0.265286
N9    N     N_R   0.540591 0.890290 0.250050 0.225567
O25   O     O_R   0.593747 0.865456 0.226602 -0.360671
O26   O     O_R   0.502666 0.856571 0.300791 -0.265274
N10   N     N_R   0.540483 0.109772 0.750020 0.225656
O27   O     O_R   0.502605 0.143244 0.698876 -0.265178
O28   O     O_R   0.593378 0.134951 0.773962 -0.360743
N11   N     N_R   0.466330 0.112312 0.249892 0.243507
O29   O     O_R   0.418715 0.145385 0.221458 -0.303824
O30   O     O_R   0.508169 0.141092 0.299990 -0.297212
N12   N     N_R   0.466390 0.887671 0.750057 0.243459
O31   O     O_R   0.508274 0.858864 0.700071 -0.297329
O32   O     O_R   0.418738 0.854620 0.778400 -0.303813

loop_
_geom_bond_atom_site_label_1
_geom_bond_atom_site_label_2
_geom_bond_distance
_ccdc_geom_bond_type
C68   N2    1.379728 A    
C10   C26   1.381103 A    
C9    C25   1.378196 A    
O2    C2    1.292259 A    
N7    O21   1.298223 A    
C56   C72   1.412446 A    
Zn2   N1    2.017945 S    
C19   C35   1.381102 A    
C27   F3    1.357128 S    
Zn1   N2    2.017945 S    
C66   N2    1.380493 A    
C39   F15   1.357226 S    
C28   C41   1.406366 A    
C65   N1    1.380508 A    
C75   C76   1.509148 S    
C21   C63   1.400733 A    
Zn3   N4    2.017945 S    
C34   C46   1.397634 A    
C54   C76   1.399891 A    
C39   C48   1.406390 A    
C52   C68   1.412455 A    
C33   C45   1.406369 A    
C26   F2    1.358076 S    
O7    Zn2   1.998679 S    
C21   H21   1.083627 S    
C18   H18   1.083556 S    
C72   N12   1.428820 S    
N10   O27   1.298224 A    
N7    O22   1.301152 A    
C49   C73   1.398245 A    
N5    O18   1.301177 A    
C19   H19   1.083621 S    
C20   H20   1.083939 S    
O6    Zn1   1.998682 S    
C21   C37   1.381100 A    
C38   C48   1.406843 A    
O13   C7    1.292260 A    
O3    C2    1.295795 A    
C16   C32   1.381100 A    
O14   C8    1.286715 A    
C36   C45   1.406814 A    
C24   C40   1.381862 A    
C15   C60   1.393836 A    
C29   C43   1.397645 A    
C35   C46   1.395097 A    
C58   C61   1.441828 S    
C9    C57   1.393850 A    
C12   C57   1.396423 A    
C69   N3    1.379734 A    
C11   H11   1.083556 S    
C20   C61   1.393852 A    
C24   C63   1.397929 A    
C31   F7    1.354742 S    
C23   C64   1.396418 A    
C12   H12   1.083572 S    
C4    C42   1.422956 S    
C7    C45   1.450073 S    
O13   Zn4   1.998685 S    
C59   C64   1.441792 S    
C40   C47   1.397641 A    
O14   Zn3   1.998682 S    
N9    O26   1.298411 A    
C14   C60   1.396415 A    
C24   H24   1.083561 S    
O9    Zn3   1.998665 S    
C15   H15   1.083943 S    
C9    H9    1.083936 S    
C51   C73   1.399891 A    
O16   Zn3   1.998682 S    
C25   F1    1.354737 S    
C22   C64   1.393842 A    
O8    Zn1   1.998682 S    
C14   H14   1.083577 S    
C33   F9    1.357224 S    
H7    C55   1.083135 S    
C70   N10   1.428326 S    
C16   C59   1.400742 A    
C17   C61   1.396424 A    
N12   O32   1.301177 A    
C15   C31   1.378188 A    
C29   F5    1.357130 S    
C14   C30   1.383505 A    
O8    C3    1.292259 A    
O3    Zn1   1.998665 S    
O2    Zn2   1.998665 S    
C18   C34   1.381862 A    
O12   C5    1.286710 A    
C50   C66   1.412422 A    
O10   C6    1.295796 A    
C13   C59   1.397931 A    
C71   N11   1.428844 S    
C56   C76   1.398247 A    
C37   F13   1.358081 S    
C67   N7    1.428328 S    
C27   C42   1.397632 A    
C22   H22   1.083947 S    
N11   O29   1.301176 A    
C10   H10   1.083624 S    
O11   Zn3   1.998665 S    
C19   C62   1.400738 A    
N11   O30   1.297802 A    
H8    C56   1.083140 S    
C23   H23   1.083581 S    
C66   N6    1.428847 S    
C34   F10   1.357125 S    
C32   C43   1.395109 A    
C40   F16   1.357129 S    
C73   C74   1.509148 S    
O4    C1    1.287432 A    
C50   C74   1.398269 A    
N6    O20   1.297815 A    
O15   C8    1.287431 A    
H4    C52   1.083206 S    
C28   F4    1.357222 S    
O16   C7    1.295782 A    
C71   N3    1.380489 A    
C30   F6    1.357222 S    
N8    O24   1.298431 A    
C53   C69   1.412455 A    
C26   C42   1.395099 A    
C23   C39   1.383503 A    
C25   C41   1.406809 A    
C22   C38   1.378187 A    
C11   C58   1.397938 A    
C55   C75   1.398267 A    
N12   O31   1.297840 A    
C5    C47   1.422949 S    
O10   Zn4   1.998665 S    
C57   C62   1.441830 S    
C6    C48   1.450099 S    
C12   C28   1.383502 A    
C65   N5    1.428817 S    
C1    C43   1.422948 S    
C69   N9    1.428171 S    
N6    O19   1.301174 A    
C3    C41   1.450070 S    
Zn4   N3    2.017945 S    
C8    C46   1.422957 S    
O4    Zn2   1.998665 S    
O1    Zn1   1.998665 S    
O5    C3    1.295783 A    
C35   F11   1.358077 S    
O11   C6    1.292259 A    
O1    C1    1.286709 A    
C36   F12   1.354739 S    
C52   C74   1.399933 A    
C67   N1    1.379831 A    
C20   C36   1.378197 A    
N10   O28   1.301153 A    
C13   H13   1.083567 S    
C53   C75   1.399928 A    
H2    C50   1.083137 S    
C51   C67   1.412480 A    
N5    O17   1.297841 A    
C38   F14   1.354751 S    
H1    C49   1.083140 S    
C32   F8    1.358086 S    
O9    C5    1.287431 A    
O15   Zn4   1.998679 S    
O6    C4    1.287431 A    
C16   H16   1.083632 S    
H3    C51   1.083202 S    
C18   C62   1.397936 A    
C55   C71   1.412424 A    
C17   H17   1.083575 S    
H6    C54   1.083202 S    
C68   N8    1.428163 S    
C2    C44   1.450098 S    
C54   C70   1.412478 A    
C13   C29   1.381860 A    
O5    Zn2   1.998685 S    
C37   C47   1.395101 A    
C72   N4    1.380506 A    
C31   C44   1.406836 A    
O12   Zn4   1.998665 S    
C10   C58   1.400736 A    
O7    C4    1.286715 A    
C11   C27   1.381862 A    
N8    O23   1.301382 A    
C17   C33   1.383500 A    
H5    C53   1.083204 S    
C30   C44   1.406383 A    
N9    O25   1.301381 A    
C60   C63   1.441793 S    
C70   N4    1.379831 A    
C49   C65   1.412448 A    
