data_mof_unit_42917.cif
_audit_creation_date              2013-03-05T15:58:56-0500
_audit_creation_method            fapswitch 2.2
_symmetry_space_group_name_H-M    P1
_symmetry_Int_Tables_number       1
_space_group_crystal_system       triclinic
_cell_length_a                    10.685405
_cell_length_b                    12.602306
_cell_length_c                    13.236436
_cell_angle_alpha                 83.903873
_cell_angle_beta                  90.279793
_cell_angle_gamma                 102.081093
_cell_volume                      1732.81983051

loop_
_atom_site_label
_atom_site_type_symbol
_atom_site_description
_atom_site_fract_x
_atom_site_fract_y
_atom_site_fract_z
_atom_type_partial_charge
O1    O     O_R   0.468120 0.366740 0.627160 -0.563615
O2    O     O_R   0.510770 0.544830 0.662520 -0.578980
C1    C     C_R   0.477146 0.440979 0.691456 0.928007
O3    O     O_R   0.663880 0.410950 0.482330 -0.548577
O4    O     O_R   0.706530 0.589040 0.517700 -0.565195
C2    C     C_R   0.741904 0.499989 0.500997 0.934299
Zn1   Zn    Zn3+2 0.471520 0.381090 0.476390 1.093178
Zn2   Zn    Zn3+2 0.528480 0.618910 0.523610 1.064552
O5    O     O_R   0.489230 0.455170 0.337480 -0.568318
O6    O     O_R   0.531880 0.633260 0.372840 -0.602685
O7    O     O_R   0.293470 0.410960 0.482300 -0.606790
O8    O     O_R   0.336120 0.589050 0.517670 -0.636544
C3    C     C_R   0.513460 0.559981 0.308669 0.933397
C4    C     C_R   0.257929 0.499682 0.501007 0.903795
C5    C     C_3   0.905492 0.402183 0.574825 0.493759
H1    H     H_    0.883014 0.414209 0.654302 0.140234
C6    C     C_3   0.047314 0.397280 0.566963 -0.402442
H2    H     H_    0.087936 0.391745 0.644526 0.151360
H3    H     H_    0.056643 0.322383 0.532903 0.294850
H4    H     H_    0.096578 0.433363 0.353823 0.274354
C7    C     C_3   0.927788 0.497831 0.390299 0.095413
C8    C     C_3   0.955046 0.607245 0.541318 1.027856
C9    C     C_3   0.878666 0.500265 0.501336 -0.333772
C10   C     C_3   0.121385 0.500231 0.501366 -0.168610
C11   C     C_3   0.073166 0.501863 0.390863 -0.427790
C12   C     C_3   0.096379 0.602671 0.547339 -0.418236
H5    H     H_    0.123310 0.597563 0.628325 0.242672
H6    H     H_    0.154527 0.679187 0.507537 0.243891
H7    H     H_    0.912790 0.573370 0.344244 0.184972
H8    H     H_    0.123960 0.578099 0.345439 0.196450
C13   C     C_R   0.370859 0.685377 0.081761 0.695897
C14   C     C_R   0.493163 0.591554 0.201343 -0.260280
C15   C     C_R   0.491043 0.305434 0.836519 0.580839
C16   C     C_R   0.479552 0.266283 0.938439 -0.211246
C17   C     C_R   0.447118 0.329473 0.009252 0.612707
C18   C     C_R   0.422835 0.434013 0.978267 -0.050774
C19   C     C_R   0.413805 0.468938 0.873180 -0.235040
C20   C     C_R   0.418169 0.510552 0.048090 -0.009752
C21   C     C_R   0.356736 0.597982 0.021565 -0.251435
C22   C     C_R   0.302100 0.605865 0.926388 0.679311
C23   C     C_R   0.356923 0.562793 0.848982 0.193697
C24   C     C_R   0.486671 0.509503 0.137620 -0.065669
C25   C     C_R   0.448168 0.686686 0.167896 0.128184
C26   C     C_R   0.459286 0.406251 0.801385 -0.234788
H9    H     H_    0.538792 0.445967 0.158883 0.251241
H10   H     H_    0.499539 0.186910 0.963247 0.243416
C27   C     C_R   0.288810 0.075508 0.377967 0.192021
N1    N     N_R   0.433240 0.222190 0.444680 -0.201228
C28   C     C_R   0.668817 0.805201 0.614275 -0.030422
C29   C     C_R   0.702514 0.910164 0.642589 0.591533
C30   C     C_R   0.634134 0.988484 0.605742 0.600367
C31   C     C_R   0.535083 0.962917 0.534570 -0.179838
C32   C     C_R   0.502469 0.852899 0.511588 0.083062
C33   C     C_R   0.467344 0.039888 0.484755 -0.045499
C34   C     C_R   0.360535 0.001972 0.423116 -0.148623
C35   C     C_R   0.331532 0.892407 0.403919 0.684944
C36   C     C_R   0.406416 0.822206 0.442938 -0.149362
C37   C     C_R   0.502905 0.153416 0.490747 0.078450
C38   C     C_R   0.327086 0.185981 0.390183 0.347042
N2    N     N_R   0.566070 0.776970 0.554790 -0.136321
H11   H     H_    0.585374 0.190469 0.530495 0.271973
H12   H     H_    0.721027 0.744149 0.643750 0.240900
H13   H     H_    0.389265 0.744302 0.415151 0.202476
F1    F     F_    0.830157 0.302878 0.556061 -0.546893
N3    N     N_R   0.491790 0.786914 0.212970 0.225364
O9    O     O_R   0.607928 0.809693 0.246685 -0.302961
O10   O     O_R   0.429834 0.865626 0.198755 -0.241840
F2    F     F_    0.234634 0.684745 0.900342 -0.516526
F3    F     F_    0.322292 0.774510 0.050293 -0.498413
F4    F     F_    0.534304 0.243495 0.772094 -0.566370
F5    F     F_    0.432831 0.284855 0.107498 -0.595053
N4    N     N_R   0.399681 0.643273 0.766108 0.249378
O11   O     O_R   0.506943 0.711328 0.777960 -0.358887
O12   O     O_R   0.316618 0.675670 0.704953 -0.353825
N5    N     N_R   0.248667 0.259099 0.350662 0.231424
O13   O     O_R   0.285957 0.325684 0.269631 -0.308688
O14   O     O_R   0.128348 0.238257 0.377477 -0.338930
F6    F     F_    0.236137 0.852617 0.341262 -0.579970
N6    N     N_R   0.175996 0.039462 0.321112 0.300411
O15   O     O_R   0.072841 0.982729 0.367978 -0.216418
O16   O     O_R   0.170734 0.076105 0.225853 -0.205920
F7    F     F_    0.662998 0.085310 0.645155 -0.545712
F8    F     F_    0.799501 0.935225 0.708179 -0.528323
N7    N     N_R   0.858113 0.404472 0.340660 0.263896
O17   O     O_R   0.878236 0.306622 0.364235 -0.217296
O18   O     O_R   0.783025 0.421040 0.265577 -0.363602
F9    F     F_    0.942137 0.698694 0.476862 -0.590912
F10   F     F_    0.910598 0.618409 0.637306 -0.643201

loop_
_geom_bond_atom_site_label_1
_geom_bond_atom_site_label_2
_geom_bond_distance
_ccdc_geom_bond_type
C34   C35   1.400631 A    
C3    C14   1.461696 S    
C17   C18   1.413678 A    
C27   N6    1.435388 S    
Zn1   O7    2.018652 S    
C12   H5    1.107316 S    
C28   N2    1.356262 A    
C13   C25   1.404156 A    
C18   C19   1.422767 A    
N7    O18   1.301267 A    
C20   C24   1.390170 A    
O4    C2    1.297024 A    
O7    C4    1.301209 A    
H4    C11   1.108899 S    
C5    H1    1.113072 S    
C35   F6    1.358091 S    
C35   C36   1.372928 A    
C5    C6    1.534037 S    
C16   C17   1.382040 A    
C4    C10   1.460526 S    
O5    C3    1.306891 A    
C13   C21   1.409370 A    
N3    O10   1.300641 A    
C5    F1    1.385011 S    
C16   H10   1.083042 S    
C8    F10   1.389772 S    
C25   N3    1.442061 S    
C37   H11   1.070880 S    
C5    C9    1.564099 S    
C17   F5    1.356937 S    
O3    Zn1   2.013349 S    
C32   N2    1.362598 A    
C31   C33   1.432829 A    
C29   F8    1.356447 S    
C36   H13   1.064641 S    
C1    C26   1.475705 S    
C6    C10   1.549585 S    
C30   C31   1.422489 A    
C10   C11   1.547896 S    
O3    C2    1.296346 A    
C21   C22   1.388639 A    
N6    O16   1.301063 A    
C32   C36   1.388563 A    
C29   C30   1.393591 A    
C7    H7    1.114990 S    
O1    C1    1.318880 A    
C24   H9    1.080639 S    
N5    O13   1.298595 A    
C7    N7    1.470714 S    
Zn2   O8    2.013349 S    
C6    H2    1.113741 S    
C8    F9    1.389851 S    
N7    O17   1.301083 A    
N5    O14   1.300452 A    
C30   F7    1.353651 S    
C15   F4    1.358837 S    
C23   N4    1.419627 S    
N4    O12   1.297759 A    
C22   C23   1.394512 A    
O8    C4    1.293144 A    
C28   C29   1.387238 A    
C7    C9    1.568573 S    
C8    C12   1.524692 S    
C38   N5    1.428783 S    
C31   C32   1.422194 A    
N1    C38   1.363986 A    
C27   C34   1.406604 A    
C33   C37   1.412043 A    
C11   H8    1.114150 S    
Zn1   O5    1.962896 S    
C7    C11   1.543601 S    
C33   C34   1.428982 A    
C28   H12   1.081304 S    
O1    Zn1   1.984435 S    
C15   C26   1.413891 A    
O2    Zn2   1.962896 S    
C10   C12   1.556001 S    
N4    O11   1.299675 A    
O6    C3    1.304583 A    
O4    Zn2   2.018653 S    
N1    C37   1.352963 A    
C12   H6    1.112635 S    
Zn1   N1    2.046335 S    
C19   C26   1.445008 A    
C18   C20   1.413142 A    
O2    C1    1.298721 A    
Zn2   N2    2.034083 S    
C20   C21   1.409442 A    
C2    C9    1.460622 S    
C6    H3    1.110984 S    
C14   C25   1.411008 A    
C15   C16   1.383242 A    
C19   C23   1.445528 A    
C27   C38   1.393027 A    
N6    O15   1.301367 A    
C13   F3    1.359069 S    
Zn2   O6    1.984432 S    
N3    O9    1.301642 A    
C22   F2    1.360693 S    
C14   C24   1.392876 A    
C8    C9    1.565422 S    
