data_mof_unit_47952.cif
_audit_creation_date              2012-12-10T17:17:21-0500
_audit_creation_method            fapswitch 2.2
_symmetry_space_group_name_H-M    P1
_symmetry_Int_Tables_number       1
_space_group_crystal_system       triclinic
_cell_length_a                    27.762699
_cell_length_b                    13.007058
_cell_length_c                    11.832083
_cell_angle_alpha                 99.897983
_cell_angle_beta                  90.334887
_cell_angle_gamma                 93.655441
_cell_volume                      4199.92122272

loop_
_atom_site_label
_atom_site_type_symbol
_atom_type_description
_atom_site_fract_x
_atom_site_fract_y
_atom_site_fract_z
_atom_type_partial_charge
C1    C     C_R   0.496986 0.298885 0.478054 0.830521
C2    C     C_R   0.498255 0.700403 0.522501 0.758153
C3    C     C_R   0.102165 0.501953 0.508558 -0.045922
C4    C     C_R   0.898618 0.498371 0.503049 -0.046275
C5    C     C_R   0.125210 0.409730 0.468386 -0.017493
C6    C     C_R   0.875593 0.592205 0.506905 -0.018024
C7    C     C_R   0.097386 0.316040 0.433294 -0.147635
C8    C     C_R   0.903457 0.686964 0.518004 -0.147913
C9    C     C_R   0.130215 0.595211 0.548385 -0.021620
C10   C     C_R   0.870544 0.403661 0.497438 -0.027675
C11   C     C_R   0.355660 0.511884 0.506626 -0.131191
C12   C     C_R   0.645155 0.490671 0.490447 -0.084262
C13   C     C_R   0.972375 0.403325 0.489504 0.042092
C14   C     C_R   0.028361 0.596426 0.536969 0.041029
C15   C     C_R   0.977524 0.596119 0.524432 0.041207
C16   C     C_R   0.023257 0.404608 0.479772 0.040792
C17   C     C_R   0.949673 0.499294 0.505674 0.070217
C18   C     C_R   0.051095 0.500969 0.508586 0.069158
C19   C     C_R   0.943292 0.309397 0.484563 -0.207186
C20   C     C_R   0.057376 0.688777 0.577680 -0.208922
C21   C     C_R   0.893293 0.309956 0.490484 -0.158944
C22   C     C_R   0.107369 0.687642 0.585002 -0.147526
C23   C     C_R   0.408062 0.504115 0.502882 0.761968
C24   C     C_R   0.592208 0.496251 0.496589 0.866281
C25   C     C_R   0.047345 0.313020 0.440521 -0.209884
C26   C     C_R   0.953487 0.689234 0.528413 -0.209703
C27   C     C_R   0.493372 0.814014 0.538135 -0.089348
C28   C     C_R   0.492062 0.183695 0.463299 -0.085480
C29   C     C_R   0.488187 0.009715 0.347482 -0.188001
C30   C     C_R   0.488245 0.986209 0.654653 -0.195413
C31   C     C_R   0.485083 0.117737 0.353611 0.101846
C32   C     C_R   0.486481 0.877084 0.647657 0.090199
C33   C     C_R   0.493265 0.138663 0.562759 -0.282195
C34   C     C_R   0.494168 0.859716 0.439349 -0.267250
C35   C     C_R   0.491211 0.030746 0.555307 0.139394
C36   C     C_R   0.491502 0.966698 0.447113 0.145198
C37   C     C_R   0.448607 0.411986 0.034788 -0.358597
C38   C     C_R   0.545269 0.601824 0.968851 -0.358824
C39   C     C_R   0.453522 0.422062 0.153452 0.047058
C40   C     C_R   0.541710 0.590144 0.849622 0.055470
C41   C     C_R   0.524740 0.533220 0.148296 0.252523
C42   C     C_R   0.475936 0.462858 0.848982 0.255626
C43   C     C_R   0.516260 0.537181 0.030206 0.027394
C44   C     C_R   0.479714 0.470539 0.970818 0.045421
C45   C     C_R   0.175746 0.413814 0.462716 0.528936
C46   C     C_R   0.825028 0.588641 0.498495 0.518070
C47   C     C_R   0.180688 0.593759 0.550246 0.516302
C48   C     C_R   0.820134 0.405158 0.499788 0.543383
C49   C     C_R   0.281536 0.576703 0.440075 0.138480
C50   C     C_R   0.719772 0.440668 0.390959 0.052985
C51   C     C_R   0.332725 0.586429 0.454028 -0.038944
C52   C     C_R   0.668488 0.434072 0.394836 -0.046552
C53   C     C_R   0.328138 0.437034 0.553496 -0.260188
C54   C     C_R   0.672859 0.544592 0.583915 -0.258561
C55   C     C_R   0.278357 0.438635 0.556432 -0.114670
C56   C     C_R   0.722679 0.544473 0.583841 -0.120507
C57   C     C_R   0.254482 0.507104 0.499718 0.287909
C58   C     C_R   0.746526 0.494068 0.488661 0.332862
Cu1   Cu    Cu3+1 0.503580 0.507730 0.615930 0.925156
Cu2   Cu    Cu3+1 0.496420 0.492270 0.384070 0.937043
H1    H     H_    0.345491 0.376448 0.586897 0.164958
H2    H     H_    0.655853 0.587465 0.658087 0.161174
H3    H     H_    0.486695 0.957581 0.265618 0.126631
H4    H     H_    0.486253 0.037309 0.736665 0.128076
H5    H     H_    0.565088 0.638458 0.804391 0.126493
H6    H     H_    0.428084 0.379598 0.200096 0.134810
H7    H     H_    0.419712 0.358358 0.995849 0.172391
H8    H     H_    0.571257 0.661368 0.012047 0.159294
H9    H     H_    0.257989 0.383435 0.599534 0.163844
H10   H     H_    0.743167 0.585019 0.658263 0.152677
H11   H     H_    0.114208 0.244129 0.401047 0.185775
H12   H     H_    0.886665 0.760179 0.520055 0.184659
H13   H     H_    0.872467 0.236150 0.487265 0.185210
H14   H     H_    0.128116 0.760231 0.617362 0.186704
H15   H     H_    0.958411 0.234474 0.480187 0.141054
H16   H     H_    0.042191 0.762596 0.608075 0.141939
H17   H     H_    0.028208 0.238438 0.410398 0.141021
H18   H     H_    0.972678 0.764864 0.535182 0.140639
H19   H     H_    0.496508 0.811871 0.355206 0.153420
H20   H     H_    0.495393 0.187565 0.646905 0.157190
N1    N     N_R   0.202539 0.504945 0.503663 -0.464626
N2    N     N_R   0.798357 0.495740 0.494286 -0.464292
N3    N     N_R   0.508960 0.519350 0.790140 -0.189655
N4    N     N_R   0.491040 0.480650 0.209860 -0.184833
O1    O     O_R   0.502540 0.354460 0.582000 -0.600885
O2    O     O_R   0.497460 0.645540 0.418000 -0.599446
O3    O     O_R   0.496500 0.341410 0.386200 -0.573832
O4    O     O_R   0.503500 0.658590 0.613800 -0.600433
O5    O     O_R   0.433290 0.506540 0.597890 -0.596325
O6    O     O_R   0.566710 0.493460 0.402110 -0.570954
O7    O     O_R   0.427240 0.493490 0.402090 -0.602285
O8    O     O_R   0.572760 0.506510 0.597910 -0.582118
O9    O     O_2   0.197899 0.327580 0.415898 -0.549365
O10   O     O_2   0.802680 0.677172 0.494753 -0.547255
O11   O     O_2   0.793115 0.317126 0.508597 -0.552092
O12   O     O_2   0.207791 0.680784 0.596648 -0.539672
C59   C     C_3   0.476054 0.827705 0.753873 -0.353073
C60   C     C_3   0.454218 0.896920 0.856200 -0.401752
C61   C     C_3   0.438890 0.832216 0.947939 -0.832909
H21   H     H_    0.413109 0.765848 0.911282 0.258697
H22   H     H_    0.470951 0.801174 0.983727 0.251827
H23   H     H_    0.420617 0.881481 0.018468 0.246302
H24   H     H_    0.481301 0.959850 0.894868 0.223557
H25   H     H_    0.421961 0.932134 0.826855 0.235405
H26   H     H_    0.448927 0.760926 0.728303 0.227401
H27   H     H_    0.509945 0.798680 0.783273 0.206846
C62   C     C_3   0.472428 0.161574 0.246134 -0.352384
C63   C     C_3   0.451886 0.082402 0.143167 -0.393946
C64   C     C_3   0.432921 0.138175 0.050013 -0.868045
H28   H     H_    0.405014 0.191889 0.084996 0.250312
H29   H     H_    0.462986 0.183122 0.015121 0.257080
H30   H     H_    0.415937 0.080233 0.979143 0.249391
H31   H     H_    0.480592 0.031755 0.106021 0.225557
H32   H     H_    0.421552 0.033399 0.171483 0.235411
H33   H     H_    0.443632 0.216475 0.269901 0.204436
H34   H     H_    0.504927 0.204350 0.218141 0.241005
C65   C     C_3   0.434613 0.391089 0.788734 -0.379639
C66   C     C_3   0.384992 0.435825 0.818464 -0.369264
C67   C     C_3   0.344841 0.348977 0.814852 -0.858306
H35   H     H_    0.346847 0.289069 0.736314 0.253202
H36   H     H_    0.347881 0.309579 0.890416 0.250609
H37   H     H_    0.309121 0.383026 0.816584 0.252143
H38   H     H_    0.385208 0.485474 0.904756 0.222093
H39   H     H_    0.376124 0.488373 0.758170 0.243444
H40   H     H_    0.437282 0.372739 0.695879 0.237318
H41   H     H_    0.436539 0.312808 0.813598 0.164445
C68   C     C_3   0.576654 0.562812 0.190348 -0.361328
C69   C     C_3   0.585240 0.673365 0.260833 -0.339044
C70   C     C_3   0.638370 0.711992 0.261406 -0.862263
H42   H     H_    0.661169 0.657304 0.296546 0.262632
H43   H     H_    0.649984 0.718440 0.173075 0.252288
H44   H     H_    0.643612 0.790408 0.316087 0.256945
H45   H     H_    0.563223 0.728990 0.225036 0.204384
H46   H     H_    0.575469 0.673855 0.350981 0.253292
H47   H     H_    0.591170 0.501422 0.229429 0.207395
H48   H     H_    0.601323 0.556052 0.116313 0.164731
C71   C     C_2   0.640146 0.363479 0.302756 0.330740
H49   H     H_    0.649650 0.360300 0.213560 0.051638
O13   O     O_2   0.606566 0.305904 0.326061 -0.540336
C72   C     C_2   0.362432 0.674667 0.417909 0.310460
H50   H     H_    0.399796 0.666725 0.394725 0.107639
O14   O     O_2   0.346196 0.759741 0.418646 -0.540739
C73   C     C_3   0.746046 0.394697 0.282885 -0.416699
C74   C     C_3   0.743296 0.274061 0.260561 -0.295376
C75   C     C_3   0.787557 0.231510 0.197338 -0.812412
H51   H     H_    0.791251 0.260485 0.114601 0.251676
H52   H     H_    0.820694 0.256232 0.250738 0.260546
H53   H     H_    0.783634 0.144719 0.179500 0.244449
H54   H     H_    0.740091 0.242976 0.341991 0.273428
H55   H     H_    0.710872 0.243047 0.207199 0.202016
H56   H     H_    0.730686 0.422924 0.207763 0.166365
H57   H     H_    0.784359 0.425480 0.287531 0.216031
C76   C     C_3   0.256227 0.631399 0.354348 -0.325391
C77   C     C_3   0.272531 0.593410 0.231126 -0.381412
C78   C     C_3   0.246011 0.645553 0.145147 -0.801660
H58   H     H_    0.206505 0.626349 0.147623 0.253313
H59   H     H_    0.253330 0.731773 0.164990 0.265587
H60   H     H_    0.258697 0.616896 0.057212 0.245899
H61   H     H_    0.311867 0.610948 0.223024 0.233931
H62   H     H_    0.265037 0.507258 0.208720 0.227596
H63   H     H_    0.216592 0.614960 0.353992 0.190185
H64   H     H_    0.262161 0.717486 0.378194 0.258476

loop_
_geom_bond_atom_site_label_1
_geom_bond_atom_site_label_2
_ccdc_geom_bond_type
C1    O3    A    
C38   C40   A    
C29   H3    S    
C48   O11   S    
C30   H4    S    
C78   H59   S    
C8    C26   A    
C14   C18   A    
C35   C36   A    
C45   O9    S    
C69   C70   S    
C75   H51   S    
C19   H15   S    
C63   C64   S    
C71   O13   D    
C29   C36   A    
C26   H18   S    
C30   C35   A    
C25   H17   S    
C49   C76   S    
C19   C21   A    
Cu1   N3    S    
C39   N4    A    
C64   H29   S    
C7    H11   S    
C9    C22   A    
C67   H37   S    
C60   H24   S    
C21   H13   S    
C49   C57   A    
C32   C59   S    
C20   H16   S    
C3    C18   A    
Cu1   O5    S    
C63   H32   S    
C11   C23   S    
C41   C68   S    
C66   C67   S    
C74   H55   S    
C75   H52   S    
C46   N2    A    
C53   H1    S    
C48   N2    A    
C49   C51   A    
C1    C28   S    
C50   C52   A    
C62   C63   S    
C23   O5    A    
C2    O4    A    
C2    C27   S    
C23   O7    A    
C65   H41   S    
C11   C53   A    
Cu1   O8    S    
C70   H44   S    
C59   H26   S    
C51   C72   S    
C53   C55   A    
Cu1   Cu2   S    
C27   C34   A    
C78   H60   S    
C41   C43   A    
C40   N3    A    
C42   C44   A    
C24   O8    A    
C12   C52   A    
Cu2   O3    S    
C59   C60   S    
C67   H36   S    
C10   C21   A    
C1    O1    A    
C54   C56   A    
C8    H12   S    
C13   C19   A    
C50   C58   A    
C14   C20   A    
C72   H50   S    
C4    C6    A    
C64   H30   S    
C5    C7    A    
Cu2   O2    S    
C15   C26   A    
C6    C8    A    
C54   H2    S    
C41   N4    A    
C5    C45   A    
C76   H63   S    
C63   H31   S    
C43   C44   A    
Cu1   O1    S    
C77   H62   S    
C74   H54   S    
C3    C9    A    
C69   H46   S    
C34   H19   S    
C69   H45   S    
C61   H21   S    
C46   O10   S    
C47   O12   S    
C52   C71   S    
C42   C65   S    
C66   H39   S    
C68   H48   S    
C62   H33   S    
C77   C78   S    
C55   H9    S    
C4    C17   A    
C16   C18   A    
C73   H57   S    
C61   H22   S    
C20   C22   A    
C28   C33   A    
C9    C47   A    
C56   H10   S    
C40   H5    S    
C55   C57   A    
C10   C48   A    
C39   H6    S    
C57   N1    S    
C22   H14   S    
C4    C10   A    
C68   C69   S    
C75   H53   S    
C50   C73   S    
C70   H42   S    
Cu2   O7    S    
C16   C25   A    
C15   C17   A    
Cu1   O4    S    
C6    C46   A    
C27   C32   A    
C31   C62   S    
C28   C31   A    
C45   N1    A    
C42   N3    A    
C38   H8    S    
C74   C75   S    
C3    C5    A    
C24   O6    A    
C67   H35   S    
C33   H20   S    
C72   O14   D    
Cu2   O6    S    
C71   H49   S    
C12   C24   S    
C7    C25   A    
C13   C17   A    
C76   H64   S    
C37   C44   A    
C58   N2    S    
C77   H61   S    
C37   C39   A    
C65   C66   S    
C30   C32   A    
Cu2   N4    S    
C60   H25   S    
C37   H7    S    
C73   H56   S    
C33   C35   A    
C56   C58   A    
C2    O2    A    
C34   C36   A    
C66   H38   S    
C47   N1    A    
C68   H47   S    
C62   H34   S    
C11   C51   A    
C38   C43   A    
C61   H23   S    
C29   C31   A    
C60   C61   S    
C13   C16   A    
C78   H58   S    
C14   C15   A    
C76   C77   S    
C64   H28   S    
C65   H40   S    
C12   C54   A    
C73   C74   S    
C70   H43   S    
C59   H27   S    
