data_mof_unit_60149.cif
_audit_creation_date              2012-12-10T16:55:22-0500
_audit_creation_method            fapswitch 2.2
_symmetry_space_group_name_H-M    P1
_symmetry_Int_Tables_number       1
_space_group_crystal_system       triclinic
_cell_length_a                    29.34831
_cell_length_b                    30.887209
_cell_length_c                    21.197276
_cell_angle_alpha                 90.147812
_cell_angle_beta                  133.558153
_cell_angle_gamma                 89.87407
_cell_volume                      13924.6339233

loop_
_atom_site_label
_atom_site_type_symbol
_atom_type_description
_atom_site_fract_x
_atom_site_fract_y
_atom_site_fract_z
_atom_type_partial_charge
C1    C     C_R   0.307320 0.190828 0.118603 0.809011
C2    C     C_R   0.613725 0.868271 0.671280 0.033175
C3    C     C_R   0.321194 0.803586 0.270100 -0.143989
C4    C     C_R   0.828051 0.699331 0.276457 -0.142922
C5    C     C_R   0.169898 0.300080 0.721766 -0.140688
C6    C     C_R   0.222744 0.675088 0.779542 -0.138842
C7    C     C_R   0.775065 0.326446 0.217158 -0.136133
C8    C     C_R   0.206553 0.084881 0.107074 -0.131691
C9    C     C_R   0.665153 0.797899 0.652978 -0.134049
C10   C     C_R   0.793389 0.084695 0.892510 -0.132029
C11   C     C_R   0.335083 0.798254 0.347100 -0.136604
C12   C     C_R   0.846145 0.706023 0.356188 -0.152375
C13   C     C_R   0.660989 0.088668 0.759074 0.035613
C14   C     C_R   0.150779 0.293199 0.641408 -0.148267
C15   C     C_R   0.232289 0.671701 0.723856 -0.125821
C16   C     C_R   0.764338 0.330418 0.271456 -0.123765
C17   C     C_R   0.239970 0.049911 0.162756 -0.127848
C18   C     C_R   0.624118 0.826189 0.583868 -0.119648
C19   C     C_R   0.759923 0.049653 0.836893 -0.128177
C20   C     C_R   0.376368 0.826476 0.416389 -0.120101
C21   C     C_R   0.887921 0.677647 0.424806 -0.093552
C22   C     C_R   0.109014 0.321723 0.573106 -0.082617
C23   C     C_R   0.191375 0.647178 0.648223 -0.131437
C24   C     C_R   0.386600 0.868318 0.328907 0.032975
C25   C     C_R   0.805160 0.354704 0.347432 -0.126049
C26   C     C_R   0.305341 0.051603 0.228833 -0.081367
C27   C     C_R   0.598555 0.861055 0.592523 -0.141428
C28   C     C_R   0.694539 0.051366 0.771014 -0.080864
C29   C     C_R   0.401976 0.861193 0.407786 -0.140269
C30   C     C_R   0.909647 0.641419 0.412845 -0.130002
C31   C     C_R   0.088344 0.358283 0.585976 -0.120568
C32   C     C_R   0.142064 0.624677 0.629458 -0.131604
C33   C     C_R   0.855561 0.376424 0.367876 -0.130489
C34   C     C_R   0.889978 0.633000 0.331470 0.022217
C35   C     C_R   0.108980 0.366836 0.667924 0.016261
C36   C     C_R   0.133372 0.625491 0.687488 0.050629
C37   C     C_R   0.865472 0.375093 0.311190 0.045137
C38   C     C_R   0.304985 0.122796 0.179768 0.099823
C39   C     C_R   0.651332 0.837418 0.738783 0.100920
C40   C     C_R   0.694985 0.122716 0.820150 0.099297
C41   C     C_R   0.692813 0.809135 0.881155 0.809951
C42   C     C_R   0.348791 0.837520 0.261260 0.101260
C43   C     C_R   0.851941 0.663891 0.264181 0.107881
C44   C     C_R   0.146987 0.335827 0.734983 0.107190
C45   C     C_R   0.172426 0.653099 0.760955 0.097231
C46   C     C_R   0.826478 0.347641 0.237459 0.097525
C47   C     C_R   0.338393 0.157764 0.185251 -0.171065
C48   C     C_R   0.660886 0.841926 0.813578 -0.180021
C49   C     C_R   0.661591 0.157756 0.814793 -0.170658
C50   C     C_R   0.339132 0.841924 0.186410 -0.179619
C51   C     C_R   0.838368 0.657969 0.186418 -0.167011
C52   C     C_R   0.692700 0.190838 0.881433 0.807376
C53   C     C_R   0.161570 0.341991 0.813467 -0.177458
C54   C     C_R   0.159639 0.658667 0.813339 -0.158491
C55   C     C_R   0.840477 0.341348 0.186636 -0.159150
C56   C     C_R   0.403477 0.160316 0.252299 -0.239768
C57   C     C_R   0.636560 0.877314 0.823055 -0.253818
C58   C     C_R   0.596494 0.160326 0.748030 -0.239516
C59   C     C_R   0.363513 0.877144 0.176972 -0.253515
C60   C     C_R   0.857979 0.620698 0.173580 -0.260654
C61   C     C_R   0.143065 0.379600 0.827156 -0.249511
C62   C     C_R   0.108007 0.639145 0.791872 -0.258731
C63   C     C_R   0.307156 0.809127 0.118811 0.808666
C64   C     C_R   0.893243 0.359953 0.209969 -0.232802
C65   C     C_R   0.437652 0.128487 0.315644 0.423881
C66   C     C_R   0.602550 0.909179 0.759847 0.412063
C67   C     C_R   0.562265 0.128437 0.684722 0.422666
C68   C     C_R   0.397639 0.909001 0.240279 0.411682
C69   C     C_R   0.891499 0.588717 0.236490 0.334563
C70   C     C_R   0.109789 0.411714 0.764537 0.397839
C71   C     C_R   0.068632 0.612169 0.719899 0.410790
C72   C     C_R   0.932511 0.386816 0.282172 0.448901
C73   C     C_R   0.405374 0.092569 0.310899 -0.258395
C74   C     C_R   0.806925 0.690854 0.118878 0.805123
C75   C     C_R   0.591574 0.905068 0.683783 -0.246186
C76   C     C_R   0.594544 0.092476 0.689286 -0.258442
C77   C     C_R   0.408698 0.904994 0.316377 -0.246434
C78   C     C_R   0.907953 0.594784 0.316091 -0.230504
C79   C     C_R   0.092188 0.405385 0.684216 -0.239044
C80   C     C_R   0.085109 0.601351 0.672229 -0.263495
C81   C     C_R   0.914861 0.398497 0.328058 -0.264512
C82   C     C_R   0.944405 0.435930 0.388295 0.863018
C83   C     C_R   0.055573 0.564049 0.611735 0.870776
C84   C     C_R   0.059846 0.439842 0.619783 0.890162
C85   C     C_R   0.193101 0.309134 0.881092 0.808358
C86   C     C_R   0.940399 0.560401 0.380705 0.869987
C87   C     C_R   0.440372 0.939712 0.380384 0.857126
C88   C     C_R   0.559938 0.060136 0.620111 0.964989
C89   C     C_R   0.559713 0.939727 0.619658 0.856371
C90   C     C_R   0.440026 0.060167 0.379943 0.965064
C91   C     C_R   0.334508 0.249878 0.999850 0.786859
C92   C     C_R   0.665494 0.750122 0.000154 0.789349
C93   C     C_R   0.665448 0.249892 0.000017 0.780039
C94   C     C_R   0.334548 0.750105 0.999974 0.782682
C95   C     C_R   0.834498 0.749881 0.999833 0.786635
C96   C     C_R   0.192080 0.690924 0.881373 0.809399
C97   C     C_R   0.165504 0.250107 0.000172 0.785946
C98   C     C_R   0.165468 0.749911 0.000060 0.782898
C99   C     C_R   0.834530 0.250078 0.999935 0.779145
C100  C     C_1   0.385703 0.249774 0.999668 -0.166072
C101  C     C_1   0.614302 0.750227 0.000341 -0.172573
C102  C     C_1   0.614212 0.249871 0.000112 -0.168479
C103  C     C_1   0.385783 0.750130 0.999879 -0.174790
C104  C     C_1   0.885672 0.749773 0.999610 -0.177511
C105  C     C_1   0.114332 0.250180 0.000396 -0.169905
C106  C     C_1   0.114180 0.749839 0.000050 -0.169158
C107  C     C_R   0.808064 0.309083 0.118624 0.805053
C108  C     C_1   0.885818 0.250115 0.999945 -0.164028
C109  C     C_1   0.428215 0.249764 0.999700 0.022419
C110  C     C_1   0.571790 0.750239 0.000311 0.016383
C111  C     C_1   0.571711 0.249855 0.000097 0.020177
C112  C     C_1   0.428287 0.750149 0.999898 0.014382
C113  C     C_1   0.928160 0.749744 0.999595 0.012605
C114  C     C_1   0.071841 0.250180 0.000407 0.019869
C115  C     C_1   0.071642 0.749797 0.999964 0.018991
C116  C     C_1   0.928359 0.250128 0.000039 0.024181
C117  C     C_1   0.478688 0.249792 0.999842 0.025732
C118  C     C_R   0.338936 0.088811 0.240921 0.035672
C119  C     C_1   0.521316 0.750214 0.000165 0.019248
C120  C     C_1   0.521252 0.249823 0.999978 0.024502
C121  C     C_1   0.478749 0.750183 0.000024 0.018178
C122  C     C_1   0.978610 0.749746 0.999692 0.017880
C123  C     C_1   0.021391 0.250162 0.000309 0.024638
C124  C     C_1   0.021168 0.749763 0.999815 0.020315
C125  C     C_1   0.978834 0.250145 0.000189 0.026286
C126  C     C_R   0.238497 0.121029 0.115089 -0.136561
C127  C     C_R   0.678857 0.803321 0.729863 -0.144186
C128  C     C_R   0.761482 0.120935 0.884629 -0.136965
Cu1   Cu    Cu3+1 0.280720 0.280980 0.061500 1.015340
Cu2   Cu    Cu3+1 0.957580 0.500000 0.500070 1.083311
Cu3   Cu    Cu3+1 0.542420 0.000000 0.499930 1.083725
Cu4   Cu    Cu3+1 0.457580 1.000000 0.500070 1.083619
Cu5   Cu    Cu3+1 0.719280 0.719020 0.938500 0.987477
Cu6   Cu    Cu3+1 0.719280 0.280980 0.938500 1.018484
Cu7   Cu    Cu3+1 0.280720 0.719020 0.061500 0.985475
Cu8   Cu    Cu3+1 0.780720 0.780980 0.061500 0.980604
Cu9   Cu    Cu3+1 0.219280 0.219020 0.938500 0.976299
Cu10  Cu    Cu3+1 0.219280 0.780980 0.938500 0.992287
Cu11  Cu    Cu3+1 0.780720 0.219020 0.061500 0.986826
Cu12  Cu    Cu3+1 0.042420 0.500000 0.499930 1.089312
H1    H     H_    0.427808 0.187299 0.253928 0.200621
H2    H     H_    0.711733 0.780856 0.782115 0.145253
H3    H     H_    0.789522 0.147518 0.929029 0.137996
H4    H     H_    0.288127 0.781189 0.217705 0.144004
H5    H     H_    0.794497 0.721800 0.224726 0.149320
H6    H     H_    0.203520 0.277523 0.773212 0.150502
H7    H     H_    0.254707 0.695295 0.836743 0.115803
H8    H     H_    0.743170 0.306386 0.159710 0.114799
H9    H     H_    0.155710 0.083800 0.056789 0.142061
H10   H     H_    0.686052 0.771406 0.646759 0.145990
H11   H     H_    0.844239 0.083600 0.942642 0.142171
H12   H     H_    0.643821 0.879707 0.880462 0.205664
H13   H     H_    0.314137 0.771885 0.353266 0.142697
H14   H     H_    0.828029 0.733531 0.364929 0.147870
H15   H     H_    0.168140 0.265452 0.631966 0.151689
H16   H     H_    0.270670 0.688983 0.738404 0.142183
H17   H     H_    0.725124 0.313734 0.255614 0.145849
H18   H     H_    0.215140 0.021373 0.154997 0.140909
H19   H     H_    0.612449 0.821343 0.523511 0.147110
H20   H     H_    0.784721 0.021045 0.844546 0.141036
H21   H     H_    0.388190 0.821698 0.476834 0.145865
H22   H     H_    0.903018 0.683455 0.487262 0.177174
H23   H     H_    0.572215 0.187370 0.746604 0.201023
H24   H     H_    0.093168 0.315794 0.510212 0.177703
H25   H     H_    0.197445 0.645921 0.603336 0.141143
H26   H     H_    0.798179 0.356360 0.391310 0.147744
H27   H     H_    0.328686 0.022981 0.268493 0.163316
H28   H     H_    0.566239 0.881696 0.536394 0.138822
H29   H     H_    0.671141 0.022695 0.731386 0.163327
H30   H     H_    0.434485 0.881795 0.464034 0.138422
H31   H     H_    0.942517 0.620488 0.468154 0.159255
H32   H     H_    0.055602 0.379405 0.530961 0.146987
H33   H     H_    0.109641 0.608524 0.567188 0.145083
H34   H     H_    0.356177 0.879419 0.119509 0.205882
H35   H     H_    0.887840 0.392305 0.430439 0.149630
H36   H     H_    0.592479 0.131473 0.538824 0.369631
H37   H     H_    0.581199 0.023345 0.778852 0.382800
H38   H     H_    0.407169 0.131344 0.461848 0.370052
H39   H     H_    0.418752 0.023052 0.221186 0.382618
H40   H     H_    0.997885 0.570081 0.258242 0.333024
H41   H     H_    0.126062 0.525268 0.810685 0.379258
H42   H     H_    0.899554 0.591123 0.569966 0.376021
H43   H     H_    0.045897 0.458118 0.313285 0.382660
H44   H     H_    0.847545 0.616819 0.113900 0.203884
H45   H     H_    0.154457 0.383732 0.887487 0.208742
H46   H     H_    0.097116 0.646680 0.830252 0.191969
H47   H     H_    0.905085 0.351753 0.172946 0.187991
H48   H     H_    0.210480 0.147557 0.070636 0.138412
O1    O     O_R   0.321010 0.231060 0.142100 -0.566939
O2    O     O_R   0.730960 0.821350 0.961860 -0.569098
O3    O     O_R   0.730960 0.178650 0.961860 -0.576112
O4    O     O_R   0.269040 0.821350 0.038140 -0.569830
O5    O     O_R   0.769040 0.678650 0.038140 -0.567007
O6    O     O_R   0.230960 0.321350 0.961860 -0.569078
O7    O     O_R   0.230960 0.678650 0.961860 -0.565932
O8    O     O_R   0.769040 0.321350 0.038140 -0.561131
O9    O     O_R   0.337910 0.276140 0.051940 -0.556278
O10   O     O_R   0.662090 0.723860 0.948060 -0.557154
O11   O     O_R   0.662090 0.276140 0.948060 -0.556916
O12   O     O_R   0.678990 0.768940 0.857900 -0.582778
O13   O     O_R   0.337910 0.723860 0.051940 -0.558535
O14   O     O_R   0.837910 0.776140 0.051940 -0.558930
O15   O     O_R   0.162090 0.223860 0.948060 -0.571029
O16   O     O_R   0.162090 0.776140 0.948060 -0.558609
O17   O     O_R   0.837910 0.223860 0.051940 -0.571431
O18   O     O_R   0.285940 0.223740 0.947980 -0.567289
O19   O     O_R   0.714060 0.776260 0.052020 -0.567466
O20   O     O_R   0.714060 0.223740 0.052020 -0.560543
O21   O     O_R   0.285940 0.776260 0.947980 -0.561394
O22   O     O_R   0.785940 0.723740 0.947980 -0.566219
O23   O     O_R   0.678990 0.231060 0.857900 -0.567288
O24   O     O_R   0.214060 0.276260 0.052020 -0.551024
O25   O     O_R   0.214060 0.723740 0.052020 -0.568191
O26   O     O_R   0.785940 0.276260 0.947980 -0.552396
O27   O     O_R   0.990910 0.454660 0.410130 -0.487584
O28   O     O_R   0.009090 0.545340 0.589870 -0.487292
O29   O     O_R   0.009090 0.454660 0.589870 -0.550770
O30   O     O_R   0.990910 0.545340 0.410130 -0.548574
O31   O     O_R   0.490910 0.954660 0.410130 -0.539002
O32   O     O_R   0.509090 0.045340 0.589870 -0.507031
O33   O     O_R   0.509090 0.954660 0.589870 -0.539079
O34   O     O_R   0.321010 0.768940 0.142100 -0.582590
O35   O     O_R   0.490910 0.045340 0.410130 -0.506888
O36   O     O_R   0.919170 0.454670 0.410130 -0.610296
O37   O     O_R   0.080830 0.545330 0.589870 -0.606266
O38   O     O_R   0.080830 0.454670 0.589870 -0.586355
O39   O     O_R   0.919170 0.545330 0.410130 -0.592147
O40   O     O_R   0.419170 0.954670 0.410130 -0.620652
O41   O     O_R   0.580830 0.045330 0.589870 -0.604919
O42   O     O_R   0.580830 0.954670 0.589870 -0.620776
O43   O     O_R   0.419170 0.045330 0.410130 -0.604822
O44   O     O_2   0.551340 0.102014 0.385775 -0.265609
O45   O     O_R   0.821010 0.731060 0.142100 -0.586376
O46   O     O_2   0.539141 0.179610 0.394043 -0.278255
O47   O     O_3   0.546166 0.128560 0.497115 -0.503779
O48   O     O_2   0.504978 0.952196 0.716762 -0.255878
O49   O     O_2   0.602561 0.952268 0.871034 -0.274864
O50   O     O_3   0.597437 0.000218 0.766268 -0.576635
O51   O     O_2   0.448764 0.101934 0.614959 -0.265172
O52   O     O_2   0.460718 0.179534 0.607005 -0.275747
O53   O     O_3   0.453484 0.128485 0.503371 -0.503658
O54   O     O_2   0.495184 0.951891 0.283488 -0.255646
O55   O     O_2   0.397670 0.951759 0.129174 -0.274817
O56   O     O_R   0.178990 0.268940 0.857900 -0.585092
O57   O     O_3   0.402571 0.000002 0.233797 -0.576766
O58   O     O_2   0.895938 0.502071 0.234572 -0.238597
O59   O     O_2   0.878555 0.540089 0.118534 -0.263036
O60   O     O_3   0.990349 0.542722 0.274115 -0.480872
O61   O     O_2   0.022508 0.461469 0.735425 -0.211359
O62   O     O_2   0.125996 0.460360 0.884632 -0.286382
O63   O     O_3   0.114338 0.502744 0.768320 -0.541671
O64   O     O_2   0.001341 0.550186 0.713432 -0.195410
O65   O     O_2   0.986102 0.624149 0.736657 -0.285735
O66   O     O_3   0.936213 0.603136 0.582116 -0.567543
O67   O     O_R   0.178990 0.731060 0.857900 -0.572657
O68   O     O_2   0.058426 0.394689 0.412029 -0.330334
O69   O     O_2   0.017239 0.372308 0.270260 -0.288217
O70   O     O_3   0.003340 0.452391 0.289705 -0.401502
O71   O     O_R   0.821010 0.268940 0.142100 -0.574060
O72   O     O_R   0.269040 0.178650 0.038140 -0.576064
S1    S     S_3+6 0.520658 0.135166 0.398446 0.037853
S2    S     S_3+6 0.575478 0.953746 0.779706 0.021682
S3    S     S_3+6 0.479230 0.135096 0.602229 0.039058
S4    S     S_3+6 0.424676 0.953436 0.220462 0.021785
S5    S     S_3+6 0.912446 0.541784 0.213075 0.056986
S6    S     S_3+6 0.092101 0.459669 0.790010 0.048455
S7    S     S_3+6 0.997356 0.596694 0.689796 0.027572
S8    S     S_3+6 0.005343 0.400661 0.315450 0.034521

loop_
_geom_bond_atom_site_label_1
_geom_bond_atom_site_label_2
_ccdc_geom_bond_type
C61   C70   A    
C60   H44   S    
Cu7   Cu10  S    
C3    C42   A    
O48   S2    D    
Cu5   O10   S    
C50   C63   S    
C97   O24   A    
C53   C85   S    
C14   H15   S    
Cu2   O29   S    
C24   C42   A    
Cu11  O20   S    
C51   C74   S    
C57   C66   A    
C59   H34   S    
C84   O38   A    
Cu8   O14   S    
C83   O28   A    
C102  C111  T    
C41   O12   A    
C109  C117  S    
C48   C57   A    
Cu7   O13   S    
Cu7   O25   S    
O65   S7    D    
C95   O14   A    
C99   C108  S    
Cu12  O37   S    
C9    C127  A    
C22   C31   A    
C41   O2    A    
C99   O17   A    
C17   C26   A    
C32   C36   A    
Cu3   O31   S    
C93   O11   A    
C73   C90   S    
Cu11  O3    S    
Cu4   O40   S    
C69   S5    S    
C79   C84   S    
C10   H11   S    
C92   O10   A    
C85   O6    A    
C123  C125  T    
H36   O47   S    
C82   O36   A    
C31   H32   S    
C20   H21   S    
C63   O4    A    
C40   C128  A    
C57   H12   S    
C21   C30   A    
C72   S8    S    
C65   C73   A    
C107  O71   A    
C86   O30   A    
Cu6   O23   S    
C24   C29   A    
C71   C80   A    
C13   C40   A    
C18   H19   S    
Cu11  O17   S    
Cu12  O27   S    
H39   O57   S    
C6    C15   A    
C23   H25   S    
Cu9   O56   S    
C53   C61   A    
C2    C39   A    
C96   O7    A    
C113  C122  S    
Cu1   O1    S    
C46   C55   A    
Cu5   Cu8   S    
C66   C75   A    
C13   C28   A    
Cu2   O28   S    
C2    C27   A    
C21   H22   S    
C87   O31   A    
C91   C100  S    
C4    C12   A    
O58   S5    D    
C76   C88   S    
C89   O42   A    
C54   C96   S    
C72   C81   A    
C27   H28   S    
Cu9   O18   S    
H38   O53   S    
C97   C105  S    
C15   C23   A    
Cu3   O41   S    
Cu6   O8    S    
C88   O41   A    
O68   S8    D    
C74   O5    A    
Cu2   Cu12  S    
C100  C109  T    
O47   S1    S    
C98   O16   A    
Cu8   O45   S    
C86   O39   A    
C63   O34   A    
O51   S3    D    
C69   C78   A    
O69   S8    D    
Cu10  O16   S    
C97   O15   A    
C80   C83   S    
C10   C128  A    
C58   H23   S    
C44   C53   A    
C107  O8    A    
C38   C126  A    
C70   S6    S    
C20   C29   A    
C119  C121  T    
Cu6   O11   S    
C26   H27   S    
Cu10  O4    S    
C9    H10   S    
C39   C127  A    
O44   S1    D    
C30   C34   A    
C6    C45   A    
C94   C103  S    
O66   S7    S    
C7    C46   A    
C105  C114  T    
C60   C69   A    
C74   O45   A    
O62   S6    D    
C36   C80   A    
C117  C120  T    
Cu5   O22   S    
Cu6   Cu11  S    
Cu1   O6    S    
C1    C47   S    
O60   S5    S    
Cu9   O15   S    
C101  C110  T    
C11   C20   A    
C85   O56   A    
C81   C82   S    
C49   C58   A    
C88   O32   A    
C55   C107  S    
C103  C112  T    
Cu4   O32   S    
C52   O3    A    
O59   S5    D    
O61   S6    D    
C110  C119  S    
C37   C81   A    
C17   H18   S    
C59   C68   A    
C52   O23   A    
C22   H24   S    
C16   C25   A    
C28   H29   S    
O64   S7    D    
H43   O70   S    
C13   C76   A    
C10   C19   A    
C49   C52   S    
C55   C64   A    
C61   H45   S    
C5    C14   A    
C36   C45   A    
C94   O13   A    
C5    H6    S    
Cu1   O24   S    
C35   C44   A    
H42   O66   S    
O63   S6    S    
C38   C47   A    
C66   S2    S    
C92   C101  S    
C42   C50   A    
C114  C123  S    
H40   O60   S    
Cu3   O42   S    
C8    C126  A    
C7    C16   A    
C4    C43   A    
C98   O25   A    
C45   C54   A    
Cu5   O12   S    
C116  C125  S    
H41   O63   S    
C14   C22   A    
C73   C118  A    
C31   C35   A    
C90   O43   A    
O50   S2    S    
O55   S4    D    
C50   C59   A    
O52   S3    D    
C122  C124  T    
Cu10  O67   S    
Cu4   O43   S    
C15   H16   S    
C68   S4    S    
C91   O18   A    
C95   C104  S    
O70   S8    S    
C7    H8    S    
C83   O37   A    
Cu9   O72   S    
Cu12  O30   S    
C68   C77   A    
Cu7   O34   S    
C71   S7    S    
C115  C124  S    
O49   S2    D    
C95   O22   A    
C82   O27   A    
C5    C44   A    
C65   S1    S    
C3    H4    S    
C26   C118  A    
C96   O67   A    
C12   H14   S    
C98   C106  S    
C93   C102  S    
Cu2   O39   S    
Cu8   O19   S    
C67   S3    S    
C16   H17   S    
C111  C120  S    
C99   O26   A    
Cu11  O71   S    
C25   H26   S    
C54   C62   A    
C32   H33   S    
Cu10  O21   S    
Cu12  O38   S    
C8    C17   A    
Cu6   O26   S    
C62   H46   S    
C106  C115  T    
C18   C27   A    
C23   C32   A    
C108  C116  T    
C51   C60   A    
C126  H48   S    
C8    H9    S    
C112  C121  S    
C92   O19   A    
C19   H20   S    
Cu3   Cu4   S    
C34   C78   A    
C56   H1    S    
C89   O33   A    
C6    H7    S    
O57   S4    S    
C19   C28   A    
C78   C86   S    
C40   C49   A    
C70   C79   A    
C9    C18   A    
C43   C51   A    
C4    H5    S    
C12   C21   A    
C35   C79   A    
C41   C48   S    
Cu4   O33   S    
C62   C71   A    
Cu2   O36   S    
C64   C72   A    
C29   H30   S    
C33   H35   S    
C128  H3    S    
C33   C37   A    
C30   H31   S    
C64   H47   S    
C3    C11   A    
C84   O29   A    
C11   H13   S    
Cu7   O7    S    
C104  C113  T    
C91   O9    A    
O46   S1    D    
C58   C67   A    
C90   O35   A    
Cu1   Cu9   S    
C77   C87   S    
C94   O21   A    
Cu5   O5    S    
C87   O40   A    
O53   S3    S    
C75   C89   S    
Cu8   O2    S    
C24   C77   A    
C1    O72   A    
O54   S4    D    
C39   C48   A    
C38   C118  A    
Cu3   O35   S    
C67   C76   A    
C37   C46   A    
C34   C43   A    
C93   O20   A    
C127  H2    S    
Cu1   O9    S    
C2    C75   A    
C56   C65   A    
C25   C33   A    
C47   C56   A    
H37   O50   S    
C1    O1    A    
