data_mof_unit_46663.cif
_audit_creation_date              2012-12-10T18:11:45-0500
_audit_creation_method            fapswitch 2.2
_symmetry_space_group_name_H-M    P1
_symmetry_Int_Tables_number       1
_space_group_crystal_system       triclinic
_cell_length_a                    10.487217
_cell_length_b                    12.678447
_cell_length_c                    13.005721
_cell_angle_alpha                 81.797691
_cell_angle_beta                  90.975419
_cell_angle_gamma                 102.336916
_cell_volume                      1671.88685861

loop_
_atom_site_label
_atom_site_type_symbol
_atom_type_description
_atom_site_fract_x
_atom_site_fract_y
_atom_site_fract_z
_atom_type_partial_charge
Br1   Br    Br    0.723300 0.545059 0.119352 -0.630242
Br2   Br    Br    0.606848 0.222665 0.757324 -0.561534
Br3   Br    Br    0.243068 0.290096 0.300893 -0.509418
C1    C     C_R   0.486833 0.438399 0.692002 0.929714
C2    C     C_R   0.473438 0.441405 0.978735 -0.022461
C3    C     C_R   0.436779 0.457165 0.873612 -0.039846
C4    C     C_R   0.742079 0.500467 0.500173 0.877004
C5    C     C_R   0.464228 0.523707 0.039050 0.117986
C6    C     C_R   0.387887 0.601546 0.004278 0.057844
C7    C     C_R   0.330671 0.602077 0.906885 -0.174070
C8    C     C_R   0.358046 0.532877 0.840809 -0.121457
C9    C     C_R   0.538524 0.537618 0.128030 0.175286
C10   C     C_R   0.435727 0.681861 0.162342 0.486861
C11   C     C_R   0.481270 0.397635 0.803729 -0.255360
C12   C     C_3   0.067444 0.598576 0.517080 -0.161444
C13   C     C_R   0.296326 0.081779 0.365225 -0.364600
C14   C     C_R   0.663328 0.800553 0.623771 0.022428
C15   C     C_R   0.701381 0.905513 0.648850 -0.238517
C16   C     C_R   0.513945 0.561509 0.308130 0.932089
C17   C     C_R   0.639151 0.986493 0.602805 -0.171401
C18   C     C_R   0.537141 0.962176 0.531971 0.024308
C19   C     C_R   0.502771 0.853853 0.508746 0.198899
C20   C     C_R   0.468880 0.040503 0.482516 -0.000124
C21   C     C_R   0.364450 0.006999 0.415361 0.102233
C22   C     C_R   0.332473 0.900162 0.394701 -0.269779
C23   C     C_3   0.965902 0.521031 0.592703 -0.173169
C24   C     C_R   0.404131 0.826025 0.437987 -0.162661
C25   C     C_R   0.500514 0.151379 0.495438 -0.094674
C26   C     C_R   0.333120 0.190011 0.379483 0.447819
C27   C     C_R   0.257969 0.499687 0.499485 0.855372
C28   C     C_3   0.932780 0.402005 0.482081 -0.108516
C29   C     C_3   0.023713 0.422682 0.574869 -0.163482
C30   C     C_3   0.122545 0.499924 0.499215 0.016325
C31   C     C_3   0.034275 0.479558 0.406441 -0.136214
C32   C     C_3   0.976436 0.577911 0.424292 -0.178828
C33   C     C_3   0.630460 0.287073 0.163436 0.230779
C34   C     C_3   0.877614 0.500588 0.499959 0.020279
C35   C     C_3   0.617813 0.169366 0.216471 -0.390748
C36   C     C_3   0.729071 0.158679 0.292009 -0.961973
C37   C     C_3   0.415751 0.091006 0.972510 0.101249
C38   C     C_3   0.321251 0.078748 0.064376 -0.371169
C39   C     C_3   0.200228 0.989130 0.056252 -0.953087
C40   C     C_3   0.506862 0.862036 0.179304 0.093546
C41   C     C_3   0.654256 0.865090 0.191950 -0.385608
C42   C     C_3   0.719513 0.856180 0.090322 -0.830274
C43   C     C_R   0.376388 0.681679 0.065133 -0.318608
C44   C     C_R   0.503586 0.599676 0.197761 -0.199585
C45   C     C_R   0.529446 0.304379 0.843186 0.119178
C46   C     C_R   0.524879 0.269399 0.950301 0.391083
C47   C     C_R   0.512107 0.342482 0.019530 0.356830
H1    H     H_    0.047622 0.359488 0.635919 0.148323
H2    H     H_    0.382959 0.748069 0.412484 0.248639
H3    H     H_    0.066436 0.462828 0.330642 0.182732
H4    H     H_    0.952517 0.641091 0.363219 0.159298
H5    H     H_    0.126033 0.678999 0.531258 0.159011
H6    H     H_    0.933409 0.538020 0.668314 0.149360
H7    H     H_    0.271048 0.660181 0.879490 0.144111
H8    H     H_    0.320890 0.742931 0.038045 0.152133
H9    H     H_    0.661281 0.340102 0.224140 0.201772
H10   H     H_    0.710020 0.306639 0.103341 0.148818
H11   H     H_    0.524459 0.142661 0.259837 0.240063
H12   H     H_    0.315667 0.538141 0.764254 0.149669
H13   H     H_    0.619089 0.114179 0.157991 0.250752
H14   H     H_    0.824182 0.180236 0.249555 0.285484
H15   H     H_    0.714418 0.073572 0.332111 0.262887
H16   H     H_    0.730990 0.212944 0.352114 0.267089
H17   H     H_    0.438372 0.010702 0.966056 0.163214
H18   H     H_    0.366946 0.114341 0.898372 0.154229
H19   H     H_    0.370692 0.058445 0.138212 0.225969
H20   H     H_    0.290326 0.156952 0.066411 0.256837
H21   H     H_    0.147725 0.007841 0.983285 0.272102
H22   H     H_    0.133576 0.983364 0.123223 0.271697
H23   H     H_    0.255549 0.874925 0.340923 0.177182
H24   H     H_    0.228097 0.909239 0.057604 0.261544
H25   H     H_    0.483667 0.925577 0.221577 0.144839
H26   H     H_    0.482036 0.885933 0.097225 0.139022
H27   H     H_    0.703292 0.943548 0.217081 0.198544
H28   H     H_    0.671179 0.799331 0.253239 0.257138
H29   H     H_    0.672971 0.779888 0.060084 0.284537
H30   H     H_    0.824348 0.856120 0.103769 0.264877
H31   H     H_    0.712211 0.926905 0.031044 0.260978
H32   H     H_    0.217785 0.057069 0.312637 0.179839
H33   H     H_    0.578916 0.184075 0.543709 0.177336
H34   H     H_    0.711880 0.737393 0.658770 0.145085
H35   H     H_    0.874480 0.321418 0.468328 0.151077
H36   H     H_    0.672608 0.066629 0.624213 0.182176
H37   H     H_    0.779181 0.924171 0.703467 0.162961
N1    N     N_R   0.432930 0.222190 0.444670 -0.126111
N2    N     N_R   0.566370 0.776980 0.554790 -0.135500
O1    O     O_R   0.467970 0.366730 0.627150 -0.571109
O2    O     O_3   0.535229 0.164033 0.987802 -0.630064
O3    O     O_3   0.427371 0.760965 0.223064 -0.653909
O4    O     O_R   0.510820 0.544830 0.662520 -0.619786
O5    O     O_R   0.664630 0.410960 0.482340 -0.622379
O6    O     O_R   0.707470 0.589060 0.517710 -0.631675
O7    O     O_R   0.489180 0.455170 0.337480 -0.558787
O8    O     O_R   0.532030 0.633270 0.372850 -0.613745
O9    O     O_R   0.292530 0.410940 0.482290 -0.579111
O10   O     O_R   0.335370 0.589040 0.517660 -0.660850
O11   O     O_3   0.508323 0.307532 0.126230 -0.618707
Zn1   Zn    Zn3+2 0.471390 0.381080 0.476380 1.002404
Zn2   Zn    Zn3+2 0.528610 0.618920 0.523620 0.929742

loop_
_geom_bond_atom_site_label_1
_geom_bond_atom_site_label_2
_ccdc_geom_bond_type
C23   C29   S    
C28   H35   S    
N2    Zn2   S    
C38   C39   S    
C8    H12   S    
N1    Zn1   S    
C16   O8    A    
C29   H1    S    
C24   H2    S    
C36   H14   S    
C2    C3    A    
C41   H27   S    
C32   C34   S    
C35   C36   S    
C16   C44   S    
C31   C32   S    
Br3   C26   S    
C26   N1    A    
O5    Zn1   S    
C5    C6    A    
C37   H17   S    
C17   H36   S    
C25   N1    A    
C20   C21   A    
C6    C7    A    
C15   C17   A    
O8    Zn2   S    
O6    Zn2   S    
C35   H11   S    
C33   H9    S    
C6    C43   A    
C13   C21   A    
C18   C19   A    
C43   H8    S    
C32   H4    S    
C36   H15   S    
Br1   C9    S    
C46   O2    S    
C9    C44   A    
C12   C32   S    
C30   C31   S    
C1    O1    A    
C40   H25   S    
C39   H24   S    
C7    H7    S    
C14   N2    A    
C21   C22   A    
C42   H29   S    
C3    C8    A    
C10   C44   A    
C12   C23   S    
C11   C45   A    
Br2   C45   S    
C13   C26   A    
C27   O10   A    
C28   C34   S    
C12   H5    S    
C40   C41   S    
O1    Zn1   S    
C3    C11   A    
C28   C29   S    
C5    C9    A    
C39   H22   S    
C14   C15   A    
C4    C34   S    
C28   C31   S    
C33   O11   S    
C20   C25   A    
C37   C38   S    
C46   C47   A    
C19   C24   A    
C18   C20   A    
C10   O3    S    
C36   H16   S    
C2    C47   A    
C41   C42   S    
C38   H19   S    
C35   H13   S    
C40   H26   S    
C4    O5    A    
C45   C46   A    
C27   C30   S    
C42   H31   S    
C15   H37   S    
C33   H10   S    
C23   H6    S    
O4    Zn2   S    
C2    C5    A    
C23   C34   S    
C22   C24   A    
O9    Zn1   S    
C4    O6    A    
C27   O9    A    
C47   O11   S    
C40   O3    S    
C14   H34   S    
C29   C30   S    
C41   H28   S    
C10   C43   A    
C33   C35   S    
C39   H21   S    
C19   N2    A    
C42   H30   S    
C22   H23   S    
C37   O2    S    
C1    C11   S    
C7    C8    A    
C1    O4    A    
O10   Zn2   S    
C17   C18   A    
C31   H3    S    
C13   H32   S    
C37   H18   S    
O7    Zn1   S    
C12   C30   S    
C16   O7    A    
C38   H20   S    
C25   H33   S    
