data_mof_unit_23268.cif
_audit_creation_date              2012-12-10T16:51:44-0500
_audit_creation_method            fapswitch 2.2
_symmetry_space_group_name_H-M    P1
_symmetry_Int_Tables_number       1
_space_group_crystal_system       triclinic
_cell_length_a                    15.462752
_cell_length_b                    15.454981
_cell_length_c                    9.710937
_cell_angle_alpha                 89.283374
_cell_angle_beta                  89.442703
_cell_angle_gamma                 89.903336
_cell_volume                      2320.39197789

loop_
_atom_site_label
_atom_site_type_symbol
_atom_type_description
_atom_site_fract_x
_atom_site_fract_y
_atom_site_fract_z
_atom_type_partial_charge
C1    C     C_R   0.386595 0.879081 0.501129 0.719808
C2    C     C_R   0.378292 0.112376 0.500239 0.723269
C3    C     C_R   0.886601 0.379074 0.501131 0.719795
C4    C     C_R   0.878289 0.612374 0.500241 0.723363
C5    C     C_R   0.615258 0.119192 0.498734 0.761471
C6    C     C_R   0.619982 0.884906 0.500032 0.747170
C7    C     C_R   0.115259 0.619191 0.498736 0.761701
C8    C     C_R   0.119982 0.384905 0.500034 0.747117
C9    C     C_2   0.702156 0.768368 0.394707 0.383077
C10   C     C_2   0.727920 0.207976 0.391178 0.341568
C11   C     C_2   0.202192 0.268397 0.394690 0.383075
C12   C     C_2   0.227850 0.708056 0.391135 0.341342
C13   C     C_2   0.694628 0.826008 0.497880 0.298455
C14   C     C_2   0.670670 0.195138 0.495488 0.318492
C15   C     C_2   0.194630 0.326011 0.497893 0.298426
C16   C     C_2   0.170663 0.695139 0.495510 0.318439
C17   C     C_2   0.277937 0.210954 0.390870 -0.237455
C18   C     C_2   0.285464 0.783411 0.393039 -0.274902
C19   C     C_2   0.777898 0.710919 0.390866 -0.237448
C20   C     C_2   0.785536 0.283331 0.393029 -0.274729
C21   C     C_2   0.298984 0.163516 0.501951 0.292765
C22   C     C_2   0.332386 0.801917 0.504114 0.310094
C23   C     C_2   0.798979 0.663514 0.501966 0.292759
C24   C     C_2   0.832403 0.301900 0.504134 0.310088
C25   C     C_2   0.443518 0.039876 0.925728 -0.109094
C26   C     C_2   0.943517 0.539874 0.925727 -0.108998
C27   C     C_2   0.432111 0.019952 0.079011 0.529665
C28   C     C_2   0.932113 0.519953 0.079008 0.529638
Cu1   Cu    Cu3+1 0.500020 1.000000 0.638630 0.976355
Cu2   Cu    Cu3+1 0.000020 0.500000 0.638630 0.976452
Cu3   Cu    Cu3+1 0.499980 1.000000 0.361370 1.027430
Cu4   Cu    Cu3+1 0.999980 0.500000 0.361370 1.027436
H1    H     H_    0.316073 0.208651 0.296391 0.129302
H2    H     H_    0.290381 0.822462 0.299529 0.126423
H3    H     H_    0.816004 0.708586 0.296359 0.129373
H4    H     H_    0.790498 0.322329 0.299467 0.126356
H5    H     H_    0.399471 0.085405 0.877881 0.094768
H6    H     H_    0.899466 0.585401 0.877885 0.094801
H7    H     H_    0.558764 0.007748 0.108340 0.233754
H8    H     H_    0.058764 0.507739 0.108340 0.233782
N1    N     N_2   0.498660 1.000000 0.846910 0.009206
N2    N     N_2   0.998660 0.500000 0.846910 0.009197
N3    N     N_2   0.498630 0.000000 0.153040 -0.280822
N4    N     N_2   0.998630 0.500000 0.153040 -0.280817
O1    O     O_R   0.410990 0.910970 0.617040 -0.618951
O2    O     O_R   0.410990 0.089030 0.617040 -0.613618
O3    O     O_R   0.910990 0.410970 0.617040 -0.618951
O4    O     O_R   0.910990 0.589030 0.617040 -0.613556
O5    O     O_R   0.410950 0.910970 0.382900 -0.549328
O6    O     O_R   0.410950 0.089030 0.382900 -0.545509
O7    O     O_R   0.910950 0.410970 0.382900 -0.549389
O8    O     O_R   0.910950 0.589030 0.382900 -0.545497
O9    O     O_R   0.589050 0.089030 0.617100 -0.546327
O10   O     O_R   0.589050 0.910970 0.617100 -0.606725
O11   O     O_R   0.089050 0.589030 0.617100 -0.546173
O12   O     O_R   0.089050 0.410970 0.617100 -0.606735
O13   O     O_R   0.589010 0.089030 0.382960 -0.557786
O14   O     O_R   0.589010 0.910970 0.382960 -0.525360
O15   O     O_R   0.089010 0.589030 0.382960 -0.557785
O16   O     O_R   0.089010 0.410970 0.382960 -0.525376
O17   O     O_3   0.638649 0.761050 0.296214 -0.752721
H9    H     H_    0.656567 0.715563 0.230664 0.319544
O18   O     O_3   0.731559 0.151792 0.281437 -0.734996
H10   H     H_    0.777620 0.171871 0.216851 0.331836
O19   O     O_3   0.138714 0.261099 0.296145 -0.752716
H11   H     H_    0.156655 0.215629 0.230579 0.319536
O20   O     O_3   0.231426 0.651954 0.281284 -0.734943
H12   H     H_    0.277447 0.672083 0.216664 0.331864
O21   O     O_3   0.766173 0.839656 0.582005 -0.608979
C29   C     C_3   0.742999 0.847724 0.722371 0.155405
H13   H     H_    0.688805 0.803748 0.752890 0.169164
H14   H     H_    0.725376 0.915965 0.744283 0.190006
C30   C     C_3   0.820617 0.824398 0.810693 -0.789733
H15   H     H_    0.875339 0.868591 0.786182 0.246000
H16   H     H_    0.803216 0.830589 0.921366 0.205816
H17   H     H_    0.841249 0.756748 0.791325 0.255257
O22   O     O_3   0.663721 0.253834 0.602167 -0.549362
C31   C     C_3   0.586874 0.302246 0.586092 0.039795
H18   H     H_    0.528973 0.260639 0.603618 0.148980
H19   H     H_    0.583698 0.332598 0.481436 0.128243
C32   C     C_3   0.585017 0.374229 0.691454 -0.728661
H20   H     H_    0.642227 0.416861 0.676649 0.244300
H21   H     H_    0.525380 0.413534 0.678795 0.203990
H22   H     H_    0.585798 0.346203 0.797322 0.246373
O23   O     O_3   0.266149 0.339642 0.582082 -0.608993
C33   C     C_3   0.242934 0.347625 0.722447 0.155449
H23   H     H_    0.188733 0.303631 0.752863 0.169124
H24   H     H_    0.225301 0.415851 0.744449 0.190077
C34   C     C_3   0.320527 0.324253 0.810795 -0.789836
H25   H     H_    0.375243 0.368482 0.786422 0.245982
H26   H     H_    0.303084 0.330353 0.921467 0.205802
H27   H     H_    0.341190 0.256627 0.791312 0.255250
O24   O     O_3   0.163758 0.753751 0.602306 -0.549259
C35   C     C_3   0.087090 0.802420 0.586039 0.039898
H28   H     H_    0.029025 0.760942 0.602906 0.148627
H29   H     H_    0.084278 0.833041 0.481548 0.128371
C36   C     C_3   0.085158 0.874133 0.691866 -0.728574
H30   H     H_    0.142531 0.916626 0.677734 0.244248
H31   H     H_    0.025674 0.913651 0.679053 0.203904
H32   H     H_    0.085572 0.845834 0.797565 0.246383
O25   O     O_3   0.242880 0.160072 0.614164 -0.747275
H33   H     H_    0.264284 0.116996 0.682154 0.315160
O26   O     O_3   0.333333 0.745082 0.615711 -0.684905
H34   H     H_    0.375597 0.765423 0.683976 0.312469
O27   O     O_3   0.742908 0.660110 0.614224 -0.747252
H35   H     H_    0.764327 0.617054 0.682234 0.315177
O28   O     O_3   0.833303 0.245118 0.615802 -0.684984
H36   H     H_    0.875525 0.265491 0.684099 0.312501
O29   O     O_3   0.543503 0.934174 0.905476 -0.512029
C37   C     C_3   0.496038 0.856749 0.890134 0.161198
H37   H     H_    0.509667 0.827966 0.788417 0.169873
H38   H     H_    0.424920 0.866741 0.901520 0.121907
C38   C     C_3   0.524011 0.791817 0.999966 -0.825271
H39   H     H_    0.509024 0.817223 0.103980 0.286986
H40   H     H_    0.488946 0.729871 0.986755 0.207244
H41   H     H_    0.594630 0.779505 0.991017 0.251196
O30   O     O_3   0.043503 0.434173 0.905475 -0.512038
C39   C     C_3   0.996039 0.356749 0.890130 0.161154
H42   H     H_    0.009674 0.327962 0.788418 0.169865
H43   H     H_    0.924920 0.366740 0.901504 0.121854
C40   C     C_3   0.024004 0.291819 0.999972 -0.825319
H44   H     H_    0.009008 0.317226 0.103982 0.286971
H45   H     H_    0.988941 0.229872 0.986756 0.207226
H46   H     H_    0.094624 0.279508 0.991038 0.251200
O31   O     O_3   0.352621 0.027535 0.146867 -0.550461
C41   C     C_3   0.281483 0.019902 0.057811 0.001386
H47   H     H_    0.289447 0.964294 0.986732 0.140111
H48   H     H_    0.272454 0.081050 0.998079 0.139736
C42   C     C_3   0.199982 0.004521 0.143572 -0.753304
H49   H     H_    0.190504 0.058033 0.217447 0.246211
H50   H     H_    0.142972 0.001366 0.075150 0.203789
H51   H     H_    0.205306 0.942581 0.201944 0.238378
O32   O     O_3   0.852625 0.527564 0.146858 -0.550498
C43   C     C_3   0.781493 0.519768 0.057830 0.001445
H52   H     H_    0.789510 0.464093 0.986893 0.140102
H53   H     H_    0.772401 0.580844 0.997939 0.139736
C44   C     C_3   0.700009 0.504393 0.143636 -0.753210
H54   H     H_    0.690463 0.557990 0.217334 0.246152
H55   H     H_    0.643005 0.501077 0.075226 0.203768
H56   H     H_    0.705409 0.442534 0.202210 0.238424

loop_
_geom_bond_atom_site_label_1
_geom_bond_atom_site_label_2
_ccdc_geom_bond_type
O24   C35   S    
C30   H15   S    
C6    O14   A    
O27   H35   S    
C10   O18   S    
C7    O11   A    
C8    O12   A    
C43   C44   S    
C36   H30   S    
O22   C31   S    
C2    O2    A    
C44   H55   S    
C16   O24   S    
O25   H33   S    
Cu3   N3    S    
C4    O8    A    
C9    O17   S    
Cu3   O14   S    
C5    O9    A    
Cu3   O5    S    
C38   H39   S    
O21   C29   S    
C4    O4    A    
C31   H19   S    
Cu1   O10   S    
C23   O27   S    
C14   O22   S    
C9    C13   D    
C39   H42   S    
Cu4   O8    S    
C40   H46   S    
C2    O6    A    
C36   H31   S    
C37   H37   S    
C11   C15   D    
C9    C19   S    
C20   C24   D    
C10   C20   S    
O28   H36   S    
C29   H13   S    
C38   H41   S    
C34   H26   S    
C5    C14   S    
C15   O23   S    
C42   H51   S    
C25   H5    S    
C1    C22   S    
N1    O29   S    
C30   H16   S    
C3    C24   S    
O17   H9    S    
C17   H1    S    
C6    O10   A    
C7    O15   A    
C32   H21   S    
C32   H20   S    
C37   H38   S    
C44   H56   S    
O20   H12   S    
C12   C16   D    
Cu2   O3    S    
C10   C14   D    
C25   N1    D    
C4    C23   S    
C3    O7    A    
C31   H18   S    
C26   H6    S    
H7    N3    S    
C12   O20   S    
C35   C36   S    
O23   C33   S    
C29   C30   S    
Cu2   O12   S    
C28   N4    D    
C17   C21   D    
C22   O26   S    
C28   O32   S    
Cu1   O1    S    
Cu1   O9    S    
C39   C40   S    
C19   C23   D    
Cu4   O7    S    
C2    C21   S    
Cu4   N4    S    
C24   O28   S    
C34   H27   S    
C35   H29   S    
C18   H2    S    
C37   C38   S    
C40   H44   S    
C7    C16   S    
C8    C15   S    
O32   C43   S    
C30   H17   S    
Cu4   O16   S    
Cu3   O6    S    
C32   H22   S    
C26   N2    D    
C42   H49   S    
C44   H54   S    
Cu2   O4    S    
C11   C17   S    
C41   H48   S    
C36   H32   S    
Cu1   N1    S    
C33   H23   S    
C33   C34   S    
C43   H53   S    
N2    O30   S    
C43   H52   S    
C25   C27   S    
Cu2   O11   S    
C26   C28   S    
C41   C42   S    
C5    O13   A    
Cu1   O2    S    
Cu3   O13   S    
C18   C22   D    
C21   O25   S    
Cu1   Cu3   S    
C19   H3    S    
O29   C37   S    
C8    O16   A    
C6    C13   S    
Cu2   Cu4   S    
C27   O31   S    
C31   C32   S    
C1    O1    A    
O31   C41   S    
C13   O21   S    
C41   H47   S    
C3    O3    A    
C33   H24   S    
C35   H28   S    
C39   H43   S    
C40   H45   S    
O18   H10   S    
C20   H4    S    
C27   N3    D    
H8    N4    S    
O19   H11   S    
C12   C18   S    
O26   H34   S    
Cu2   N2    S    
C29   H14   S    
Cu4   O15   S    
C38   H40   S    
C34   H25   S    
O30   C39   S    
C1    O5    A    
C11   O19   S    
C42   H50   S    
