data_mof_unit_38887.cif
_audit_creation_date              2012-10-26T20:03:41-0400
_audit_creation_method            fapswitch 2.2
_symmetry_space_group_name_H-M    P1
_symmetry_Int_Tables_number       1
_space_group_crystal_system       triclinic
_cell_length_a                    12.459256
_cell_length_b                    13.207341
_cell_length_c                    15.826742
_cell_angle_alpha                 75.383693
_cell_angle_beta                  101.49464
_cell_angle_gamma                 117.260445
_cell_volume                      2229.54101098

loop_
_atom_site_label
_atom_site_type_symbol
_atom_type_description
_atom_site_fract_x
_atom_site_fract_y
_atom_site_fract_z
_atom_type_partial_charge
C1    C     C_R   0.855414 0.286687 0.506299 0.537105
C2    C     C_R   0.228703 0.837224 0.462584 0.022885
C3    C     C_R   0.811393 0.081063 0.565481 -0.142713
C4    C     C_R   0.000362 0.499818 0.659837 0.560909
C5    C     C_R   0.729543 0.965565 0.585108 -0.146908
C6    C     C_R   0.607715 0.930427 0.553843 -0.122483
C7    C     C_R   0.565797 0.010219 0.498408 0.032967
C8    C     C_R   0.652475 0.125077 0.470452 0.020852
C9    C     C_R   0.441164 0.979257 0.468227 0.014672
C10   C     C_R   0.407336 0.058799 0.404033 0.020877
C11   C     C_R   0.495620 0.166968 0.370863 -0.143292
C12   C     C_3   0.000189 0.499624 0.916854 0.075623
C13   C     C_R   0.616389 0.199245 0.402771 -0.115354
C14   C     C_R   0.348937 0.871525 0.499875 -0.172668
C15   C     C_R   0.196735 0.916013 0.396887 0.128520
C16   C     C_R   0.145031 0.713998 0.484809 0.542690
C17   C     C_R   0.773472 0.162521 0.510525 -0.022184
C18   C     C_R   0.350398 0.340396 0.652281 0.115528
C19   C     C_R   0.757425 0.642441 0.378148 0.041420
C20   C     C_R   0.662573 0.674783 0.351308 -0.165406
C21   C     C_R   0.562053 0.623592 0.398921 -0.128738
C22   C     C_R   0.554465 0.538721 0.475088 -0.035813
C23   C     C_3   0.113920 0.542818 0.038102 -0.107499
C24   C     C_R   0.654491 0.507057 0.501611 0.185412
C25   C     C_R   0.450052 0.482815 0.524893 -0.066395
C26   C     C_R   0.452747 0.406629 0.604744 -0.033343
C27   C     C_R   0.556490 0.392118 0.635864 -0.141566
C28   C     C_R   0.999689 0.500301 0.340093 0.520116
C29   C     C_R   0.644822 0.421125 0.581154 0.289877
C30   C     C_R   0.342444 0.498712 0.499968 -0.010559
C31   C     C_R   0.246173 0.359225 0.623561 0.447436
C32   C     C_3   0.935535 0.387798 0.041501 -0.065769
C33   C     C_3   0.886677 0.456641 0.963214 0.146123
C34   C     C_3   0.996932 0.498111 0.082963 -0.013809
C35   C     C_1   0.001012 0.499455 0.749706 -0.033278
C36   C     C_1   0.998007 0.499563 0.250202 -0.041775
C37   C     C_3   0.051521 0.434327 0.995184 0.302220
C38   C     C_3   0.668954 0.370393 0.974576 -0.312388
C39   C     C_3   0.148962 0.300898 0.749970 -0.091232
C40   C     C_3   0.286221 0.133411 0.703288 -0.301949
C41   C     C_3   0.666192 0.249777 0.649204 -0.110882
C42   C     C_3   0.145160 0.316651 0.065659 -0.134829
C43   C     C_3   0.067173 0.839311 0.272572 -0.301599
C44   C     C_3   0.060527 0.608717 0.958940 -0.166875
C45   C     C_3   0.944208 0.565184 0.005479 -0.112713
C46   C     C_1   0.000937 0.499347 0.825312 -0.026030
C47   C     C_1   0.997014 0.498780 0.174558 -0.069946
C48   C     C_R   0.285831 0.027776 0.370711 -0.124130
Cu1   Cu    Cu3+1 0.098270 0.475420 0.519690 0.976906
Cu2   Cu    Cu3+1 0.901730 0.524580 0.480310 0.989763
H1    H     H_    0.368598 0.810976 0.552816 0.119768
H2    H     H_    0.491939 0.653042 0.375168 0.104441
H3    H     H_    0.667002 0.740108 0.293081 0.099548
H4    H     H_    0.898326 0.617850 0.010932 0.108208
H5    H     H_    0.111259 0.698416 0.923938 0.107822
H6    H     H_    0.207834 0.577922 0.070608 0.103774
H7    H     H_    0.471342 0.226873 0.319472 0.102467
H8    H     H_    0.261018 0.088053 0.320066 0.097177
H9    H     H_    0.755032 0.466114 0.861781 0.250895
H10   H     H_    0.579905 0.332570 0.935773 0.139058
H11   H     H_    0.673523 0.443057 0.000638 0.134470
H12   H     H_    0.903688 0.107288 0.595960 0.162350
H13   H     H_    0.675762 0.301916 0.029931 0.152545
H14   H     H_    0.065372 0.302829 0.762132 0.161135
H15   H     H_    0.227467 0.380879 0.767684 0.107972
H16   H     H_    0.152352 0.222492 0.794361 0.106814
H17   H     H_    0.341751 0.256981 0.783916 0.237806
H18   H     H_    0.187167 0.108336 0.691537 0.173146
H19   H     H_    0.303098 0.070852 0.759514 0.129889
H20   H     H_    0.318797 0.129010 0.644424 0.155474
H21   H     H_    0.577593 0.201644 0.612956 0.119153
H22   H     H_    0.657059 0.240108 0.719453 0.109114
H23   H     H_    0.549431 0.839619 0.572339 0.107412
H24   H     H_    0.726325 0.208701 0.650069 0.137744
H25   H     H_    0.066451 0.255700 0.103534 0.110601
H26   H     H_    0.212478 0.383202 0.104079 0.111793
H27   H     H_    0.190050 0.265728 0.055183 0.131402
H28   H     H_    0.046878 0.943906 0.339589 0.240772
H29   H     H_    0.130684 0.908182 0.225778 0.126531
H30   H     H_    0.973450 0.814275 0.240007 0.119262
H31   H     H_    0.086850 0.762241 0.288766 0.162185
H32   H     H_    0.759917 0.903351 0.627370 0.119933
H33   H     H_    0.681362 0.281896 0.371628 0.142245
H34   H     H_    0.563838 0.346740 0.702259 0.152963
H35   H     H_    0.332733 0.558424 0.441822 0.128113
H36   H     H_    0.834526 0.682449 0.340490 0.142117
H37   H     H_    0.883988 0.297916 0.075837 0.093486
N1    N     N_R   0.246280 0.438200 0.549540 -0.239699
N2    N     N_R   0.754330 0.561180 0.450980 -0.228471
N3    N     N_2   0.765262 0.411749 0.919070 -0.514892
N4    N     N_2   0.350888 0.248977 0.723055 -0.547833
N5    N     N_2   0.078522 0.881318 0.351515 -0.501719
O1    O     O_R   0.972510 0.318130 0.524770 -0.455304
O2    O     O_3   0.722718 0.368480 0.609149 -0.510815
O3    O     O_3   0.107674 0.368039 0.983174 -0.574368
O4    O     O_R   0.806530 0.359650 0.491510 -0.453135
O5    O     O_R   0.082970 0.479240 0.637550 -0.483449
O6    O     O_R   0.916990 0.520750 0.604290 -0.434308
O7    O     O_R   0.193470 0.640350 0.508490 -0.525111
O8    O     O_R   0.027490 0.681870 0.475230 -0.472743
O9    O     O_R   0.083010 0.479250 0.395710 -0.504654
O10   O     O_R   0.917030 0.520760 0.362450 -0.523793
O11   O     O_3   0.138095 0.290200 0.661598 -0.549068

loop_
_geom_bond_atom_site_label_1
_geom_bond_atom_site_label_2
_ccdc_geom_bond_type
C8    C13   A    
C4    O6    A    
C27   C29   A    
C33   C45   S    
C19   C20   A    
C18   C26   A    
C19   H36   S    
C24   N2    A    
C7    C8    A    
C39   H14   S    
C26   C27   A    
C40   H20   S    
C18   N4    S    
C21   C22   A    
C27   H34   S    
Cu1   O9    S    
C29   O2    S    
C43   H29   S    
C37   O3    S    
C36   C47   T    
C12   C37   S    
C24   C29   A    
C15   N5    S    
C28   O9    A    
C41   O2    S    
C22   C25   A    
C2    C16   S    
C9    C10   A    
C41   H21   S    
C38   H11   S    
C41   H24   S    
C4    C35   S    
C4    O5    A    
C39   H15   S    
Cu1   N1    S    
C15   C48   A    
Cu2   O6    S    
C40   H19   S    
C42   O3    S    
C23   H6    S    
C12   C46   S    
C16   O8    A    
H28   N5    S    
C25   C26   A    
C23   C37   S    
C32   H37   S    
C23   C44   S    
H9    N3    S    
C32   C34   S    
C9    C14   A    
C19   N2    A    
Cu1   O7    S    
Cu2   N2    S    
C14   H1    S    
C23   C34   S    
H17   N4    S    
C42   H25   S    
C34   C45   S    
C32   C37   S    
C20   C21   A    
C30   H35   S    
C39   O11   S    
C2    C15   A    
C41   H22   S    
C38   H10   S    
C45   H4    S    
Cu2   O10   S    
C10   C48   A    
C43   H31   S    
C39   H16   S    
C22   C24   A    
C30   N1    A    
C44   C45   S    
C6    H23   S    
C38   H13   S    
C3    H12   S    
C25   C30   A    
C7    C9    A    
C13   H33   S    
C31   N1    A    
Cu2   O8    S    
C43   N5    S    
C20   H3    S    
C3    C5    A    
C16   O7    A    
C48   H8    S    
C6    C7    A    
C34   C47   S    
C38   N3    S    
C42   H26   S    
C8    C17   A    
C32   C33   S    
C43   H30   S    
C12   C44   S    
C33   N3    S    
C5    H32   S    
C11   C13   A    
C44   H5    S    
Cu2   O4    S    
C5    C6    A    
C1    O4    A    
C3    C17   A    
C40   N4    S    
C2    C14   A    
C10   C11   A    
Cu1   O5    S    
C28   O10   A    
C1    C17   S    
C28   C36   S    
C42   H27   S    
C1    O1    A    
Cu1   Cu2   S    
C40   H18   S    
C18   C31   A    
Cu1   O1    S    
C12   C33   S    
C11   H7    S    
C35   C46   T    
C21   H2    S    
C31   O11   S    
