data_mof_unit_28280.cif
_audit_creation_date              2013-03-05T16:17:08-0500
_audit_creation_method            fapswitch 2.2
_symmetry_space_group_name_H-M    P1
_symmetry_Int_Tables_number       1
_space_group_crystal_system       triclinic
_cell_length_a                    8.569714
_cell_length_b                    19.300679
_cell_length_c                    18.88404
_cell_angle_alpha                 102.483538
_cell_angle_beta                  93.806233
_cell_angle_gamma                 93.162775
_cell_volume                      3035.11605896

loop_
_atom_site_label
_atom_site_type_symbol
_atom_site_description
_atom_site_fract_x
_atom_site_fract_y
_atom_site_fract_z
_atom_type_partial_charge
P1    P     P_3+3 0.945300 0.665790 0.568510 0.491732
O1    O     O_2   0.117290 0.676350 0.548250 -0.281936
O2    O     O_3   0.869060 0.586940 0.542720 -0.357219
O3    O     O_3   0.356990 0.628630 0.417250 -0.362908
O4    O     O_2   0.234308 0.746366 0.471510 -0.345962
O5    O     O_3   0.981444 0.676503 0.662937 -0.585462
O6    O     O_3   0.329916 0.748584 0.345878 -0.512113
C1    C     C_3   0.464547 0.774923 0.242355 -0.228573
P2    P     P_3+3 0.360080 0.438780 0.334620 0.523594
P3    P     P_3+3 0.911694 0.573490 0.282718 0.498937
O7    O     O_2   0.186600 0.460070 0.325400 -0.349303
O8    O     O_3   0.942970 0.591450 0.378940 -0.330585
O9    O     O_2   0.040551 0.524619 0.256290 -0.330939
O10   O     O_3   0.314395 0.348698 0.291092 -0.606124
O11   O     O_3   0.982555 0.644822 0.248035 -0.524201
C2    C     C_3   0.876150 0.697126 0.246259 0.576252
H1    H     H_    0.752147 0.675680 0.243360 0.001797
C3    C     C_3   0.905455 0.724676 0.175830 -0.174457
H2    H     H_    0.031030 0.720528 0.167406 0.148106
C4    C     C_3   0.803585 0.324664 0.278415 0.470661
C5    C     C_3   0.731947 0.260706 0.215271 -0.260706
H3    H     H_    0.637936 0.232142 0.237366 0.107063
Ba1   Ba    Ba6+2 0.153490 0.533960 0.468530 1.615162
C6    C     C_3   0.859061 0.709332 0.700558 0.225326
H4    H     H_    0.843868 0.684238 0.747601 0.091920
H5    H     H_    0.745549 0.700341 0.668066 0.094517
C7    C     C_3   0.900337 0.789362 0.727526 -0.756119
H6    H     H_    0.029038 0.799627 0.735949 0.203161
H7    H     H_    0.855476 0.817680 0.686168 0.220009
C8    C     C_3   0.341988 0.295059 0.329089 0.509214
H8    H     H_    0.464499 0.282903 0.323790 0.117744
C9    C     C_3   0.232765 0.228542 0.288643 -0.138304
H9    H     H_    0.125222 0.249409 0.269136 0.162386
P4    P     P_3+3 0.865000 0.334200 0.431430 0.538193
O12   O     O_2   0.693010 0.323600 0.451730 -0.335453
O13   O     O_3   0.941240 0.413050 0.457220 -0.332937
O14   O     O_3   0.453310 0.371360 0.582690 -0.378129
O15   O     O_3   0.877164 0.297656 0.335845 -0.618665
P5    P     P_3+3 0.893553 0.418197 0.715652 0.425168
O16   O     O_3   0.371310 0.539060 0.587050 -0.348608
O17   O     O_3   0.867330 0.408540 0.621000 -0.389610
O18   O     O_2   0.762111 0.463612 0.747321 -0.376704
O19   O     O_3   0.854145 0.335065 0.738121 -0.582279
Ba2   Ba    Ba6+2 0.656680 0.466030 0.531410 1.577430
P6    P     P_3+3 0.375447 0.721869 0.428533 0.499636
C10   C     C_3   0.433633 0.722432 0.292872 0.572992
H10   H     H_    0.549947 0.715779 0.318545 -0.068225
H11   H     H_    0.539088 0.748523 0.200411 0.165831
O20   O     O_3   0.438990 0.460930 0.412890 -0.321399
C11   C     C_3   0.372957 0.699763 0.729219 0.489267
H12   H     H_    0.260055 0.673567 0.702518 0.130921
C12   C     C_3   0.366796 0.710560 0.813139 -0.255634
H13   H     H_    0.353035 0.658199 0.825903 0.135865
P7    P     P_3+3 0.452133 0.567729 0.679287 0.430542
O21   O     O_2   0.623700 0.539890 0.674570 -0.346725
O22   O     O_3   0.499285 0.659835 0.704236 -0.612643
C13   C     C_3   0.860537 0.278306 0.676901 0.242183
H14   H     H_    0.748192 0.271626 0.643485 0.198629
H15   H     H_    0.948193 0.290570 0.640267 0.086591
C14   C     C_3   0.899459 0.206840 0.698717 -0.309361
H16   H     H_    0.001869 0.186494 0.670254 0.120720
P8    P     P_3+3 0.416159 0.281355 0.582166 0.414286
C15   C     C_3   0.406517 0.303714 0.730095 0.544791
O23   O     O_2   0.541077 0.247722 0.532577 -0.360145
O24   O     O_3   0.478529 0.265344 0.668799 -0.591192
H17   H     H_    0.339923 0.287140 0.836336 0.167120
C16   C     C_3   0.406250 0.259038 0.791192 -0.199507
C17   C     C_R   0.974494 0.958456 0.547958 0.070001
C18   C     C_R   0.061167 0.917333 0.587955 0.009250
C19   C     C_R   0.192123 0.952045 0.634513 -0.085145
C20   C     C_R   0.252254 0.019175 0.627733 -0.167880
C21   C     C_R   0.176497 0.056260 0.580768 0.028457
C22   C     C_R   0.030215 0.029447 0.546582 -0.009213
C23   C     C_R   0.249181 0.117754 0.564887 0.143542
C24   C     C_R   0.157436 0.168022 0.538683 -0.023383
C25   C     C_R   0.002625 0.143863 0.507527 -0.007056
C26   C     C_R   0.944829 0.072026 0.508001 -0.017335
C27   C     C_R   0.211667 0.240852 0.543684 0.243524
C28   C     C_R   0.106099 0.287739 0.521672 -0.518886
C29   C     C_R   0.963337 0.264389 0.479435 0.220367
C30   C     C_R   0.910905 0.188527 0.471368 -0.116396
C31   C     C_R   0.830933 0.929424 0.510914 0.005689
C32   C     C_R   0.776063 0.857781 0.510514 0.001192
C33   C     C_R   0.874889 0.811378 0.540319 0.054957
C34   C     C_R   0.017024 0.843263 0.579243 -0.218263
H18   H     H_    0.359190 0.043038 0.659612 0.188152
H19   H     H_    0.143685 0.343690 0.532027 0.171237
H20   H     H_    0.090207 0.811087 0.605531 0.145353
C35   C     C_R   0.773573 0.153220 0.428544 -0.063298
C36   C     C_R   0.715796 0.083065 0.431400 0.056033
C37   C     C_R   0.799944 0.043010 0.472149 0.032072
C38   C     C_R   0.740437 0.972895 0.475277 -0.025772
C39   C     C_R   0.573289 0.051582 0.393179 -0.230170
C40   C     C_R   0.501969 0.988770 0.404476 -0.034315
C41   C     C_R   0.586399 0.948080 0.446458 0.030325
C42   C     C_R   0.619380 0.834778 0.483580 -0.127054
C43   C     C_R   0.520028 0.885507 0.463673 0.206032
C44   C     C_R   0.562640 0.764279 0.483325 0.207792
C45   C     C_R   0.655748 0.720812 0.518294 -0.436115
C46   C     C_R   0.819656 0.737962 0.537798 0.062466
H21   H     H_    0.510580 0.076695 0.355432 0.201258
N1    N     N_R   0.375844 0.559597 0.986870 -0.057336
N2    N     N_R   0.423967 0.557821 0.054912 -0.037957
C47   C     C_2   0.593906 0.527952 0.295683 -0.358589
C48   C     C_3   0.724289 0.517414 0.244935 0.121064
C49   C     C_2   0.663645 0.510497 0.165834 -0.217508
C50   C     C_2   0.506570 0.494068 0.148339 -0.050592
C51   C     C_2   0.401867 0.481301 0.205918 -0.264246
C52   C     C_1   0.459345 0.488831 0.274610 0.267438
N3    N     N_R   0.396808 0.433504 0.024977 -0.050745
N4    N     N_R   0.348773 0.435262 0.956761 -0.053519
C53   C     C_R   0.339331 0.498367 0.936257 0.268035
C54   C     C_R   0.435289 0.494879 0.075204 0.165486
C55   C     C_R   0.384969 0.528855 0.815608 0.083554
C56   C     C_R   0.329792 0.529948 0.742981 0.117609
C57   C     C_R   0.080884 0.468176 0.759291 0.197484
C58   C     C_R   0.130636 0.470721 0.832693 -0.283955
C59   C     C_R   0.283383 0.500393 0.860642 0.018774
C60   C     C_R   0.172752 0.504717 0.718058 -0.188346
H22   H     H_    0.277780 0.467584 0.191077 0.211073
C61   C     C_3   0.366004 0.650713 0.247102 -0.824555
H23   H     H_    0.334021 0.614491 0.282536 0.258955
H24   H     H_    0.258590 0.655959 0.213462 0.276059
H25   H     H_    0.454291 0.627521 0.210513 0.198283
C62   C     C_2   0.653067 0.284171 0.150499 0.548166
H26   H     H_    0.534347 0.300820 0.152443 0.001112
O25   O     O_2   0.721076 0.285273 0.095840 -0.533647
C63   C     C_3   0.849170 0.205138 0.188083 -0.715245
H27   H     H_    0.788729 0.160762 0.146021 0.248933
H28   H     H_    0.947057 0.228764 0.163336 0.261945
H29   H     H_    0.897196 0.181479 0.232412 0.202205
C64   C     C_2   0.832527 0.818814 0.797917 0.635939
H30   H     H_    0.866752 0.799450 0.846104 0.020171
O26   O     O_2   0.741044 0.865542 0.801895 -0.498893
C65   C     C_3   0.316440 0.316556 0.409157 -0.770749
H31   H     H_    0.204667 0.342295 0.415685 0.208240
H32   H     H_    0.320296 0.269338 0.432153 0.232085
H33   H     H_    0.414167 0.351732 0.440158 0.289710
C66   C     C_3   0.316299 0.792477 0.201373 -0.693029
H34   H     H_    0.279953 0.747734 0.154521 0.205563
H35   H     H_    0.338193 0.839718 0.177777 0.267733
H36   H     H_    0.220169 0.802718 0.237761 0.276877
C67   C     C_2   0.176089 0.177460 0.333333 0.580051
H37   H     H_    0.052481 0.171607 0.341189 -0.030912
O27   O     O_2   0.266184 0.141986 0.360307 -0.601425
C68   C     C_3   0.302921 0.187430 0.220872 -0.936183
H38   H     H_    0.335788 0.223874 0.185395 0.250838
H39   H     H_    0.407830 0.161119 0.236431 0.272558
H40   H     H_    0.215293 0.145838 0.188999 0.261150
C69   C     C_3   0.396137 0.771154 0.706529 -0.772955
H41   H     H_    0.515477 0.778990 0.688564 0.248396
H42   H     H_    0.310696 0.772788 0.660368 0.215576
H43   H     H_    0.384080 0.816786 0.751995 0.251001
C70   C     C_2   0.517212 0.746275 0.854235 0.774621
H44   H     H_    0.625313 0.720134 0.845611 -0.095376
O28   O     O_2   0.519767 0.803441 0.897578 -0.534321
C71   C     C_3   0.220858 0.746805 0.841523 -0.913828
H45   H     H_    0.215618 0.746894 0.900188 0.272359
H46   H     H_    0.221309 0.802704 0.835597 0.273576
H47   H     H_    0.113585 0.716374 0.812226 0.236694
C72   C     C_2   0.558112 0.841367 0.282812 0.693445
H48   H     H_    0.613949 0.843005 0.335809 -0.052855
O29   O     O_2   0.580557 0.892200 0.254932 -0.586904
C73   C     C_3   0.875494 0.802463 0.176243 -0.887744
H49   H     H_    0.918732 0.816439 0.126531 0.255660
H50   H     H_    0.749371 0.810717 0.175151 0.288856
H51   H     H_    0.939883 0.839758 0.223433 0.266300
C74   C     C_2   0.945149 0.215283 0.779210 0.779900
H52   H     H_    0.027099 0.258661 0.807511 -0.028462
O30   O     O_2   0.893800 0.173233 0.813354 -0.539854
C75   C     C_3   0.770966 0.147111 0.670489 -0.829123
H53   H     H_    0.662360 0.158250 0.698201 0.267068
H54   H     H_    0.747160 0.140914 0.610984 0.239077
H55   H     H_    0.810613 0.095705 0.679816 0.279114
C76   C     C_3   0.237180 0.318685 0.712409 -1.229395
H56   H     H_    0.227521 0.358472 0.678120 0.253020
H57   H     H_    0.177925 0.268613 0.682677 0.241986
H58   H     H_    0.178637 0.337911 0.762635 0.238782
C77   C     C_2   0.494774 0.374758 0.756852 0.648932
H59   H     H_    0.500666 0.410570 0.720198 0.084150
O31   O     O_2   0.555279 0.393887 0.818874 -0.627696
C78   C     C_3   0.570244 0.250812 0.825676 -0.681676
H60   H     H_    0.596695 0.290917 0.877562 0.265113
H61   H     H_    0.580984 0.197730 0.838743 0.271189
H62   H     H_    0.660011 0.259108 0.788858 0.257961
C79   C     C_3   0.912596 0.754027 0.316878 -0.876208
H63   H     H_    0.840401 0.799525 0.318369 0.190050
H64   H     H_    0.888520 0.731112 0.364493 0.233214
H65   H     H_    0.037538 0.774039 0.322653 0.298306
C80   C     C_2   0.322656 0.186466 0.763675 0.552846
H66   H     H_    0.304915 0.163972 0.706161 0.025456
O32   O     O_2   0.277303 0.151813 0.806273 -0.533379
C81   C     C_2   0.264218 0.921470 0.692681 0.581230
H67   H     H_    0.196563 0.883100 0.714046 -0.031461
O33   O     O_2   0.397465 0.940952 0.719318 -0.536106
C82   C     C_3   0.420309 0.114851 0.553972 -0.884511
H68   H     H_    0.442120 0.129657 0.502106 0.301274
H69   H     H_    0.488410 0.148271 0.600938 0.281031
H70   H     H_    0.461230 0.060628 0.548694 0.218647
C83   C     C_2   0.694669 0.183847 0.373893 0.579001
H71   H     H_    0.747597 0.183545 0.324119 -0.003351
O34   O     O_2   0.562109 0.201425 0.381379 -0.580292
C84   C     C_2   0.340435 0.969421 0.369081 0.531163
H72   H     H_    0.263697 0.011040 0.363645 0.079794
O35   O     O_2   0.292992 0.908101 0.342702 -0.604674
C85   C     C_3   0.356959 0.888137 0.488643 -0.782569
H73   H     H_    0.352006 0.866002 0.538027 0.232582
H74   H     H_    0.324912 0.943639 0.503567 0.204284
H75   H     H_    0.267546 0.860105 0.445974 0.303642
C86   C     C_2   0.570611 0.665272 0.547231 0.663381
H76   H     H_    0.624029 0.619949 0.559172 0.101869
O36   O     O_2   0.435816 0.672017 0.562749 -0.520795
C87   C     C_2   0.772843 0.510578 0.107504 0.602017
H77   H     H_    0.728526 0.511664 0.052637 0.034793
O37   O     O_2   0.913600 0.507471 0.119136 -0.532919
C88   C     C_3   0.547139 0.561005 0.847719 -0.855798
H78   H     H_    0.614883 0.521673 0.869054 0.292962
H79   H     H_    0.617977 0.581438 0.809009 0.260772
H80   H     H_    0.536478 0.606649 0.893748 0.208757
C89   C     C_2   0.019582 0.445561 0.880890 0.569954
H81   H     H_    0.936494 0.400402 0.860422 0.094805
O38   O     O_2   0.016201 0.476871 0.944239 -0.568835
C90   C     C_2   0.621515 0.580218 0.365100 0.754151
H82   H     H_    0.644946 0.635569 0.365362 -0.143152
O39   O     O_2   0.642467 0.561246 0.422045 -0.521405
C91   C     C_3   0.094641 0.522361 0.650716 -0.557910
H83   H     H_    0.970124 0.532850 0.657759 0.246656
H84   H     H_    0.142729 0.572853 0.640804 0.226767
H85   H     H_    0.105496 0.478913 0.602511 0.227030
C92   C     C_2   0.820380 0.676508 0.109511 0.529328
H86   H     H_    0.886558 0.644177 0.069309 0.046309
O40   O     O_2   0.677686 0.673256 0.100036 -0.615474
C93   C     C_2   0.680028 0.372228 0.302710 0.451347
H87   H     H_    0.577702 0.368740 0.266449 -0.093099
O41   O     O_2   0.703706 0.421129 0.355852 -0.506806
C94   C     C_3   0.923720 0.369099 0.248095 -0.750063
H88   H     H_    0.878111 0.383666 0.197306 0.211317
H89   H     H_    0.945704 0.418878 0.288606 0.279663
H90   H     H_    0.033374 0.342820 0.237623 0.259122

loop_
_geom_bond_atom_site_label_1
_geom_bond_atom_site_label_2
_geom_bond_distance
_ccdc_geom_bond_type
Ba2   O20   2.798097 S    
C65   H33   1.097907 S    
C8    C9    1.567237 S    
C75   H53   1.106534 S    
C15   O24   1.429620 S    
C80   H66   1.076169 S    
C7    H7    1.106500 S    
C51   H22   1.084776 S    
N1    C53   1.356189 A    
N4    C53   1.360339 A    
Ba2   O21   2.810771 S    
C88   H80   1.108306 S    
P2    O10   1.765256 S    
C63   H27   1.111327 S    
C89   O38   1.221121 D    
C72   H48   1.073611 S    
C13   H14   1.101000 S    
C16   C80   1.506761 S    
C15   C77   1.497604 S    
C65   H31   1.105084 S    
C76   H57   1.086496 S    
C87   H77   1.084529 S    
C51   C52   1.331238 D    
C75   H54   1.107874 S    
O8    Ba1   2.824084 S    
C14   C74   1.515657 S    
C8    C65   1.512947 S    
C1    C66   1.535594 S    
O6    P6    1.773043 S    
C73   H49   1.111745 S    
N2    C54   1.356960 A    
C6    H5    1.099532 S    
P4    O12   1.561043 D    
P6    C44   1.892776 S    
O14   P8    1.746510 S    
C8    H8    1.094666 S    
C29   C30   1.480154 A    
C66   H36   1.106475 S    
C85   H74   1.102092 S    
C13   H15   1.104102 S    
C9    C68   1.531255 S    
C49   C50   1.367561 D    
C32   C42   1.415858 A    
C12   C70   1.508935 S    
Ba1   O16   2.798778 S    
C68   H40   1.111397 S    
C31   C38   1.415937 A    
C57   C58   1.412566 A    
C58   C89   1.491652 S    
C65   H32   1.092115 S    
P1    O1    1.560688 D    
C35   C83   1.444616 S    
N3    N4    1.334206 A    
C50   C54   1.476201 S    
C9    C67   1.510446 S    
P8    O23   1.546375 D    
P4    C29   1.974681 S    
C1    C72   1.500948 S    
C17   C18   1.414870 A    
C3    C73   1.535508 S    
C71   H45   1.111346 S    
C90   H82   1.074948 S    
C83   H71   1.069460 S    
C81   O33   1.221841 D    
C69   H43   1.103829 S    
C42   C44   1.418369 A    
C11   C12   1.557934 S    
C50   C51   1.506334 S    
C6    C7    1.531699 S    
C10   C61   1.525374 S    
C19   C20   1.402677 A    
C43   C85   1.504243 S    
C76   H58   1.104798 S    
C93   H87   1.065938 S    
C47   C90   1.467251 S    
C70   O28   1.221603 D    
C21   C22   1.390182 A    
C91   H84   1.095157 S    
C30   C35   1.431905 A    
C74   O30   1.221682 D    
H17   C16   1.114668 S    
C71   H46   1.108310 S    
P4    O15   1.802542 S    
C5    H3    1.105510 S    
C42   C43   1.425996 A    
C7    C64   1.496702 S    
N1    N2    1.331347 A    
O10   C8    1.402920 S    
C82   H70   1.108242 S    
P1    C46   1.966696 S    
C28   H19   1.081717 S    
C89   H81   1.079547 S    
C72   O29   1.221758 D    
C55   C56   1.425672 A    
P5    O18   1.538363 D    
C68   H39   1.110094 S    
O3    P6    1.762742 S    
C87   O37   1.218764 D    
P2    C52   1.857849 S    
C75   H55   1.111610 S    
C15   C16   1.582695 S    
O2    Ba2   2.840473 S    
C23   C24   1.429812 A    
C32   C33   1.440312 A    
P1    O5    1.754592 S    
C33   C46   1.458763 A    
O6    C10   1.412772 S    
C55   C88   1.521327 S    
P4    Ba2   3.478169 S    
C6    H4    1.111360 S    
C83   O34   1.211897 D    
C21   C23   1.408450 A    
C94   H88   1.109341 S    
C3    C92   1.504961 S    
C39   H21   1.076601 S    
C37   C38   1.434333 A    
C4    C93   1.471073 S    
O3    Ba1   2.820505 S    
C85   H73   1.108825 S    
C3    H2    1.102962 S    
C13   C14   1.569003 S    
P5    O19   1.766951 S    
C4    C94   1.521961 S    
O2    Ba1   3.009789 S    
O4    P6    1.540359 D    
C31   C32   1.434039 A    
C38   C41   1.410779 A    
C11   O22   1.411085 S    
Ba1   Ba2   4.688679 S    
C77   H59   1.080286 S    
C56   C60   1.419262 A    
C14   H16   1.105784 S    
P1    O2    1.583579 S    
C78   H62   1.098357 S    
C25   C30   1.444009 A    
C24   C25   1.425894 A    
C1    H11   1.106202 S    
C16   C78   1.540192 S    
P7    O22   1.754669 S    
C20   H18   1.083817 S    
C84   O35   1.216258 D    
C11   C69   1.535589 S    
C45   C46   1.430229 A    
C88   H78   1.106989 S    
O5    C6    1.408462 S    
P7    C56   1.881466 S    
C90   O39   1.214312 D    
C11   H12   1.103196 S    
C61   H23   1.103188 S    
P2    O20   1.544967 S    
C40   C41   1.422859 A    
C91   H83   1.108314 S    
C39   C40   1.391445 A    
C33   C34   1.416177 A    
C5    C63   1.540244 S    
C92   O40   1.220217 D    
O12   Ba2   2.878610 S    
C93   O41   1.217139 D    
N3    C54   1.356930 A    
C70   H44   1.084146 S    
C55   C59   1.424900 A    
P3    O8    1.773832 S    
C79   H63   1.098318 S    
C64   O26   1.220745 D    
C82   H69   1.088894 S    
C74   H52   1.082415 S    
Ba1   O13   2.839815 S    
C71   H47   1.108409 S    
O16   P7    1.789044 S    
P2    O7    1.572684 D    
C92   H86   1.085713 S    
C62   H26   1.084266 S    
O17   Ba2   2.824775 S    
C69   H42   1.107549 S    
O13   Ba2   3.010748 S    
C79   H65   1.108227 S    
C5    C62   1.523712 S    
C63   H29   1.104048 S    
O1    Ba1   2.877978 S    
C18   C34   1.429792 A    
C12   H13   1.090522 S    
C36   C39   1.411770 A    
C62   O25   1.222085 D    
C68   H38   1.108969 S    
C34   H20   1.077189 S    
C12   C71   1.537610 S    
C67   O27   1.217070 D    
C49   C87   1.492135 S    
C10   H10   1.105426 S    
C26   C37   1.400493 A    
C80   O32   1.221033 D    
P8    O24   1.782776 S    
C27   C28   1.418874 A    
C14   C75   1.530349 S    
P8    C27   1.909030 S    
C73   H51   1.109200 S    
P2    Ba1   3.442193 S    
C88   H79   1.102532 S    
C82   H68   1.102406 S    
P3    O9    1.530610 D    
C63   H28   1.109949 S    
C47   C48   1.513663 S    
P7    O21   1.594435 D    
C66   H34   1.108590 S    
C41   C43   1.416418 A    
C23   C82   1.496833 S    
P1    Ba1   3.477511 S    
C91   H85   1.109209 S    
C48   C49   1.523898 S    
C86   O36   1.217481 D    
C69   H41   1.111334 S    
C57   C60   1.407496 A    
P3    O11   1.744596 S    
C17   C31   1.398973 A    
C9    H9    1.098775 S    
O14   Ba2   2.819829 S    
C73   H50   1.100674 S    
C67   H37   1.082476 S    
C17   C22   1.432095 A    
C20   C21   1.403427 A    
C76   H56   1.109369 S    
C2    C79   1.534857 S    
C58   C59   1.419468 A    
C53   C59   1.485141 S    
C25   C26   1.448434 A    
C66   H35   1.110392 S    
C85   H75   1.101324 S    
C36   C37   1.398155 A    
C2    H1    1.112451 S    
P5    C57   1.869932 S    
C19   C81   1.472045 S    
C15   C76   1.524655 S    
O11   C2    1.401371 S    
O7    Ba1   2.810679 S    
C44   C45   1.421251 A    
C94   H89   1.089472 S    
C64   H30   1.085100 S    
C4    O15   1.426671 S    
P4    O13   1.583580 S    
C86   H76   1.068349 S    
C18   C19   1.418703 A    
C24   C27   1.437202 A    
C78   H61   1.111615 S    
C61   H24   1.105265 S    
Ba1   O20   3.026295 S    
O19   C13   1.416741 S    
C28   C29   1.410770 A    
O16   Ba2   3.025338 S    
C4    C5    1.582847 S    
P5    O17   1.754450 S    
C2    C3    1.565244 S    
C81   H67   1.077132 S    
C7    H6    1.104525 S    
C61   H25   1.106031 S    
C22   C26   1.412818 A    
C47   C52   1.330914 D    
P3    C48   1.892598 S    
C40   C84   1.488185 S    
C84   H72   1.083165 S    
C35   C36   1.429218 A    
C79   H64   1.110468 S    
C94   H90   1.101499 S    
C1    C10   1.558325 S    
C78   H60   1.110781 S    
C60   C91   1.510156 S    
C77   O31   1.219931 D    
C45   C86   1.483217 S    
