data_mof_unit_7298.cif
_audit_creation_date              2012-12-10T16:52:08-0500
_audit_creation_method            fapswitch 2.2
_symmetry_space_group_name_H-M    P1
_symmetry_Int_Tables_number       1
_space_group_crystal_system       triclinic
_cell_length_a                    7.770524
_cell_length_b                    8.561592
_cell_length_c                    14.889256
_cell_angle_alpha                 90.781484
_cell_angle_beta                  86.26
_cell_angle_gamma                 93.67492
_cell_volume                      986.366739986

loop_
_atom_site_label
_atom_site_type_symbol
_atom_type_description
_atom_site_fract_x
_atom_site_fract_y
_atom_site_fract_z
_atom_type_partial_charge
C1    C     C_R   0.545771 0.794692 0.497587 0.980273
C2    C     C_R   0.560124 0.644156 0.812642 -0.068078
C3    C     C_R   0.489416 0.495086 0.232458 -0.122776
C4    C     C_R   0.510585 0.504916 0.767542 -0.122778
C5    C     C_R   0.542637 0.632251 0.187438 -0.256967
C6    C     C_R   0.457366 0.367751 0.812563 -0.256971
C7    C     C_R   0.546946 0.635189 0.094815 0.131990
C8    C     C_R   0.453059 0.364813 0.905185 0.131990
C9    C     C_R   0.497677 0.497989 0.046971 0.056924
C10   C     C_R   0.502328 0.502013 0.953029 0.056924
C11   C     C_R   0.443889 0.357065 0.092989 0.046811
C12   C     C_R   0.454229 0.205308 0.502413 0.980267
C13   C     C_R   0.556117 0.642937 0.907011 0.046813
C14   C     C_R   0.601282 0.773308 0.049695 -0.202756
C15   C     C_R   0.398726 0.226693 0.950305 -0.202750
C16   C     C_2   0.390213 0.210717 0.239147 0.870054
C17   C     C_2   0.609789 0.789287 0.760853 0.870060
C18   C     C_R   0.606772 0.777249 0.956590 -0.184840
C19   C     C_R   0.393237 0.222751 0.043410 -0.184841
C20   C     C_2   0.569860 0.958251 0.496380 -0.353227
C21   C     C_2   0.430140 0.041749 0.503619 -0.353236
C22   C     C_R   0.503175 0.501598 0.672554 0.904554
C23   C     C_R   0.496826 0.498403 0.327447 0.904543
C24   C     C_R   0.439879 0.355847 0.187358 -0.068067
H1    H     H_    0.582363 0.736441 0.225098 0.152898
H2    H     H_    0.986377 0.617039 0.567748 0.225182
H3    H     H_    0.438181 0.987168 0.263370 0.336569
H4    H     H_    0.561842 0.012843 0.736640 0.336571
H5    H     H_    0.417640 0.263560 0.774902 0.152898
H6    H     H_    0.640427 0.878401 0.086477 0.192100
H7    H     H_    0.359583 0.121599 0.913523 0.192103
H8    H     H_    0.652250 0.885894 0.924286 0.184723
H9    H     H_    0.347764 0.114105 0.075715 0.184714
H10   H     H_    0.701812 0.009390 0.489629 0.192977
H11   H     H_    0.298188 0.990610 0.510371 0.192976
H12   H     H_    0.013623 0.382961 0.432252 0.225183
N1    N     N_2   0.950330 0.457950 0.475660 -0.172650
N2    N     N_2   0.049670 0.542050 0.524340 -0.172651
O1    O     O_R   0.389250 0.738570 0.505970 -0.621649
O2    O     O_R   0.483401 0.077654 0.223427 -0.827376
O3    O     O_2   0.730639 0.791402 0.703926 -0.629643
O4    O     O_R   0.516622 0.922358 0.776583 -0.827385
O5    O     O_R   0.610750 0.261430 0.494030 -0.621646
O6    O     O_R   0.678390 0.711620 0.490370 -0.611792
O7    O     O_R   0.321610 0.288380 0.509630 -0.611796
O8    O     O_R   0.355420 0.513510 0.639950 -0.614422
O9    O     O_R   0.644580 0.486490 0.360050 -0.614418
O10   O     O_R   0.644560 0.486560 0.624350 -0.601376
O11   O     O_R   0.355440 0.513440 0.375650 -0.601380
O12   O     O_2   0.269345 0.208595 0.296064 -0.629637
Zn1   Zn    Zn3+2 0.306940 0.517990 0.510420 0.992504
Zn2   Zn    Zn3+2 0.693060 0.482010 0.489580 0.992509

loop_
_geom_bond_atom_site_label_1
_geom_bond_atom_site_label_2
_ccdc_geom_bond_type
O1    Zn1   S    
C15   H7    S    
N1    N2    D    
C21   H11   S    
C8    C15   A    
C4    C22   S    
C9    C10   A    
C14   C18   A    
C1    O6    A    
C2    C4    A    
N1    Zn2   S    
H3    O2    S    
C20   H10   S    
O6    Zn2   S    
C16   C24   S    
C2    C17   S    
C15   C19   A    
C9    C11   A    
C11   C19   A    
C3    C24   A    
O9    Zn2   S    
C13   C18   A    
C14   H6    S    
C5    H1    S    
C12   C21   S    
H4    O4    S    
H12   N1    S    
C22   O8    A    
C16   O2    S    
C22   O10   A    
C12   O5    A    
C5    C7    A    
C8    C10   A    
C17   O3    D    
O5    Zn2   S    
C23   O11   A    
C23   O9    A    
O7    Zn1   S    
C11   C24   A    
O10   Zn2   S    
C6    H5    S    
C18   H8    S    
C20   C21   D    
C4    C6    A    
C19   H9    S    
C7    C9    A    
C2    C13   A    
C1    O1    A    
C17   O4    S    
H2    N2    S    
C1    C20   S    
C6    C8    A    
N2    Zn1   S    
C3    C5    A    
C3    C23   S    
O8    Zn1   S    
C7    C14   A    
C16   O12   D    
C12   O7    A    
O11   Zn1   S    
C10   C13   A    
