data_mof_unit_44934.cif
_audit_creation_date              2012-12-10T18:22:21-0500
_audit_creation_method            fapswitch 2.2
_symmetry_space_group_name_H-M    P1
_symmetry_Int_Tables_number       1
_space_group_crystal_system       triclinic
_cell_length_a                    14.99549
_cell_length_b                    14.003552
_cell_length_c                    15.72882
_cell_angle_alpha                 89.7452
_cell_angle_beta                  89.963751
_cell_angle_gamma                 90.327341
_cell_volume                      3302.80958328

loop_
_atom_site_label
_atom_site_type_symbol
_atom_type_description
_atom_site_fract_x
_atom_site_fract_y
_atom_site_fract_z
_atom_type_partial_charge
C1    C     C_R   0.326699 0.499735 0.500437 0.890137
C2    C     C_R   0.908897 0.576955 0.550282 0.069915
C3    C     C_R   0.954110 0.499452 0.512329 0.042844
C4    C     C_R   0.500604 0.500201 0.338127 0.915970
C5    C     C_R   0.906725 0.422763 0.475667 0.122122
C6    C     C_R   0.958633 0.651345 0.587806 -0.225953
C7    C     C_R   0.051040 0.650806 0.584926 -0.227653
C8    C     C_R   0.095350 0.575418 0.545924 0.124199
C9    C     C_R   0.047112 0.498578 0.510577 0.068196
C10   C     C_R   0.092063 0.421135 0.472824 0.120186
C11   C     C_R   0.044239 0.344873 0.437893 -0.225645
C12   C     C_3   0.556792 0.588828 0.950341 -0.407242
C13   C     C_R   0.951742 0.345735 0.439258 -0.219760
C14   C     C_R   0.187472 0.575526 0.541654 -0.266066
C15   C     C_R   0.231303 0.499130 0.503707 -0.068306
C16   C     C_R   0.673438 0.500450 0.502957 0.892506
C17   C     C_R   0.184326 0.421706 0.470201 -0.267608
C18   C     C_R   0.549745 0.797741 0.440830 -0.029276
C19   C     C_R   0.549912 0.203422 0.440956 -0.046805
C20   C     C_R   0.451284 0.798012 0.558923 -0.053701
C21   C     C_R   0.451117 0.200762 0.558800 -0.062188
C22   C     C_R   0.450979 0.898453 0.559914 0.029135
C23   C     C_3   0.556527 0.589276 0.048545 -0.396465
C24   C     C_R   0.450903 0.100276 0.559865 0.033804
C25   C     C_R   0.501718 0.949370 0.498947 0.063549
C26   C     C_R   0.501801 0.050592 0.499011 0.066346
C27   C     C_R   0.551969 0.898927 0.438259 -0.071110
C28   C     C_R   0.552158 0.102282 0.438408 -0.061155
C29   C     C_R   0.401007 0.948722 0.620293 -0.222069
C30   C     C_R   0.400904 0.048761 0.620224 -0.212630
C31   C     C_R   0.602763 0.051948 0.377242 -0.053750
C32   C     C_R   0.602872 0.950521 0.377336 -0.058007
C33   C     C_R   0.500593 0.499845 0.661892 0.908417
C34   C     C_1   0.504710 0.499783 0.826082 -0.136898
C35   C     C_3   0.408299 0.503313 0.049020 -0.398631
C36   C     C_3   0.551169 0.409170 0.049740 -0.401394
C37   C     C_3   0.551164 0.408794 0.951568 -0.398327
C38   C     C_3   0.408388 0.503139 0.950987 -0.396411
C39   C     C_1   0.502927 0.499623 0.750766 -0.198811
C40   C     C_3   0.505277 0.500691 0.082558 0.372023
C41   C     C_3   0.505414 0.500129 0.917491 0.375586
C42   C     C_R   0.654137 0.104933 0.311689 0.133543
C43   C     C_R   0.742560 0.132903 0.327449 -0.166680
C44   C     C_R   0.790132 0.184697 0.266008 -0.140719
C45   C     C_1   0.504499 0.500856 0.173946 -0.125868
C46   C     C_R   0.749571 0.209014 0.188925 -0.105192
C47   C     C_R   0.661460 0.181289 0.173011 -0.143370
C48   C     C_R   0.613755 0.129276 0.234182 -0.146833
C49   C     C_R   0.656443 0.898867 0.313433 0.132715
C50   C     C_R   0.616592 0.866455 0.238132 -0.154815
C51   C     C_R   0.666873 0.815786 0.178759 -0.140319
C52   C     C_R   0.756922 0.797248 0.194388 -0.108165
C53   C     C_R   0.796883 0.829549 0.269334 -0.133304
C54   C     C_R   0.746840 0.880330 0.328798 -0.156259
C55   C     C_R   0.765789 0.656282 0.591757 0.143193
C56   C     C_1   0.502793 0.500663 0.249256 -0.183643
C57   C     C_R   0.761501 0.746889 0.553297 -0.146675
C58   C     C_R   0.712178 0.819683 0.591191 -0.142443
C59   C     C_R   0.666133 0.802217 0.667037 -0.105295
C60   C     C_R   0.669978 0.712145 0.705548 -0.118058
C61   C     C_R   0.719784 0.639324 0.668207 -0.129290
C62   C     C_R   0.814879 0.424545 0.474725 -0.279596
C63   C     C_R   0.769368 0.501455 0.509843 -0.119571
C64   C     C_R   0.815306 0.577669 0.549774 -0.073414
H1    H     H_    0.370143 0.440111 0.927668 0.165845
H2    H     H_    0.412683 0.757744 0.605085 0.125810
H3    H     H_    0.412304 0.240085 0.604812 0.133358
H4    H     H_    0.361812 0.910625 0.667507 0.135829
H5    H     H_    0.361611 0.085884 0.667377 0.138002
H6    H     H_    0.370181 0.440253 0.073007 0.166309
H7    H     H_    0.515474 0.344594 0.073892 0.164220
H8    H     H_    0.621026 0.405760 0.073466 0.166412
H9    H     H_    0.373951 0.568455 0.072321 0.166554
H10   H     H_    0.621025 0.405150 0.927856 0.165435
H11   H     H_    0.374251 0.568302 0.926976 0.164925
H12   H     H_    0.515393 0.344084 0.928375 0.166255
H13   H     H_    0.524515 0.655849 0.071642 0.162402
H14   H     H_    0.626405 0.589096 0.072431 0.165280
H15   H     H_    0.525281 0.655379 0.926073 0.162242
H16   H     H_    0.626799 0.588040 0.926742 0.162300
H17   H     H_    0.778524 0.366569 0.444626 0.165191
H18   H     H_    0.926977 0.710856 0.619076 0.158553
H19   H     H_    0.774297 0.114825 0.387183 0.120426
H20   H     H_    0.858379 0.206098 0.278111 0.121900
H21   H     H_    0.786401 0.249324 0.141535 0.118420
H22   H     H_    0.630132 0.200196 0.113340 0.121647
H23   H     H_    0.087871 0.709492 0.613102 0.143526
H24   H     H_    0.545423 0.108346 0.221480 0.121561
H25   H     H_    0.546779 0.880163 0.225745 0.122948
H26   H     H_    0.636055 0.790793 0.120717 0.120608
H27   H     H_    0.795706 0.757856 0.148445 0.118892
H28   H     H_    0.866568 0.815091 0.281408 0.127603
H29   H     H_    0.778194 0.904865 0.386807 0.114278
H30   H     H_    0.795840 0.760647 0.493870 0.124419
H31   H     H_    0.708925 0.889358 0.561314 0.131074
H32   H     H_    0.627216 0.858382 0.695774 0.124846
H33   H     H_    0.633995 0.698582 0.764096 0.119919
H34   H     H_    0.225160 0.634390 0.568702 0.151826
H35   H     H_    0.721683 0.569550 0.698125 0.107433
H36   H     H_    0.219559 0.362889 0.440927 0.157915
H37   H     H_    0.078310 0.285109 0.409082 0.144402
H38   H     H_    0.915376 0.286486 0.411552 0.138345
H39   H     H_    0.587778 0.756032 0.396072 0.151631
H40   H     H_    0.587783 0.246007 0.396033 0.151943
N1    N     N_R   0.500070 0.750030 0.500040 -0.099845
N2    N     N_R   0.500070 0.249970 0.500040 -0.106326
O1    O     O_R   0.367860 0.580280 0.500020 -0.625570
O2    O     O_R   0.367860 0.419720 0.500020 -0.625232
O3    O     O_R   0.500020 0.580310 0.377140 -0.620087
O4    O     O_R   0.500020 0.419690 0.377140 -0.620937
O5    O     O_R   0.632160 0.580270 0.499980 -0.607012
O6    O     O_R   0.632160 0.419730 0.499980 -0.626370
O7    O     O_R   0.500010 0.580240 0.622850 -0.616791
O8    O     O_R   0.500010 0.419760 0.622850 -0.619061
Zn1   Zn    Zn3+2 0.500020 0.607200 0.499990 0.954831
Zn2   Zn    Zn3+2 0.500020 0.392800 0.499990 0.942901

loop_
_geom_bond_atom_site_label_1
_geom_bond_atom_site_label_2
_ccdc_geom_bond_type
C4    O3    A    
C6    H18   S    
C22   C29   A    
C43   H19   S    
C37   H10   S    
C7    C8    A    
C61   H35   S    
C53   C54   A    
C12   C23   S    
C33   O8    A    
C29   C30   A    
C20   H2    S    
C36   C37   S    
C31   C42   S    
C24   C26   A    
C51   H26   S    
C10   C17   A    
C49   C54   A    
C12   H15   S    
C12   H16   S    
C54   H29   S    
C7    H23   S    
C31   C32   A    
C45   C56   T    
C2    C64   A    
C8    C9    A    
C22   C25   A    
C48   H24   S    
C1    C15   S    
C16   C63   S    
C9    C10   A    
C5    C13   A    
C21   N2    A    
C36   H7    S    
C46   H21   S    
C59   C60   A    
C4    C56   S    
C2    C6    A    
C34   C41   S    
C44   C46   A    
C14   H34   S    
C38   H11   S    
C40   C45   S    
C51   C52   A    
C47   H22   S    
C36   C40   S    
C35   C38   S    
C35   H6    S    
C38   C41   S    
C60   H33   S    
C42   C48   A    
C3    C5    A    
C25   C26   A    
C34   C39   T    
N2    Zn2   S    
C60   C61   A    
C58   H31   S    
C62   C63   A    
C3    C9    A    
C29   H4    S    
C19   H40   S    
C50   H25   S    
C47   C48   A    
C38   H1    S    
C55   C64   S    
C53   H28   S    
C50   C51   A    
C11   H37   S    
C33   C39   S    
C23   H13   S    
C19   C28   A    
O1    Zn1   S    
C1    O1    A    
C62   H17   S    
C20   C22   A    
C57   H30   S    
C55   C57   A    
C43   C44   A    
C42   C43   A    
O4    Zn2   S    
O6    Zn2   S    
C30   H5    S    
C52   C53   A    
C16   O6    A    
C12   C41   S    
C20   N1    A    
C15   C17   A    
C4    O4    A    
C46   C47   A    
C35   H9    S    
C8    C14   A    
C27   C32   A    
C26   C28   A    
C37   H12   S    
C28   C31   A    
C18   C27   A    
C44   H20   S    
O8    Zn2   S    
C6    C7    A    
C25   C27   A    
C33   O7    A    
N1    Zn1   S    
O2    Zn2   S    
C35   C40   S    
C58   C59   A    
C18   N1    A    
C11   C13   A    
C57   C58   A    
C55   C61   A    
C5    C62   A    
C2    C3    A    
C18   H39   S    
C23   H14   S    
C37   C41   S    
C17   H36   S    
C24   C30   A    
C32   C49   S    
C10   C11   A    
O3    Zn1   S    
C1    O2    A    
C63   C64   A    
C19   N2    A    
C36   H8    S    
C49   C50   A    
C59   H32   S    
C21   C24   A    
C14   C15   A    
C52   H27   S    
O5    Zn1   S    
C13   H38   S    
C21   H3    S    
C23   C40   S    
C16   O5    A    
O7    Zn1   S    
