data_mof_unit_35636.cif
_audit_creation_date              2012-10-26T18:29:56-0400
_audit_creation_method            fapswitch 2.2
_symmetry_space_group_name_H-M    P1
_symmetry_Int_Tables_number       1
_space_group_crystal_system       triclinic
_cell_length_a                    11.067628
_cell_length_b                    13.084685
_cell_length_c                    11.908389
_cell_angle_alpha                 100.353407
_cell_angle_beta                  94.099399
_cell_angle_gamma                 95.689592
_cell_volume                      1681.0541536

loop_
_atom_site_label
_atom_site_type_symbol
_atom_type_description
_atom_site_fract_x
_atom_site_fract_y
_atom_site_fract_z
_atom_type_partial_charge
C1    C     C_R   0.503045 0.299702 0.478441 0.556879
C2    C     C_R   0.557596 0.031976 0.544272 0.043095
C3    C     C_R   0.489621 0.967296 0.447098 0.022699
C4    C     C_R   0.259754 0.493382 0.498821 0.495171
C5    C     C_R   0.470513 0.858993 0.442884 -0.105540
C6    C     C_R   0.563485 0.882517 0.637610 -0.017500
C7    C     C_R   0.610663 0.983474 0.629724 -0.015376
C8    C     C_R   0.378272 0.398881 0.020601 -0.052789
C9    C     C_R   0.404501 0.399109 0.139090 0.165574
C10   C     C_R   0.536470 0.555527 0.158247 0.137955
C11   C     C_R   0.537143 0.542657 0.035029 -0.015518
C12   C     C_3   0.878474 0.502318 0.502991 -0.116105
C13   C     C_R   0.454231 0.464629 0.965062 -0.055824
C14   C     C_R   0.454467 0.450835 0.842196 0.097648
C15   C     C_R   0.605395 0.596216 0.858088 0.165946
C16   C     C_R   0.499629 0.700704 0.522592 0.522755
C17   C     C_R   0.618826 0.604175 0.979512 -0.004418
C18   C     C_R   0.739778 0.501449 0.500813 0.468749
C19   C     C_3   0.069524 0.434687 0.597335 -0.057718
C20   C     C_3   0.923213 0.421707 0.581481 -0.048890
C21   C     C_3   0.092219 0.614801 0.524009 -0.041475
C22   C     C_3   0.050358 0.437729 0.375259 -0.068999
C23   C     C_3   0.948816 0.619077 0.544584 -0.035317
C24   C     C_3   0.121046 0.494355 0.498774 -0.114289
C25   C     C_2   0.125724 0.488175 0.718980 0.246134
C26   C     C_1   0.873770 0.518545 0.289359 0.251095
C27   C     C_2   0.138866 0.670033 0.428972 0.267230
C28   C     C_2   0.889559 0.698125 0.484586 0.321185
C29   C     C_2   0.560531 0.858455 0.754489 0.292581
C30   C     C_1   0.379882 0.949384 0.252263 0.257062
C31   C     C_1   0.721338 0.029707 0.701203 0.258426
C32   C     C_2   0.617219 0.211633 0.664716 0.280245
C33   C     C_1   0.396514 0.354700 0.773205 0.264829
C34   C     C_3   0.911925 0.458144 0.376767 -0.128753
C35   C     C_1   0.110951 0.329068 0.589572 0.149824
C36   C     C_2   0.683644 0.670298 0.804337 0.268834
C37   C     C_2   0.260784 0.342203 0.960689 0.267131
C38   C     C_1   0.724310 0.669195 0.043754 0.325992
C39   C     C_2   0.357175 0.306264 0.181479 0.345999
C40   C     C_2   0.592390 0.654081 0.230043 0.296803
C41   C     C_1   0.870176 0.313555 0.525011 0.174000
C42   C     C_1   0.872794 0.427706 0.694464 0.244524
C43   C     C_1   0.170813 0.675566 0.625317 0.279181
C44   C     C_2   0.929491 0.661622 0.669790 0.283190
C45   C     C_R   0.506077 0.815559 0.537460 0.001289
C46   C     C_1   0.104083 0.472762 0.275008 0.348283
C47   C     C_2   0.059300 0.320598 0.347381 0.277080
C48   C     C_R   0.510340 0.186028 0.466337 -0.015055
C49   C     C_R   0.443478 0.012041 0.356116 -0.003414
C50   C     C_R   0.455526 0.120131 0.366251 -0.113031
C51   C     C_R   0.564003 0.142242 0.556022 0.018447
Cu1   Cu    Cu3+1 0.509350 0.507730 0.615930 0.990402
Cu2   Cu    Cu3+1 0.490650 0.492270 0.384070 1.004145
H1    H     H_    0.423059 0.808048 0.367690 0.179308
H2    H     H_    0.208239 0.378686 0.901930 0.125935
H3    H     H_    0.377457 0.229968 0.139621 0.123344
H4    H     H_    0.658537 0.653391 0.300215 0.136329
H5    H     H_    0.881727 0.614990 0.720750 0.158377
H6    H     H_    0.136294 0.288307 0.382300 0.182084
H7    H     H_    0.415597 0.152918 0.297474 0.148919
H8    H     H_    0.852669 0.383473 0.345620 0.183284
H9    H     H_    0.214345 0.471720 0.750272 0.131438
H10   H     H_    0.236457 0.689687 0.427576 0.112302
H11   H     H_    0.802150 0.677546 0.436378 0.085618
H12   H     H_    0.630296 0.896200 0.821745 0.173268
H13   H     H_    0.680869 0.278838 0.662169 0.143508
H14   H     H_    0.687672 0.660325 0.714385 0.154090
N1    N     N_R   0.523430 0.519360 0.790130 -0.276942
N2    N     N_1   0.834152 0.431633 0.782881 -0.236691
N3    N     N_1   0.231763 0.723491 0.703888 -0.097711
N4    N     N_1   0.144795 0.499220 0.196515 -0.187110
N5    N     N_R   0.476570 0.480640 0.209880 -0.271862
N6    N     N_1   0.845375 0.563564 0.218743 -0.255530
N7    N     N_1   0.329048 0.899275 0.169178 -0.154814
N8    N     N_1   0.809890 0.066012 0.757932 -0.157345
N9    N     N_1   0.350960 0.275410 0.721046 -0.194277
N10   N     N_1   0.138955 0.245408 0.582845 -0.208044
N11   N     N_1   0.808267 0.722453 0.093248 -0.111844
N12   N     N_1   0.829450 0.229702 0.481280 -0.249537
O1    O     O_R   0.506640 0.354460 0.582000 -0.506444
O2    O     O_2   0.072876 0.689976 0.351164 -0.429375
O3    O     O_2   0.934452 0.789275 0.498334 -0.387593
O4    O     O_2   0.474187 0.805012 0.780552 -0.431163
O5    O     O_2   0.585810 0.196666 0.757244 -0.470450
O6    O     O_2   0.745816 0.747457 0.860032 -0.492686
O7    O     O_2   0.222105 0.255113 0.974547 -0.432576
O8    O     O_2   0.288533 0.312301 0.256536 -0.502935
O9    O     O_2   0.563465 0.737543 0.211284 -0.501247
O10   O     O_2   0.965904 0.751858 0.715748 -0.374906
O11   O     O_2   0.987830 0.261972 0.275389 -0.434607
O12   O     O_R   0.490840 0.341410 0.386200 -0.478314
O13   O     O_R   0.325590 0.506510 0.597900 -0.516447
O14   O     O_R   0.309790 0.493450 0.402100 -0.467535
O15   O     O_R   0.509160 0.658590 0.613800 -0.487297
O16   O     O_R   0.493360 0.645540 0.418000 -0.532428
O17   O     O_R   0.690210 0.506550 0.597900 -0.561721
O18   O     O_R   0.674410 0.493490 0.402100 -0.531280
O19   O     O_2   0.075821 0.549184 0.785021 -0.477459

loop_
_geom_bond_atom_site_label_1
_geom_bond_atom_site_label_2
_ccdc_geom_bond_type
C8    C13   A    
C6    C45   A    
Cu2   O16   S    
C18   O17   A    
C19   C20   S    
C9    N5    A    
C39   O8    D    
C14   C33   S    
C20   C41   S    
C3    C49   A    
C36   H14   S    
C12   C23   S    
C29   O4    D    
C4    C24   S    
C9    C39   S    
C26   N6    T    
C10   C40   S    
C21   C43   S    
C26   C34   S    
C48   C51   A    
C2    C7    A    
C44   H5    S    
C8    C9    A    
Cu2   O12   S    
Cu1   O15   S    
C18   O18   A    
Cu1   N1    S    
C17   C38   S    
C48   C50   A    
C22   C47   S    
C21   C27   S    
C1    O12   A    
C13   C14   A    
C32   O5    D    
C22   C34   S    
C7    C31   S    
C28   O3    D    
C5    H1    S    
C27   O2    D    
C10   C11   A    
C38   N11   T    
Cu2   O18   S    
Cu2   O14   S    
C35   N10   T    
C42   N2    T    
C23   C44   S    
C32   C51   S    
C37   O7    D    
C33   N9    T    
C31   N8    T    
C39   H3    S    
C12   C20   S    
C23   C28   S    
C46   N4    T    
C27   H10   S    
C29   H12   S    
C28   H11   S    
C22   C46   S    
C30   C49   S    
C43   N3    T    
C21   C23   S    
C47   O11   D    
C22   C24   S    
Cu1   O13   S    
C8    C37   S    
C12   C34   S    
C15   C36   S    
Cu1   Cu2   S    
C32   H13   S    
C15   C17   A    
C11   C17   A    
C16   O16   A    
C40   H4    S    
C3    C5    A    
C16   C45   S    
C41   N12   T    
C20   C42   S    
C1    C48   S    
C6    C7    A    
C36   O6    D    
C16   O15   A    
C50   H7    S    
C40   O9    D    
C19   C24   S    
C19   C35   S    
C11   C13   A    
C5    C45   A    
C30   N7    T    
C15   N1    A    
C2    C3    A    
C25   H9    S    
C34   H8    S    
C19   C25   S    
Cu1   O17   S    
C2    C51   A    
C47   H6    S    
C4    O14   A    
C37   H2    S    
C25   O19   D    
C6    C29   S    
C49   C50   A    
C21   C24   S    
C12   C18   S    
C1    O1    A    
C14   N1    A    
Cu1   O1    S    
Cu2   N5    S    
C44   O10   D    
C4    O13   A    
C10   N5    A    
