data_mof_unit_11826.cif
_audit_creation_date              2012-12-10T17:15:53-0500
_audit_creation_method            fapswitch 2.2
_symmetry_space_group_name_H-M    P1
_symmetry_Int_Tables_number       1
_space_group_crystal_system       triclinic
_cell_length_a                    10.13288
_cell_length_b                    10.632981
_cell_length_c                    10.703538
_cell_angle_alpha                 89.754516
_cell_angle_beta                  95.882279
_cell_angle_gamma                 81.357707
_cell_volume                      1133.90372518

loop_
_atom_site_label
_atom_site_type_symbol
_atom_type_description
_atom_site_fract_x
_atom_site_fract_y
_atom_site_fract_z
_atom_type_partial_charge
C1    C     C_R   0.443155 0.513536 0.266677 0.935940
C2    C     C_R   0.587859 0.052687 0.604245 0.098108
C3    C     C_R   0.501564 0.127923 0.511800 -0.096383
C4    C     C_R   0.414422 0.076771 0.424320 -0.212411
C5    C     C_R   0.415435 0.948082 0.423601 -0.204233
C6    C     C_R   0.503673 0.871072 0.510281 -0.094555
C7    C     C_2   0.409523 0.536748 0.133280 -0.370354
C8    C     C_2   0.502949 0.573172 0.068195 -0.166385
C9    C     C_2   0.591818 0.512651 0.869585 -0.012205
C10   C     C_2   0.489204 0.564463 0.933148 -0.218790
C11   C     C_2   0.072418 0.489780 0.489396 -0.121862
C12   C     C_R   0.500422 0.260438 0.503165 0.869070
C13   C     C_2   0.927276 0.511292 0.509605 -0.134652
C14   C     C_R   0.557525 0.495616 0.734423 0.887930
C15   C     C_R   0.501114 0.739274 0.502601 0.860542
C16   C     C_R   0.669153 0.105797 0.698945 -0.179682
C17   C     C_R   0.751832 0.028090 0.789641 -0.134951
C18   C     C_R   0.753763 0.896928 0.788402 -0.138827
C19   C     C_R   0.672816 0.843147 0.696646 -0.193260
C20   C     C_R   0.589342 0.920679 0.603262 0.096568
H1    H     H_    0.347728 0.136530 0.354884 0.144872
H2    H     H_    0.313776 0.517687 0.087851 0.150492
H3    H     H_    0.891390 0.581250 0.576690 0.158715
H4    H     H_    0.108010 0.420852 0.421269 0.161248
H5    H     H_    0.879937 0.382790 0.385940 0.164032
H6    H     H_    0.120365 0.616138 0.615152 0.162785
H7    H     H_    0.667673 0.207324 0.704889 0.140052
H8    H     H_    0.813550 0.069887 0.861754 0.135473
H9    H     H_    0.817072 0.836762 0.859479 0.133020
H10   H     H_    0.675111 0.741240 0.700886 0.142996
H11   H     H_    0.349114 0.907946 0.353876 0.151323
H12   H     H_    0.387923 0.590697 0.887174 0.181407
H13   H     H_    0.597142 0.594087 0.115335 0.182667
N1    N     N_2   0.157290 0.551390 0.551110 -0.192099
N2    N     N_2   0.842740 0.448550 0.448960 -0.192601
O1    O     O_R   0.568950 0.489660 0.307530 -0.604066
O2    O     O_R   0.348880 0.522640 0.340350 -0.610511
O3    O     O_R   0.610060 0.300270 0.483590 -0.609241
O4    O     O_R   0.389990 0.333260 0.516410 -0.607285
O5    O     O_R   0.651120 0.477360 0.659650 -0.609556
O6    O     O_R   0.431050 0.510340 0.692470 -0.623407
O7    O     O_R   0.610010 0.666740 0.483590 -0.617981
O8    O     O_R   0.389940 0.699730 0.516410 -0.606674
Zn1   Zn    Zn3+2 0.646940 0.477980 0.478090 0.929616
Zn2   Zn    Zn3+2 0.353060 0.522020 0.521910 0.936984
C21   C     C_3   0.733030 0.475502 0.938260 -0.423278
C22   C     C_3   0.843762 0.415861 0.860604 -0.841815
H14   H     H_    0.816475 0.329516 0.813248 0.261429
H15   H     H_    0.865144 0.485990 0.791200 0.266034
H16   H     H_    0.937445 0.386999 0.923918 0.234815
H17   H     H_    0.766095 0.561971 0.981447 0.206814
H18   H     H_    0.727345 0.406568 0.015237 0.224137

loop_
_geom_bond_atom_site_label_1
_geom_bond_atom_site_label_2
_ccdc_geom_bond_type
C9    C14   S    
O3    Zn1   S    
C4    H1    S    
C21   H18   S    
C7    H2    S    
C6    C20   A    
C9    C10   D    
C15   O7    A    
C19   C20   A    
C1    O2    A    
O4    Zn2   S    
C17   H8    S    
C12   O4    A    
C17   C18   A    
C15   O8    A    
C7    C8    D    
C22   H15   S    
C18   H9    S    
N2    Zn1   S    
O8    Zn2   S    
O7    Zn1   S    
C16   H7    S    
C14   O6    A    
C13   N2    D    
H5    N2    S    
C2    C3    A    
C22   H16   S    
C9    C21   S    
C8    H13   S    
C12   O3    A    
C5    C6    A    
O1    Zn1   S    
C11   C13   S    
O2    Zn2   S    
C3    C4    A    
C10   H12   S    
C11   H4    S    
O5    Zn1   S    
C2    C16   A    
C13   H3    S    
C8    C10   S    
C18   C19   A    
N1    Zn2   S    
C2    C20   A    
O6    Zn2   S    
C21   C22   S    
C4    C5    A    
C3    C12   S    
C6    C15   S    
C1    C7    S    
C19   H10   S    
C14   O5    A    
C21   H17   S    
H6    N1    S    
C11   N1    D    
C22   H14   S    
C1    O1    A    
C16   C17   A    
C5    H11   S    
