data_mof_unit_25871.cif
_audit_creation_date              2012-12-10T17:47:11-0500
_audit_creation_method            fapswitch 2.2
_symmetry_space_group_name_H-M    P1
_symmetry_Int_Tables_number       1
_space_group_crystal_system       triclinic
_cell_length_a                    11.693994
_cell_length_b                    14.704234
_cell_length_c                    14.547239
_cell_angle_alpha                 65.235439
_cell_angle_beta                  102.686825
_cell_angle_gamma                 102.637633
_cell_volume                      2193.10907803

loop_
_atom_site_label
_atom_site_type_symbol
_atom_type_description
_atom_site_fract_x
_atom_site_fract_y
_atom_site_fract_z
_atom_type_partial_charge
C1    C     C_R   0.479766 0.119787 0.311661 0.801535
C2    C     C_R   0.520415 0.880369 0.688307 0.803492
C3    C     C_R   0.415903 0.324797 0.998608 0.018935
C4    C     C_R   0.584925 0.678532 0.002920 0.020954
C5    C     C_R   0.516594 0.466366 0.050604 0.006626
C6    C     C_R   0.478045 0.536435 0.953174 0.008000
C7    C     C_R   0.398083 0.499603 0.884388 -0.322251
C8    C     C_R   0.594924 0.503113 0.120078 -0.311304
C9    C     C_R   0.372775 0.396355 0.902281 0.395235
C10   C     C_R   0.622800 0.606372 0.101044 0.398702
C11   C     C_R   0.681669 0.276863 0.679628 -0.288100
C12   C     C_R   0.315387 0.722143 0.321963 -0.274651
C13   C     C_R   0.656437 0.198624 0.645248 0.053937
C14   C     C_R   0.342483 0.801055 0.355475 0.048724
C15   C     C_R   0.519179 0.286897 0.506879 0.032407
C16   C     C_R   0.480037 0.712644 0.493295 0.030120
C17   C     C_R   0.540949 0.369945 0.537532 -0.054951
C18   C     C_R   0.455481 0.628467 0.464089 -0.064465
C19   C     C_R   0.623936 0.362768 0.626751 0.061726
C20   C     C_R   0.371751 0.635390 0.375252 0.075043
C21   C     C_R   0.483455 0.458598 0.483536 0.010413
C22   C     C_R   0.511648 0.539303 0.518864 -0.003449
C23   C     C_R   0.284177 0.000342 0.500137 0.826744
C24   C     C_R   0.715822 0.999667 0.499848 0.827169
C25   C     C_R   0.594224 0.527878 0.608449 -0.334905
C26   C     C_R   0.398819 0.468926 0.395387 -0.356810
C27   C     C_R   0.647326 0.440472 0.663137 0.437410
C28   C     C_R   0.345972 0.557046 0.339377 0.441378
C29   C     C_1   0.162694 0.000905 0.500266 -0.182355
C30   C     C_1   0.837301 0.999129 0.499678 -0.180775
C31   C     C_1   0.060043 0.000478 0.500107 0.002855
C32   C     C_1   0.939949 0.999571 0.499812 0.003755
C33   C     C_R   0.464551 0.187928 0.202806 -0.086372
C34   C     C_R   0.536439 0.813266 0.797351 -0.087514
C35   C     C_R   0.395300 0.217934 0.022833 0.105299
C36   C     C_R   0.614423 0.786009 0.975661 0.100635
C37   C     C_R   0.418014 0.151313 0.125975 -0.213270
C38   C     C_R   0.589756 0.851051 0.872190 -0.214679
C39   C     C_R   0.496007 0.291494 0.176800 -0.236757
C40   C     C_R   0.500551 0.710116 0.825335 -0.228898
C41   C     C_R   0.478444 0.361044 0.075389 0.027701
C42   C     C_R   0.518475 0.641685 0.927313 0.037981
Cu1   Cu    Cu3+1 0.469550 0.918260 0.475690 0.936000
Cu2   Cu    Cu3+1 0.530450 0.081740 0.524310 0.934869
H1    H     H_    0.619319 0.585052 0.639850 0.152596
H2    H     H_    0.370309 0.408882 0.368313 0.135127
H3    H     H_    0.464035 0.683708 0.764685 0.151379
H4    H     H_    0.528427 0.317339 0.238263 0.151962
H5    H     H_    0.615220 0.931874 0.847699 0.149324
H6    H     H_    0.397168 0.070367 0.147968 0.148534
H7    H     H_    0.349644 0.550030 0.817205 0.154589
H8    H     H_    0.640911 0.452721 0.189167 0.160164
H9    H     H_    0.545155 0.715776 0.557095 0.127406
H10   H     H_    0.455995 0.284284 0.441878 0.123755
H11   H     H_    0.300038 0.868172 0.313294 0.127714
H12   H     H_    0.699297 0.131728 0.687361 0.125994
H13   H     H_    0.745213 0.269238 0.748038 0.184197
H14   H     H_    0.251207 0.729975 0.253889 0.188967
N1    N     N_R   0.576230 0.204580 0.560790 -0.174190
N2    N     N_R   0.423770 0.795420 0.439210 -0.174338
O1    O     O_R   0.459870 0.022090 0.338120 -0.590728
O2    O     O_R   0.540130 0.977910 0.661880 -0.591153
O3    O     O_R   0.511290 0.160150 0.379180 -0.591639
O4    O     O_R   0.488710 0.839850 0.620820 -0.590792
O5    O     O_R   0.311490 0.930960 0.479480 -0.571569
O6    O     O_R   0.688510 0.069040 0.520520 -0.571366
O7    O     O_R   0.362910 0.069020 0.520540 -0.574209
O8    O     O_R   0.637090 0.930980 0.479460 -0.573806
O9    O     O_3   0.288776 0.364781 0.833748 -0.590266
C43   C     C_3   0.322380 0.409584 0.734673 0.043382
H15   H     H_    0.417888 0.408701 0.737353 0.121396
H16   H     H_    0.302738 0.488658 0.694937 0.162749
C44   C     C_3   0.251506 0.350350 0.671364 -0.764914
H17   H     H_    0.155239 0.348137 0.668079 0.258527
H18   H     H_    0.273790 0.387273 0.592311 0.218994
H19   H     H_    0.272635 0.271814 0.705620 0.236194
O10   O     O_3   0.705283 0.635445 0.171706 -0.592519
C45   C     C_3   0.658379 0.604424 0.263736 0.035613
H20   H     H_    0.646892 0.520707 0.304537 0.156235
H21   H     H_    0.572040 0.631800 0.249008 0.130552
C46   C     C_3   0.744012 0.649647 0.333850 -0.750109
H22   H     H_    0.755219 0.733580 0.296861 0.238417
H23   H     H_    0.709220 0.625170 0.406927 0.216700
H24   H     H_    0.831511 0.623844 0.350559 0.257571
C47   C     C_3   0.354005 0.175707 0.939411 -0.344454
C48   C     C_3   0.374594 0.066399 0.969519 -0.423381
C49   C     C_3   0.355246 0.039954 0.875720 -0.839697
H25   H     H_    0.264137 0.050053 0.834138 0.260996
H26   H     H_    0.420395 0.088903 0.823315 0.253175
H27   H     H_    0.367147 0.959803 0.900180 0.246576
H28   H     H_    0.466700 0.057163 0.008573 0.233433
H29   H     H_    0.311915 0.012726 0.022268 0.222572
H30   H     H_    0.257930 0.179717 0.912856 0.242319
H31   H     H_    0.404373 0.224012 0.874896 0.210338
C50   C     C_3   0.669674 0.831119 0.055686 -0.340866
C51   C     C_3   0.677159 0.946406 0.019851 -0.427277
C52   C     C_3   0.715576 0.979494 0.109849 -0.838651
H32   H     H_    0.649891 0.944168 0.164280 0.254192
H33   H     H_    0.803682 0.957466 0.150488 0.259701
H34   H     H_    0.721638 0.063025 0.081314 0.245932
H35   H     H_    0.742619 0.985782 0.965428 0.223130
H36   H     H_    0.589267 0.969610 0.981123 0.233569
H37   H     H_    0.614886 0.795856 0.118610 0.214854
H38   H     H_    0.761318 0.812790 0.085380 0.247183
O11   O     O_3   0.727973 0.433654 0.750364 -0.573671
C53   C     C_3   0.665015 0.406519 0.832771 0.035928
H39   H     H_    0.602569 0.334966 0.843029 0.128733
H40   H     H_    0.615170 0.467994 0.820590 0.145463
C54   C     C_3   0.751883 0.389478 0.931008 -0.738860
H41   H     H_    0.814385 0.459952 0.924395 0.254402
H42   H     H_    0.702923 0.367759 0.996180 0.205545
H43   H     H_    0.802627 0.327827 0.946104 0.242413
O12   O     O_3   0.261664 0.565800 0.252974 -0.583665
C55   C     C_3   0.298616 0.535945 0.184593 0.059280
H44   H     H_    0.267961 0.453922 0.203388 0.160498
H45   H     H_    0.396367 0.551137 0.186104 0.120068
C56   C     C_3   0.243267 0.594591 0.075992 -0.760483
H46   H     H_    0.274540 0.676865 0.054287 0.238416
H47   H     H_    0.269237 0.569800 0.022066 0.212926
H48   H     H_    0.145209 0.580771 0.070316 0.256775

loop_
_geom_bond_atom_site_label_1
_geom_bond_atom_site_label_2
_ccdc_geom_bond_type
C40   H3    S    
C49   H25   S    
C4    C36   A    
C51   H36   S    
C11   C13   A    
C44   H17   S    
Cu2   O6    S    
C50   C51   S    
C45   C46   S    
C21   C26   A    
C52   H34   S    
C52   H32   S    
C1    C33   S    
C39   C41   A    
C38   H5    S    
O10   C45   S    
C11   C19   A    
C33   C39   A    
C53   H40   S    
C34   C40   A    
C23   C29   S    
C35   C37   A    
C9    O9    S    
C48   H28   S    
C54   H42   S    
C5    C6    A    
C45   H21   S    
C53   H39   S    
C27   O11   S    
Cu2   N1    S    
C15   C17   A    
C16   N2    A    
C23   O7    A    
C16   H9    S    
C52   H33   S    
C47   H30   S    
C50   H37   S    
Cu1   O8    S    
C22   C25   A    
C43   H15   S    
C19   C27   A    
C8    H8    S    
C24   O6    A    
C13   H12   S    
C12   H14   S    
C2    C34   S    
C40   C42   A    
C14   H11   S    
C18   C22   A    
C21   C22   A    
C44   H18   S    
C1    O3    A    
C46   H23   S    
C10   O10   S    
C2    O4    A    
Cu1   O4    S    
C46   H22   S    
C24   C30   S    
Cu2   O3    S    
C43   H16   S    
C15   H10   S    
C54   H43   S    
C26   H2    S    
C45   H20   S    
C20   C28   A    
Cu2   O2    S    
C47   C48   S    
C17   C21   A    
Cu1   Cu2   S    
C3    C9    A    
C47   H31   S    
C31   C32   S    
C3    C35   A    
Cu1   O5    S    
C51   C52   S    
C12   C20   A    
C43   C44   S    
C48   C49   S    
Cu1   N2    S    
C16   C18   A    
C12   C14   A    
C49   H26   S    
C44   H19   S    
C56   H48   S    
C4    C10   A    
C25   H1    S    
C46   H24   S    
C50   H38   S    
Cu1   O1    S    
O12   C55   S    
C7    C9    A    
C5    C41   A    
C3    C41   A    
C34   C38   A    
C15   N1    A    
C1    O1    A    
C5    C8    A    
C55   H45   S    
C55   H44   S    
C6    C7    A    
C13   N1    A    
C25   C27   A    
C14   N2    A    
O11   C53   S    
C26   C28   A    
C23   O5    A    
C56   H47   S    
C7    H7    S    
C29   C31   T    
C11   H13   S    
C56   H46   S    
C30   C32   T    
C37   H6    S    
C35   C47   S    
C36   C50   S    
C4    C42   A    
C36   C38   A    
C17   C19   A    
C18   C20   A    
O9    C43   S    
C33   C37   A    
C55   C56   S    
C28   O12   S    
C24   O8    A    
C8    C10   A    
C6    C42   A    
C49   H27   S    
C54   H41   S    
Cu2   O7    S    
C48   H29   S    
C51   H35   S    
C2    O2    A    
C39   H4    S    
C53   C54   S    
