data_mof_unit_62993.cif
_audit_creation_date              2012-12-10T16:58:38-0500
_audit_creation_method            fapswitch 2.2
_symmetry_space_group_name_H-M    P1
_symmetry_Int_Tables_number       1
_space_group_crystal_system       triclinic
_cell_length_a                    30.48074
_cell_length_b                    31.070889
_cell_length_c                    24.356251
_cell_angle_alpha                 90.082472
_cell_angle_beta                  127.303143
_cell_angle_gamma                 89.991573
_cell_volume                      18348.3304314

loop_
_atom_site_label
_atom_site_type_symbol
_atom_type_description
_atom_site_fract_x
_atom_site_fract_y
_atom_site_fract_z
_atom_type_partial_charge
C1    C     C_R   0.809247 0.809172 0.498230 0.821796
C2    C     C_R   0.530798 0.746157 0.069564 0.300935
C3    C     C_R   0.933643 0.280852 0.816538 0.476037
C4    C     C_R   0.565752 0.745950 0.145234 -0.135778
C5    C     C_R   0.434837 0.745899 0.854687 -0.136463
C6    C     C_R   0.065724 0.245944 0.145231 -0.135941
C7    C     C_R   0.934798 0.245954 0.854679 -0.135913
C8    C     C_R   0.600824 0.710682 0.180228 -0.196323
C9    C     C_R   0.399508 0.710703 0.819602 -0.197574
C10   C     C_R   0.100874 0.210713 0.180212 -0.195852
C11   C     C_R   0.899627 0.210680 0.819587 -0.195847
C12   C     C_R   0.637153 0.709635 0.251918 0.451904
C13   C     C_R   0.969889 0.246171 0.930359 0.301286
C14   C     C_R   0.362983 0.709679 0.747919 0.449231
C15   C     C_R   0.137211 0.209663 0.251901 0.452158
C16   C     C_R   0.863114 0.209648 0.747904 0.452193
C17   C     C_R   0.845040 0.759910 0.855631 0.134366
C18   C     C_R   0.804849 0.730462 0.842981 -0.148380
C19   C     C_R   0.781203 0.734712 0.877134 -0.123109
C20   C     C_R   0.797243 0.768451 0.923800 -0.095921
C21   C     C_R   0.836830 0.798097 0.936230 -0.122840
C22   C     C_R   0.860540 0.794005 0.902144 -0.128726
C23   C     C_R   0.162545 0.748590 0.149221 0.132376
C24   C     C_R   0.030763 0.246165 0.069559 0.301372
C25   C     C_R   0.154410 0.713437 0.107539 -0.130504
C26   C     C_R   0.180622 0.712240 0.076312 -0.123017
C27   C     C_R   0.215414 0.745881 0.086842 -0.097904
C28   C     C_R   0.224163 0.780734 0.128761 -0.124086
C29   C     C_R   0.197997 0.782089 0.160051 -0.146257
C30   C     C_R   0.337249 0.248805 0.850672 0.132512
C31   C     C_R   0.345203 0.213657 0.892118 -0.130659
C32   C     C_R   0.318947 0.212515 0.923287 -0.122764
C33   C     C_R   0.284289 0.246205 0.912933 -0.097342
C34   C     C_R   0.275720 0.281054 0.871247 -0.124529
C35   C     C_2   0.848389 0.910780 0.452312 0.505164
C36   C     C_R   0.301931 0.282354 0.840015 -0.146725
C37   C     C_R   0.654860 0.258927 0.144335 0.134412
C38   C     C_R   0.694552 0.229069 0.156657 -0.148204
C39   C     C_R   0.718189 0.232892 0.122451 -0.123103
C40   C     C_R   0.702646 0.266614 0.076069 -0.095672
C41   C     C_R   0.663565 0.296668 0.063975 -0.122955
C42   C     C_R   0.639860 0.293000 0.098109 -0.129162
C43   C     C_2   0.110890 0.871637 0.547918 0.513409
C44   C     C_2   0.348368 0.410825 0.452347 0.507192
C45   C     C_2   0.651581 0.410952 0.547490 0.506438
C46   C     C_2   0.902044 0.916023 0.504572 -0.261177
C47   C     C_2   0.080046 0.899154 0.495335 -0.256846
C48   C     C_2   0.402042 0.416021 0.504573 -0.264767
C49   C     C_R   0.190985 0.809625 0.501355 0.825428
C50   C     C_2   0.597909 0.416055 0.495266 -0.264204
C51   C     C_2   0.817480 0.878631 0.460737 -0.329355
C52   C     C_2   0.138474 0.836417 0.538969 -0.327906
C53   C     C_2   0.317459 0.378667 0.460762 -0.329590
C54   C     C_2   0.682481 0.378764 0.539086 -0.329106
C55   C     C_2   0.840161 0.840300 0.489529 0.254708
C56   C     C_2   0.162453 0.844049 0.508438 0.249840
C57   C     C_2   0.340109 0.340305 0.489428 0.254159
C58   C     C_2   0.659832 0.340344 0.510430 0.255184
C59   C     C_R   0.835002 0.755240 0.746989 -0.283831
C60   C     C_R   0.309231 0.309173 0.498197 0.822193
C61   C     C_R   0.168183 0.753028 0.254752 -0.283668
C62   C     C_R   0.331706 0.253205 0.745213 -0.284028
C63   C     C_R   0.664919 0.254740 0.252991 -0.283845
C64   C     C_R   0.869939 0.755509 0.819184 0.030685
C65   C     C_R   0.135096 0.749861 0.182781 0.030528
C66   C     C_R   0.364741 0.250018 0.817166 0.030587
C67   C     C_R   0.629948 0.254952 0.180802 0.030651
C68   C     C_R   0.927606 0.753007 0.854662 -0.058110
C69   C     C_R   0.077282 0.745703 0.145187 -0.059763
C70   C     C_R   0.422538 0.245768 0.854779 -0.059940
C71   C     C_R   0.690752 0.309177 0.501763 0.820867
C72   C     C_R   0.572262 0.252777 0.145360 -0.058348
C73   C     C_R   0.948923 0.751883 0.817385 -0.159510
C74   C     C_R   0.054369 0.743709 0.180619 -0.160115
C75   C     C_R   0.445493 0.243762 0.819394 -0.159705
C76   C     C_R   0.550984 0.251985 0.182692 -0.159008
C77   C     C_R   0.681794 0.748723 0.365252 0.905309
C78   C     C_R   0.318250 0.748742 0.634737 0.905167
C79   C     C_R   0.181792 0.248721 0.365250 0.905348
C80   C     C_R   0.818244 0.248748 0.634735 0.905340
C81   C     C_R   0.914255 0.752616 0.745572 0.448685
C82   C     C_R   0.641674 0.746201 0.289824 -0.256117
C83   C     C_R   0.087237 0.747121 0.252191 0.447985
C84   C     C_R   0.412682 0.247207 0.747850 0.448834
C85   C     C_R   0.585700 0.252745 0.254513 0.448733
C86   C     C_R   0.856443 0.753144 0.709924 -0.161931
C87   C     C_R   0.145044 0.751138 0.289828 -0.164734
C88   C     C_R   0.354884 0.251261 0.710181 -0.164922
C89   C     C_R   0.643506 0.252998 0.290100 -0.161828
C90   C     C_R   0.039333 0.746256 0.069316 0.290787
C91   C     C_R   0.966635 0.750701 0.930157 0.290165
C92   C     C_R   0.533172 0.250501 0.069847 0.290416
C93   C     C_R   0.358532 0.746206 0.710135 -0.259017
C94   C     C_R   0.460448 0.246216 0.930651 0.290658
C95   C     C_2   0.648300 0.589509 0.542593 -0.200110
C96   C     C_2   0.351741 0.589398 0.457536 -0.198513
C97   C     C_2   0.148289 0.089557 0.542644 -0.194972
C98   C     C_2   0.851745 0.089395 0.457550 -0.199681
C99   C     C_2   0.593371 0.589333 0.494017 0.288368
C100  C     C_2   0.406661 0.589279 0.506166 0.287604
C101  C     C_2   0.093366 0.089346 0.494024 0.287276
C102  C     C_2   0.906666 0.089282 0.506167 0.288276
C103  C     C_2   0.682624 0.619928 0.538119 -0.116102
C104  C     C_R   0.141666 0.246196 0.289822 -0.256208
C105  C     C_2   0.317418 0.619841 0.461983 -0.114278
C106  C     C_2   0.182619 0.119958 0.538160 -0.110367
C107  C     C_2   0.817424 0.119838 0.462001 -0.115859
C108  C     C_2   0.664804 0.660249 0.518180 -0.242840
C109  C     C_2   0.335266 0.660191 0.481961 -0.240944
C110  C     C_2   0.164786 0.160266 0.518160 -0.243368
C111  C     C_2   0.835266 0.160190 0.481963 -0.243087
C112  C     C_R   0.440262 0.558967 0.501108 0.787876
C113  C     C_R   0.559760 0.558977 0.498960 0.787704
C114  C     C_R   0.940263 0.058967 0.501108 0.787733
C115  C     C_R   0.858510 0.246235 0.710129 -0.255964
C116  C     C_R   0.059761 0.058974 0.498961 0.797562
C117  C     C_R   0.938590 0.942967 0.500810 0.943056
C118  C     C_R   0.056220 0.938019 0.499269 0.950831
C119  C     C_R   0.438594 0.442963 0.500810 0.953984
C120  C     C_R   0.561384 0.442972 0.499131 0.954260
C121  C     C_R   0.692668 0.690970 0.505042 0.908338
C122  C     C_R   0.307349 0.690957 0.494992 0.908353
C123  C     C_R   0.192664 0.190973 0.505035 0.908976
C124  C     C_R   0.807351 0.190957 0.494994 0.907881
C125  C     C_R   0.817785 0.750950 0.634629 0.851632
C126  C     C_R   0.469929 0.746127 0.930366 0.300831
C127  C     C_R   0.182306 0.750747 0.365317 0.851733
C128  C     C_R   0.317674 0.250789 0.634690 0.852509
C129  C     C_R   0.682200 0.250904 0.365382 0.851201
C130  C     C_R   0.606062 0.781214 0.254807 -0.231688
C131  C     C_R   0.394410 0.781140 0.745238 -0.226340
C132  C     C_R   0.105977 0.281172 0.254816 -0.231252
C133  C     C_R   0.894223 0.281253 0.745234 -0.231579
C134  C     C_R   0.566818 0.780827 0.183471 0.475975
C135  C     C_R   0.433835 0.780719 0.816541 0.475751
C136  C     C_R   0.066722 0.280779 0.183482 0.476050
H1    H     H_    0.607766 0.808961 0.283066 0.201204
H2    H     H_    0.331694 0.566090 0.415654 0.143833
H3    H     H_    0.168340 0.066318 0.584494 0.136475
H4    H     H_    0.831696 0.066078 0.415679 0.143571
H5    H     H_    0.721676 0.609236 0.550677 0.164944
H6    H     H_    0.278322 0.609156 0.449320 0.164867
H7    H     H_    0.221690 0.109267 0.550773 0.166423
H8    H     H_    0.778335 0.109150 0.449354 0.165160
H9    H     H_    0.628765 0.671682 0.513100 0.184933
H10   H     H_    0.371360 0.671604 0.487151 0.184875
H11   H     H_    0.128728 0.171702 0.513035 0.184689
H12   H     H_    0.392775 0.808847 0.717066 0.204763
H13   H     H_    0.871353 0.171604 0.487137 0.184719
H14   H     H_    0.599772 0.683302 0.151834 0.196173
H15   H     H_    0.400498 0.683365 0.847914 0.196016
H16   H     H_    0.099875 0.183363 0.151810 0.196373
H17   H     H_    0.900735 0.183285 0.847893 0.196414
H18   H     H_    0.919947 0.900596 0.554039 0.148482
H19   H     H_    0.070172 0.892026 0.445211 0.145990
H20   H     H_    0.419961 0.400552 0.554014 0.145615
H21   H     H_    0.579981 0.400510 0.445801 0.146802
H22   H     H_    0.775581 0.886186 0.441553 0.138235
H23   H     H_    0.107625 0.308891 0.283082 0.201309
H24   H     H_    0.141058 0.804902 0.560058 0.142167
H25   H     H_    0.275598 0.386251 0.441701 0.137880
H26   H     H_    0.724359 0.386365 0.558198 0.137925
H27   H     H_    0.790708 0.756604 0.719417 0.168117
H28   H     H_    0.212608 0.755183 0.283885 0.168759
H29   H     H_    0.287285 0.255401 0.716051 0.168685
H30   H     H_    0.709222 0.255870 0.280527 0.167831
H31   H     H_    0.792200 0.704061 0.807155 0.133169
H32   H     H_    0.750460 0.711821 0.867452 0.139677
H33   H     H_    0.778910 0.771677 0.950206 0.138355
H34   H     H_    0.892459 0.309012 0.717062 0.201038
H35   H     H_    0.849068 0.824310 0.972182 0.141856
H36   H     H_    0.890879 0.817391 0.911893 0.135720
H37   H     H_    0.127846 0.687012 0.099324 0.134987
H38   H     H_    0.174045 0.685184 0.044054 0.141452
H39   H     H_    0.235691 0.744896 0.062651 0.137579
H40   H     H_    0.251215 0.806722 0.136995 0.141300
H41   H     H_    0.204998 0.809356 0.192236 0.138113
H42   H     H_    0.371659 0.187193 0.900190 0.135339
H43   H     H_    0.325383 0.185462 0.955362 0.142000
H44   H     H_    0.263977 0.245262 0.937078 0.138190
H45   H     H_    0.993110 0.750444 0.844336 0.178797
H46   H     H_    0.248771 0.307079 0.863148 0.141119
H47   H     H_    0.295068 0.309617 0.808010 0.137717
H48   H     H_    0.706807 0.202677 0.192258 0.133362
H49   H     H_    0.748537 0.209682 0.131868 0.139849
H50   H     H_    0.720970 0.269508 0.049619 0.138560
H51   H     H_    0.651713 0.322865 0.028242 0.141813
H52   H     H_    0.609905 0.316687 0.088612 0.135513
H53   H     H_    0.912508 0.765602 0.666088 0.333718
H54   H     H_    0.084937 0.761872 0.328097 0.335254
H55   H     H_    0.415105 0.261957 0.672091 0.333547
H56   H     H_    0.010079 0.741294 0.152288 0.180555
H57   H     H_    0.587703 0.265860 0.334215 0.333771
H58   H     H_    0.528938 0.613307 0.407916 0.342884
H59   H     H_    0.471079 0.613299 0.592405 0.342546
H60   H     H_    0.028941 0.113281 0.407876 0.342057
H61   H     H_    0.971091 0.113314 0.592390 0.342695
H62   H     H_    0.494384 0.803658 0.112942 0.342838
H63   H     H_    0.506463 0.803408 0.886997 0.343065
H64   H     H_    0.994227 0.303524 0.112995 0.343177
H65   H     H_    0.006173 0.303701 0.886978 0.342911
H66   H     H_    0.668899 0.667123 0.324152 0.347226
H67   H     H_    0.489778 0.241294 0.847756 0.180777
H68   H     H_    0.330904 0.667118 0.675517 0.347854
H69   H     H_    0.169007 0.167119 0.324088 0.347583
H70   H     H_    0.831130 0.167141 0.675419 0.347325
H71   H     H_    0.783700 0.926263 0.361300 0.335868
H72   H     H_    0.141120 0.853028 0.640273 0.337098
H73   H     H_    0.283653 0.426389 0.361409 0.336107
H74   H     H_    0.716295 0.426673 0.638457 0.335999
H75   H     H_    0.903445 0.801681 0.530510 0.354180
H76   H     H_    0.179271 0.885598 0.463217 0.350519
H77   H     H_    0.403325 0.301637 0.530140 0.354776
H78   H     H_    0.506789 0.250784 0.155778 0.179247
H79   H     H_    0.596598 0.301617 0.469624 0.355609
H80   H     H_    0.668353 0.566231 0.584392 0.143408
N1    N     N_R   0.515258 0.708548 0.034054 -0.166451
N2    N     N_R   0.991046 0.724204 0.034751 -0.168665
N3    N     N_R   0.508534 0.223963 0.965050 -0.168122
N4    N     N_R   0.485033 0.272608 0.035561 -0.169296
N5    N     N_R   0.050502 0.770660 0.033012 -0.150242
N6    N     N_R   0.955424 0.726232 0.966339 -0.148637
N7    N     N_R   0.544163 0.225912 0.033477 -0.148300
N8    N     N_R   0.449477 0.270721 0.967139 -0.150382
N9    N     N_R   0.485235 0.708534 0.965696 -0.166404
N10   N     N_R   0.015347 0.208566 0.034038 -0.165895
N11   N     N_R   0.985323 0.208569 0.965680 -0.165953
N12   N     N_R   0.485280 0.783717 0.965860 -0.132971
N13   N     N_R   0.515717 0.783731 0.034257 -0.132991
N14   N     N_R   0.985114 0.283751 0.965864 -0.133199
N15   N     N_R   0.015554 0.283748 0.034260 -0.133190
N16   N     N_R   0.014960 0.772622 0.964606 -0.169237
O1    O     O_R   0.820760 0.769680 0.499980 -0.614511
O2    O     O_R   0.073990 0.954760 0.557490 -0.551215
O3    O     O_R   0.426010 0.454760 0.442510 -0.546951
O4    O     O_R   0.573990 0.454760 0.557490 -0.547205
O5    O     O_R   0.983520 0.954760 0.557520 -0.628088
O6    O     O_R   0.016480 0.954760 0.442480 -0.635322
O7    O     O_R   0.483520 0.454760 0.557520 -0.635221
O8    O     O_R   0.516480 0.454760 0.442480 -0.634443
O9    O     O_R   0.769670 0.820760 0.499990 -0.629420
O10   O     O_R   0.230330 0.820760 0.500010 -0.613082
O11   O     O_R   0.269670 0.320760 0.499990 -0.630283
O12   O     O_R   0.179240 0.769680 0.500020 -0.627759
O13   O     O_R   0.730330 0.320760 0.500010 -0.629694
O14   O     O_R   0.724610 0.724460 0.398130 -0.591766
O15   O     O_R   0.275390 0.724460 0.601870 -0.596550
O16   O     O_R   0.224610 0.224460 0.398130 -0.591339
O17   O     O_R   0.775390 0.224460 0.601870 -0.591219
O18   O     O_R   0.673520 0.775530 0.398150 -0.620354
O19   O     O_R   0.326480 0.775530 0.601850 -0.615621
O20   O     O_R   0.173520 0.275530 0.398150 -0.620535
O21   O     O_R   0.826480 0.275530 0.601850 -0.620604
O22   O     O_R   0.730310 0.679220 0.500010 -0.616387
O23   O     O_R   0.320760 0.269680 0.499980 -0.612920
O24   O     O_R   0.269690 0.679220 0.499990 -0.615886
O25   O     O_R   0.230310 0.179220 0.500010 -0.615444
O26   O     O_R   0.769690 0.179220 0.499990 -0.616287
O27   O     O_R   0.679220 0.730290 0.500020 -0.624049
O28   O     O_R   0.320780 0.730290 0.499980 -0.624675
O29   O     O_R   0.179220 0.230290 0.500020 -0.624516
O30   O     O_R   0.820780 0.230290 0.499980 -0.624234
O31   O     O_R   0.826460 0.724450 0.601850 -0.606790
O32   O     O_R   0.173540 0.724450 0.398150 -0.602384
O33   O     O_R   0.326460 0.224450 0.601850 -0.604249
O34   O     O_R   0.679240 0.269680 0.500020 -0.613419
O35   O     O_R   0.673540 0.224450 0.398150 -0.606531
O36   O     O_R   0.775370 0.775520 0.601870 -0.614893
O37   O     O_R   0.224630 0.775520 0.398130 -0.619941
O38   O     O_R   0.275370 0.275520 0.601870 -0.617329
O39   O     O_R   0.724630 0.275520 0.398130 -0.614925
O40   O     O_R   0.425990 0.545230 0.442510 -0.627755
O41   O     O_R   0.574010 0.545230 0.557490 -0.628484
O42   O     O_R   0.925990 0.045230 0.442510 -0.628376
O43   O     O_R   0.074010 0.045230 0.557490 -0.633898
O44   O     O_3   0.938723 0.753479 0.712940 -0.751211
O45   O     O_R   0.483490 0.545220 0.557520 -0.619477
O46   O     O_3   0.060940 0.747569 0.282535 -0.749778
O47   O     O_3   0.439024 0.247628 0.717562 -0.748756
O48   O     O_3   0.561284 0.253918 0.287204 -0.749767
O49   O     O_3   0.569612 0.613981 0.434818 -0.756541
O50   O     O_3   0.430400 0.613968 0.565443 -0.757252
O51   O     O_3   0.069617 0.113969 0.434802 -0.756025
O52   O     O_3   0.930413 0.113981 0.565437 -0.756417
O53   O     O_3   0.530183 0.814701 0.153720 -0.739800
O54   O     O_3   0.470693 0.814507 0.846348 -0.737011
O55   O     O_3   0.030011 0.314606 0.153747 -0.739443
O56   O     O_R   0.516510 0.545220 0.442480 -0.618719
O57   O     O_3   0.970347 0.314737 0.846350 -0.740082
O58   O     O_3   0.666653 0.672296 0.282410 -0.733066
O59   O     O_3   0.333218 0.672399 0.717305 -0.735069
O60   O     O_3   0.166791 0.172353 0.282380 -0.731797
O61   O     O_3   0.833519 0.172302 0.717283 -0.732236
O62   O     O_3   0.822837 0.935408 0.393189 -0.745733
O63   O     O_3   0.116407 0.876205 0.608263 -0.734290
O64   O     O_3   0.322804 0.435504 0.393276 -0.745901
O65   O     O_3   0.677149 0.435739 0.606583 -0.746098
O66   O     O_3   0.889939 0.828663 0.503344 -0.757899
O67   O     O_R   0.983490 0.045220 0.557520 -0.618545
O68   O     O_3   0.166599 0.885966 0.492279 -0.766263
O69   O     O_3   0.389821 0.328655 0.503067 -0.753823
O70   O     O_3   0.610082 0.328693 0.496695 -0.753460
O71   O     O_R   0.016510 0.045220 0.442480 -0.611945
O72   O     O_R   0.926010 0.954760 0.442510 -0.555061
Zn1   Zn    Zn3+2 0.784100 0.715890 0.499990 1.016433
Zn2   Zn    Zn3+2 0.538410 0.499990 0.576790 1.019563
Zn3   Zn    Zn3+2 0.961590 0.999990 0.423210 1.019850
Zn4   Zn    Zn3+2 0.038410 0.999990 0.576790 1.020573
Zn5   Zn    Zn3+2 0.215900 0.715890 0.500010 1.009515
Zn6   Zn    Zn3+2 0.284100 0.215890 0.499990 1.022250
Zn7   Zn    Zn3+2 0.715900 0.215890 0.500010 1.019253
Zn8   Zn    Zn3+2 0.715880 0.784090 0.500010 0.974819
Zn9   Zn    Zn3+2 0.284120 0.784090 0.499990 0.982085
Zn10  Zn    Zn3+2 0.215880 0.284090 0.500010 0.971603
Zn11  Zn    Zn3+2 0.784120 0.284090 0.499990 0.974029
Zn12  Zn    Zn3+2 0.461590 0.499990 0.423210 1.021919

loop_
_geom_bond_atom_site_label_1
_geom_bond_atom_site_label_2
_ccdc_geom_bond_type
O19   Zn9   S    
C43   O63   S    
C19   C20   A    
C74   C83   A    
C56   O68   S    
C95   C99   D    
O9    Zn8   S    
C84   O47   S    
C15   O60   S    
C89   C129  S    
C41   H51   S    
O22   Zn1   S    
C37   C42   A    
C2    N13   A    
C44   C53   S    
O72   Zn3   S    
C1    O1    A    
C5    C126  S    
H58   O49   S    
C128  O33   A    
C81   C86   A    
C117  O5    A    
C29   H41   S    
C21   C22   A    
C33   H44   S    
O20   Zn10  S    
C130  C134  A    
C111  H13   S    
C73   C81   A    
N12   N13   A    
O31   Zn1   S    
O13   Zn11  S    
O23   Zn6   S    
C98   C102  D    
C62   C88   A    
C46   C117  S    
C8    H14   S    
C133  H34   S    
C99   C113  S    
C37   C38   A    
C129  O39   A    
C110  C123  S    
C73   H45   S    
C55   O66   S    
C69   C74   A    
O36   Zn8   S    
C99   O49   S    
C119  O3    A    
C35   C51   S    
C114  O67   A    
C71   O13   A    
C16   C115  A    
C105  H6    S    
O35   Zn7   S    
O15   Zn5   S    
H79   O70   S    
C9    H15   S    
C60   O11   A    
H54   O46   S    
C111  C124  S    
C128  O38   A    
C84   C88   A    
O1    Zn1   S    
C13   N11   A    
C30   C36   A    
H74   O65   S    
C66   C70   A    
C77   C82   S    
C94   N3    A    
C51   C55   D    
O14   Zn1   S    
C25   H37   S    
C7    C13   S    
C20   C21   A    
C44   O64   S    
H66   O58   S    
C77   O18   A    
C43   C47   D    
O3    Zn12  S    
C44   C48   D    
C52   H24   S    
C79   O20   A    
C24   N15   A    
C123  O25   A    
O10   Zn9   S    
C50   C120  S    
C64   C68   A    
C77   O14   A    
C96   H2    S    
C38   C39   A    
C43   C52   S    
C40   H50   S    
C12   O58   S    
C38   H48   S    
C127  O32   A    
C67   C72   A    
C61   C87   A    
C13   N14   A    
C14   C93   A    
C132  C136  A    
C94   N8    A    
C95   H80   S    
C103  H5    S    
O2    Zn4   S    
C95   C103  S    
C78   O15   A    
C63   H30   S    
C132  H23   S    
C62   C66   A    
C31   H42   S    
C90   N5    A    
C113  O41   A    
C39   C40   A    
C75   H67   S    
C25   C26   A    
C75   C84   A    
O28   Zn9   S    
C2    C4    S    
O25   Zn6   S    
C5    C9    A    
C61   C65   A    
O27   Zn8   S    
C31   C32   A    
C8    C12   A    
C6    C24   S    
C63   C89   A    
C17   C18   A    
C36   H47   S    
C91   N6    A    
C71   O34   A    
C4    C134  A    
C5    C135  A    
C105  C109  D    
C107  C111  D    
O41   Zn2   S    
O7    Zn2   S    
H77   O69   S    
C18   H31   S    
C81   O44   S    
C23   C65   S    
C1    C55   S    
O43   Zn4   S    
C35   C46   D    
C119  O7    A    
C37   C67   S    
N5    N16   A    
C34   C36   A    
C90   N2    A    
C59   H27   S    
C11   H17   S    
C76   H78   S    
N10   N11   A    
C127  O37   A    
C14   O59   S    
O56   Zn12  S    
C136  O55   S    
C97   H3    S    
C69   C90   S    
N1    N9    A    
C83   C87   A    
C96   C105  S    
C61   H28   S    
C41   C42   A    
C108  C121  S    
O4    Zn2   S    
C106  H7    S    
C26   C27   A    
H64   O55   S    
O29   Zn10  S    
H59   O50   S    
C28   C29   A    
C70   C94   S    
C3    C7    A    
O26   Zn7   S    
C122  O24   A    
C30   C31   A    
C72   C92   S    
C58   C71   S    
O37   Zn9   S    
C26   H38   S    
C18   C19   A    
O45   Zn2   S    
C76   C85   A    
C10   H16   S    
C47   C118  S    
C48   C119  S    
C72   C76   A    
C118  O6    A    
C20   H33   S    
C48   H20   S    
C124  O26   A    
C78   O19   A    
C57   O69   S    
O42   Zn3   S    
C83   O46   S    
C46   H18   S    
C80   O21   A    
C101  O51   S    
C102  O52   S    
C27   H39   S    
C85   C89   A    
C28   H40   S    
C57   C60   S    
C115  C133  A    
C21   H35   S    
C98   C107  S    
C45   O65   S    
C116  O43   A    
C9    C14   A    
C11   C16   A    
C80   C115  S    
C125  O31   A    
C135  O54   S    
H55   O47   S    
C58   O70   S    
C120  O8    A    
C97   C106  S    
C122  O28   A    
C100  C112  S    
C126  N9    A    
C19   H32   S    
H75   O66   S    
C23   C29   A    
C114  O42   A    
C108  H9    S    
C42   H52   S    
H63   O54   S    
C53   C57   D    
O30   Zn11  S    
C92   N7    A    
H76   O68   S    
C6    C10   A    
C16   O61   S    
C51   H22   S    
C17   C22   A    
O21   Zn11  S    
C32   C33   A    
C17   C64   S    
C45   C50   D    
O5    Zn4   S    
O6    Zn3   S    
C65   C69   A    
H73   O64   S    
N14   N15   A    
C109  C122  S    
N3    N7    A    
C35   O62   S    
C104  C132  A    
C101  C116  S    
H68   O59   S    
O33   Zn6   S    
C107  H8    S    
C93   C131  A    
C130  H1    S    
C109  H10   S    
C4    C8    A    
H60   O51   S    
O12   Zn5   S    
C112  O40   A    
C87   C127  S    
C49   O10   A    
C121  O22   A    
C7    C11   A    
C59   C64   A    
C102  C114  S    
C131  C135  A    
C10   C15   A    
C113  O56   A    
O67   Zn4   S    
C78   C93   S    
C96   C100  D    
C134  O53   S    
C117  O72   A    
O40   Zn12  S    
C92   N4    A    
C112  O45   A    
H70   O61   S    
C6    C136  A    
O24   Zn5   S    
C2    N1    A    
C32   H43   S    
C103  C108  D    
C15   C104  A    
C82   C130  A    
H72   O63   S    
C129  O35   A    
O17   Zn7   S    
H62   O53   S    
H57   O48   S    
O18   Zn8   S    
C86   C125  S    
C24   N10   A    
N2    N6    A    
C50   H21   S    
O38   Zn10  S    
C63   C67   A    
O71   Zn3   S    
C116  O71   A    
C68   C73   A    
O16   Zn6   S    
C60   O23   A    
C98   H4    S    
C3    C133  A    
C68   C91   S    
C118  O2    A    
C124  O30   A    
C33   C34   A    
C85   O48   S    
C12   C82   A    
C131  H12   S    
C54   H26   S    
O34   Zn7   S    
C30   C66   S    
C1    O9    A    
C74   H56   S    
C40   C41   A    
H53   O44   S    
C121  O27   A    
C45   C54   S    
C80   O17   A    
C125  O36   A    
C79   C104  S    
C3    O57   S    
C110  H11   S    
N4    N8    A    
C49   O12   A    
C54   C58   D    
H65   O57   S    
O39   Zn11  S    
C126  N12   A    
O32   Zn5   S    
O8    Zn12  S    
C49   C56   S    
C91   N16   A    
C79   O16   A    
H69   O60   S    
C59   C86   A    
C88   C128  S    
C120  O4    A    
C53   H25   S    
C47   H19   S    
C123  O29   A    
C34   H46   S    
C23   C25   A    
H71   O62   S    
C97   C101  D    
H61   O52   S    
C39   H49   S    
C62   H29   S    
C70   C75   A    
C106  C110  D    
C100  O50   S    
C27   C28   A    
O11   Zn10  S    
C22   H36   S    
C52   C56   D    
