data_mof_unit_10572.cif
_audit_creation_date              2012-12-11T15:39:32-0500
_audit_creation_method            fapswitch 2.2
_symmetry_space_group_name_H-M    P1
_symmetry_Int_Tables_number       1
_space_group_crystal_system       triclinic
_cell_length_a                    14.305559
_cell_length_b                    14.794108
_cell_length_c                    33.100075
_cell_angle_alpha                 98.094184
_cell_angle_beta                  90.250183
_cell_angle_gamma                 118.636319
_cell_volume                      6066.25632292

loop_
_atom_site_label
_atom_site_type_symbol
_atom_type_description
_atom_site_fract_x
_atom_site_fract_y
_atom_site_fract_z
_atom_type_partial_charge
C1    C     C_R   0.617474 0.909531 0.437258 0.535899
C2    C     C_R   0.712341 0.437266 0.949086 0.544611
C3    C     C_R   0.552890 0.772160 0.765038 -0.150489
C4    C     C_R   0.559134 0.784531 0.724114 -0.150834
C5    C     C_R   0.616711 0.748741 0.698779 0.010141
C6    C     C_R   0.662493 0.692829 0.713915 0.162271
C7    C     C_R   0.654484 0.678748 0.755461 0.181069
C8    C     C_R   0.603348 0.722862 0.781351 0.024310
C9    C     C_R   0.563448 0.712795 0.624130 -0.129038
C10   C     C_R   0.567586 0.748917 0.586831 0.101270
C11   C     C_R   0.715482 0.918052 0.617275 0.094681
C12   C     C_1   0.548718 0.324602 0.094460 0.228332
C13   C     C_R   0.711089 0.738490 0.949612 0.543991
C14   C     C_1   0.935973 0.557721 0.198663 0.206424
C15   C     C_1   0.825800 0.306478 0.439301 0.203009
C16   C     C_3   0.304843 0.715462 0.155058 -0.285048
C17   C     C_1   0.234664 0.732869 0.287857 0.220404
C18   C     C_3   0.172680 0.627130 0.378824 -0.271310
C19   C     C_3   0.246782 0.116243 0.418585 -0.242621
C20   C     C_3   0.034395 0.973649 0.329675 -0.281694
C21   C     C_1   0.868455 0.997742 0.203797 0.197575
C22   C     C_1   0.487438 0.680032 0.303131 0.175202
C23   C     C_3   0.924384 0.402355 0.623272 -0.315407
C24   C     C_R   0.837493 0.495663 0.172818 -0.017373
C25   C     C_3   0.392174 0.313765 0.637618 -0.272868
C26   C     C_1   0.483643 0.281659 0.707296 0.190506
C27   C     C_3   0.053504 0.513054 0.855122 -0.316375
C28   C     C_3   0.210809 0.643956 0.671405 -0.308406
C29   C     C_3   0.295564 0.086809 0.890779 -0.297221
C30   C     C_1   0.186854 0.026556 0.676191 0.204001
C31   C     C_1   0.217088 0.031568 0.591640 0.242963
C32   C     C_3   0.260084 0.650822 0.574429 -0.246309
C33   C     C_1   0.818478 0.299218 0.221396 0.208582
C34   C     C_3   0.667021 0.555681 0.666166 -0.310025
C35   C     C_R   0.836747 0.507889 0.132017 -0.140928
C36   C     C_3   0.813800 0.689352 0.785923 -0.288320
C37   C     C_3   0.556008 0.653985 0.519635 -0.286874
C38   C     C_1   0.730075 0.923058 0.834943 0.182133
C39   C     C_1   0.549637 0.296614 0.178384 0.214289
C40   C     C_3   0.778614 0.101208 0.638071 -0.265780
C41   C     C_R   0.778031 0.356810 0.247685 0.011565
C42   C     C_R   0.770708 0.346562 0.288963 -0.108108
C43   C     C_R   0.727312 0.397949 0.314912 0.016417
C44   C     C_R   0.695280 0.463367 0.299575 -0.110926
C45   C     C_R   0.702762 0.474169 0.258454 -0.107918
C46   C     C_R   0.741958 0.419529 0.232239 0.019484
C47   C     C_R   0.742327 0.427591 0.188427 -0.015169
C48   C     C_R   0.600976 0.343149 0.368898 -0.121470
C49   C     C_R   0.594907 0.207029 0.457140 0.534356
C50   C     C_R   0.569406 0.296253 0.403556 -0.140632
C51   C     C_R   0.746217 0.315195 0.415642 -0.019199
C52   C     C_R   0.777064 0.362191 0.380711 -0.125511
C53   C     C_R   0.703329 0.371932 0.356222 0.017377
C54   C     C_R   0.639076 0.276208 0.426061 0.006209
C55   C     C_R   0.240266 0.873642 0.392949 -0.002431
C56   C     C_R   0.203327 0.941879 0.382751 0.131048
C57   C     C_R   0.184568 0.945790 0.341257 0.155624
C58   C     C_R   0.713472 0.878102 0.653450 -0.127959
C59   C     C_R   0.202261 0.881682 0.310132 -0.027553
C60   C     C_R   0.226331 0.805468 0.320062 -0.030179
C61   C     C_R   0.293860 0.891586 0.434431 0.553506
C62   C     C_R   0.242921 0.799405 0.361296 0.086197
C63   C     C_R   0.209022 0.819837 0.162593 0.172931
C64   C     C_R   0.174544 0.793169 0.120537 -0.095601
C65   C     C_R   0.093551 0.905118 0.128952 -0.131618
C66   C     C_R   0.125042 0.930496 0.170694 -0.132871
C67   C     C_R   0.178431 0.885008 0.187798 0.049899
C68   C     C_1   0.187858 0.892939 0.231553 0.004738
C69   C     C_R   0.633658 0.778405 0.657756 -0.024206
C70   C     C_1   0.193711 0.891272 0.267658 -0.004715
C71   C     C_R   0.113215 0.832101 0.103974 -0.011430
C72   C     C_R   0.640378 0.875436 0.396330 0.005571
C73   C     C_R   0.614898 0.903920 0.551183 0.555634
C74   C     C_R   0.561183 0.786363 0.370922 -0.138585
C75   C     C_R   0.572386 0.769168 0.328985 -0.005414
C76   C     C_R   0.663783 0.841649 0.312586 0.024646
C77   C     C_R   0.746612 0.924895 0.338415 -0.134864
C78   C     C_R   0.735502 0.941429 0.380067 -0.130660
C79   C     C_R   0.781791 0.915854 0.175998 0.004841
C80   C     C_R   0.636577 0.856210 0.584518 0.062551
C81   C     C_R   0.795514 0.904979 0.134124 -0.124873
C82   C     C_R   0.618163 0.754337 0.121273 -0.131012
C83   C     C_R   0.604056 0.765106 0.162883 -0.127496
C84   C     C_R   0.686970 0.842863 0.190441 0.024651
C85   C     C_R   0.591488 0.204156 0.570380 0.525670
C86   C     C_1   0.676917 0.840692 0.233349 -0.008951
C87   C     C_1   0.670281 0.839026 0.269341 -0.008710
C88   C     C_R   0.715943 0.821000 0.106827 0.007689
C89   C     C_R   0.627440 0.266952 0.612672 -0.004274
C90   C     C_R   0.551688 0.280723 0.637074 0.107316
C91   C     C_R   0.052553 0.781755 0.063712 0.535651
C92   C     C_R   0.565452 0.288267 0.680302 0.003471
C93   C     C_R   0.660998 0.299790 0.698030 -0.042610
C94   C     C_R   0.744997 0.312761 0.673900 -0.123844
C95   C     C_R   0.730930 0.300683 0.630939 0.090981
C96   C     C_R   0.763292 0.330468 0.846400 -0.106862
C97   C     C_R   0.288621 0.887088 0.548939 0.553209
C98   C     C_R   0.770248 0.359507 0.888845 -0.111442
C99   C     C_R   0.597837 0.352514 0.883088 -0.137411
C100  C     C_R   0.591384 0.323974 0.840672 -0.113278
C101  C     C_R   0.675987 0.317000 0.822135 0.039423
C102  C     C_R   0.744042 0.486526 0.066036 0.548348
C103  C     C_1   0.677506 0.307690 0.778330 -0.014554
C104  C     C_1   0.674372 0.303707 0.741698 -0.022412
C105  C     C_R   0.689849 0.375688 0.907436 0.018794
C106  C     C_R   0.087022 0.767094 0.912377 -0.006885
C107  C     C_R   0.125582 0.871281 0.906745 -0.119211
C108  C     C_R   0.165764 0.904333 0.870091 0.141034
C109  C     C_R   0.741683 0.454778 0.106285 -0.015703
C110  C     C_R   0.165346 0.830580 0.838135 -0.002939
C111  C     C_R   0.138127 0.729888 0.844937 -0.122577
C112  C     C_R   0.099681 0.696705 0.882172 0.128960
C113  C     C_R   0.742811 0.789544 0.066331 0.541420
C114  C     C_R   0.262333 0.852314 0.775027 -0.121009
C115  C     C_R   0.263832 0.857159 0.733315 -0.096800
C116  C     C_R   0.177927 0.855894 0.712094 0.047606
C117  C     C_R   0.093891 0.856756 0.733267 -0.106261
C118  C     C_R   0.094261 0.855467 0.775196 -0.120843
C119  C     C_R   0.176883 0.850469 0.795924 0.019752
C120  C     C_R   0.190984 0.940446 0.650722 -0.053823
C121  C     C_R   0.646361 0.383508 0.121244 -0.033848
C122  C     C_R   0.212283 0.945410 0.609484 -0.071592
C123  C     C_R   0.193672 0.770576 0.600966 0.146480
C124  C     C_R   0.023744 0.733184 0.947800 0.554853
C125  C     C_R   0.168945 0.764625 0.641959 0.139191
C126  C     C_R   0.177130 0.853123 0.667528 -0.026532
C127  C     C_R   0.226788 0.865749 0.585867 -0.020389
C128  C     C_R   0.664078 0.737653 0.909650 0.003699
C129  C     C_R   0.592873 0.642307 0.885173 -0.132570
C130  C     C_R   0.568830 0.638457 0.843799 -0.108169
C131  C     C_R   0.614479 0.729851 0.826334 0.030585
C132  C     C_R   0.679923 0.826795 0.851513 -0.011984
C133  C     C_R   0.646914 0.369504 0.162476 -0.023894
C134  C     C_R   0.704215 0.829955 0.892834 -0.130381
Cr1   Cr    Cr6+3 0.424820 0.846020 0.489780 1.029183
Cr2   Cr    Cr6+3 0.657880 0.078580 0.505700 1.058503
Cr3   Cr    Cr6+3 0.417280 0.075360 0.504550 1.027702
Cr4   Cr    Cr6+3 0.903360 0.812540 0.006510 1.023858
Cr5   Cr    Cr6+3 0.914630 0.587050 0.006280 1.022087
Cr6   Cr    Cr6+3 0.673560 0.582680 0.008540 1.030156
H1    H     H_    0.487952 0.270048 0.411224 0.121958
H2    H     H_    0.530783 0.708924 0.173823 0.122594
H3    H     H_    0.555378 0.689301 0.100826 0.129673
H4    H     H_    0.842041 0.376404 0.906676 0.136731
H5    H     H_    0.857513 0.387534 0.371609 0.108118
H6    H     H_    0.828572 0.324173 0.832329 0.109605
H7    H     H_    0.820182 0.329342 0.688825 0.119334
H8    H     H_    0.523135 0.313298 0.822128 0.134389
H9    H     H_    0.534577 0.364261 0.896287 0.123079
H10   H     H_    0.119428 0.926561 0.930293 0.142596
H11   H     H_    0.793861 0.294336 0.300384 0.116842
H12   H     H_    0.190448 0.738352 0.100714 0.123287
H13   H     H_    0.330314 0.858770 0.717268 0.105458
H14   H     H_    0.326292 0.848106 0.790810 0.105216
H15   H     H_    0.027682 0.856733 0.717243 0.114765
H16   H     H_    0.028703 0.855194 0.791447 0.112864
H17   H     H_    0.142445 0.676467 0.820056 0.113972
H18   H     H_    0.561593 0.569729 0.897205 0.130328
H19   H     H_    0.759238 0.904031 0.911356 0.136164
H20   H     H_    0.770487 0.927504 0.679242 0.129493
H21   H     H_    0.523066 0.826673 0.712556 0.116921
H22   H     H_    0.512834 0.805479 0.784587 0.118742
H23   H     H_    0.101730 0.980516 0.190070 0.139380
H24   H     H_    0.518625 0.563522 0.824900 0.129777
H25   H     H_    0.503863 0.634124 0.627178 0.100048
H26   H     H_    0.661954 0.503838 0.319169 0.114294
H27   H     H_    0.675697 0.523243 0.246755 0.125194
H28   H     H_    0.542697 0.350045 0.350442 0.119786
H29   H     H_    0.320013 0.825087 0.205562 0.264440
H30   H     H_    0.347663 0.689607 0.174635 0.162240
H31   H     H_    0.360750 0.762522 0.133691 0.134327
H32   H     H_    0.236145 0.644264 0.137885 0.161580
H33   H     H_    0.314288 0.704765 0.351659 0.258091
H34   H     H_    0.045918 0.935868 0.117011 0.140134
H35   H     H_    0.117408 0.587502 0.350619 0.148979
H36   H     H_    0.130155 0.646612 0.403670 0.159437
H37   H     H_    0.197971 0.572860 0.388668 0.144307
H38   H     H_    0.156230 0.974687 0.440798 0.248858
H39   H     H_    0.294419 0.146514 0.448672 0.154310
H40   H     H_    0.194689 0.152389 0.417330 0.151498
H41   H     H_    0.302542 0.139770 0.394069 0.156875
H42   H     H_    0.181778 0.051160 0.306426 0.255790
H43   H     H_    0.014369 0.034808 0.323977 0.149441
H44   H     H_    0.003743 0.948666 0.359205 0.174329
H45   H     H_    0.910027 0.563870 0.120873 0.144610
H46   H     H_    0.994645 0.906063 0.304455 0.147024
H47   H     H_    0.804422 0.328442 0.576353 0.266961
H48   H     H_    0.981675 0.417929 0.599227 0.148638
H49   H     H_    0.953816 0.376731 0.648025 0.140807
H50   H     H_    0.923116 0.475874 0.635030 0.155129
H51   H     H_    0.495038 0.331332 0.592122 0.253653
H52   H     H_    0.342255 0.324568 0.615005 0.140114
H53   H     H_    0.432849 0.386961 0.660116 0.128953
H54   H     H_    0.336991 0.246453 0.652059 0.208981
H55   H     H_    0.110901 0.591868 0.914787 0.266419
H56   H     H_    0.871403 0.957029 0.123437 0.131493
H57   H     H_    0.019275 0.436525 0.865877 0.140204
H58   H     H_    0.130598 0.528851 0.842368 0.134824
H59   H     H_    0.996121 0.508179 0.831062 0.152839
H60   H     H_    0.068971 0.651101 0.675545 0.246734
H61   H     H_    0.213144 0.649574 0.705248 0.134439
H62   H     H_    0.291938 0.697635 0.663016 0.143330
H63   H     H_    0.189037 0.562626 0.658043 0.141940
H64   H     H_    0.203334 0.023977 0.835549 0.269710
H65   H     H_    0.314481 0.166300 0.885782 0.144925
H66   H     H_    0.364483 0.074524 0.882774 0.152258
H67   H     H_    0.817442 0.980629 0.325988 0.120136
H68   H     H_    0.283211 0.082263 0.923682 0.156141
H69   H     H_    0.100517 0.615730 0.574059 0.257238
H70   H     H_    0.235165 0.580616 0.589111 0.107460
H71   H     H_    0.335641 0.715857 0.590754 0.166478
H72   H     H_    0.275470 0.631518 0.542401 0.173022
H73   H     H_    0.774432 0.713464 0.671477 0.253174
H74   H     H_    0.612696 0.552758 0.641383 0.138914
H75   H     H_    0.619528 0.499350 0.686470 0.155563
H76   H     H_    0.724109 0.532123 0.652196 0.150987
H77   H     H_    0.686898 0.556037 0.753916 0.264818
H78   H     H_    0.798481 0.010116 0.398934 0.146983
H79   H     H_    0.841680 0.643410 0.801243 0.148450
H80   H     H_    0.826346 0.758397 0.808291 0.162249
H81   H     H_    0.861616 0.715390 0.759442 0.155542
H82   H     H_    0.436714 0.610475 0.559388 0.226972
H83   H     H_    0.497773 0.601680 0.493407 0.132941
H84   H     H_    0.597954 0.614055 0.530488 0.131946
H85   H     H_    0.614915 0.726264 0.508690 0.154540
H86   H     H_    0.871673 0.032777 0.621335 0.252842
H87   H     H_    0.778216 0.095519 0.671200 0.121041
H88   H     H_    0.701499 0.094016 0.627068 0.184759
H89   H     H_    0.488257 0.733687 0.383209 0.130666
H90   H     H_    0.844671 0.178641 0.634262 0.179208
N1    N     N_1   0.470745 0.277520 0.073088 -0.282814
N2    N     N_1   0.419500 0.608494 0.282406 -0.278540
N3    N     N_2   0.818775 0.321836 0.606047 -0.511889
N4    N     N_2   0.469330 0.291797 0.616631 -0.486694
N5    N     N_1   0.419413 0.276674 0.729384 -0.305448
N6    N     N_2   0.070520 0.593545 0.889268 -0.492521
N7    N     N_2   0.130827 0.668000 0.656858 -0.522774
N8    N     N_2   0.200483 0.009922 0.865239 -0.514257
N9    N     N_1   0.183087 0.094904 0.696523 -0.290058
N10   N     N_1   0.220211 0.099810 0.577274 -0.299119
N11   N     N_2   0.175764 0.678590 0.574031 -0.483822
N12   N     N_1   0.014763 0.607589 0.219365 -0.257858
N13   N     N_1   0.850848 0.253060 0.200318 -0.266076
N14   N     N_2   0.725444 0.659999 0.689190 -0.528715
N15   N     N_2   0.702069 0.625041 0.771963 -0.508654
N16   N     N_2   0.500001 0.677384 0.552243 -0.509326
N17   N     N_1   0.770240 0.000120 0.821644 -0.307031
N18   N     N_1   0.472095 0.238462 0.191109 -0.279651
N19   N     N_2   0.795808 0.021174 0.614687 -0.491813
N20   N     N_1   0.889710 0.299630 0.458214 -0.309609
N21   N     N_2   0.267543 0.777362 0.180664 -0.483065
N22   N     N_1   0.241384 0.674760 0.262302 -0.240672
N23   N     N_2   0.265708 0.720571 0.370934 -0.483087
N24   N     N_2   0.180644 0.003925 0.413975 -0.498333
N25   N     N_2   0.149004 0.015625 0.331303 -0.499551
N26   N     N_1   0.937865 0.063232 0.226092 -0.298559
O1    O     O_R   0.318160 0.824460 0.443680 -0.475034
O2    O     O_R   0.668160 0.499860 0.053480 -0.494148
O3    O     O_R   0.689170 0.693840 0.050110 -0.498693
O4    O     O_R   0.525040 0.857250 0.449830 -0.500240
O5    O     O_R   0.803860 0.812940 0.962540 -0.509389
O6    O     O_R   0.982950 0.787950 0.964120 -0.504407
O7    O     O_R   0.007050 0.649970 0.960540 -0.499045
O8    O     O_R   0.807910 0.482370 0.965590 -0.494858
O9    O     O_R   0.643310 0.460980 0.963840 -0.515499
O10   O     O_R   0.666140 0.657800 0.967020 -0.502279
O11   O     O_3   0.830520 0.660760 0.007110 -0.242403
O12   O     O_R   0.645130 0.163230 0.552140 -0.491121
O13   O     O_R   0.684760 0.998800 0.456360 -0.506590
O14   O     O_R   0.647540 0.166310 0.470260 -0.481339
O15   O     O_R   0.500960 0.181750 0.467450 -0.534206
O16   O     O_R   0.331100 0.981120 0.457080 -0.500220
O17   O     O_R   0.315560 0.821140 0.532010 -0.489949
O18   O     O_R   0.522630 0.854180 0.531710 -0.480380
O19   O     O_R   0.682160 0.995480 0.544690 -0.474720
O20   O     O_R   0.498360 0.178430 0.555780 -0.484743
O21   O     O_R   0.328690 0.978040 0.538950 -0.487112
O22   O     O_3   0.499990 0.999990 0.500010 -0.251508
O23   O     O_R   0.828710 0.851830 0.052170 -0.516468
O24   O     O_R   0.005980 0.823990 0.047210 -0.498547
O25   O     O_R   0.031900 0.688850 0.050170 -0.523451
O26   O     O_R   0.830940 0.518420 0.048680 -0.502465

loop_
_geom_bond_atom_site_label_1
_geom_bond_atom_site_label_2
_ccdc_geom_bond_type
C26   N5    T    
C13   O5    A    
H86   N19   S    
C63   N21   S    
C31   N10   T    
C40   H88   S    
C93   C94   A    
Cr6   O3    S    
Cr5   O7    S    
C65   H34   S    
C62   N23   S    
Cr1   O22   S    
C41   C42   A    
C102  O26   A    
C102  O2    A    
C111  C112  A    
C27   H57   S    
C100  C101  A    
C61   O1    A    
C30   N9    T    
C55   C56   A    
C109  C121  A    
C13   O10   A    
C19   H41   S    
C32   N11   S    
C114  C115  A    
Cr3   O15   S    
C125  N7    S    
C7    C8    A    
C106  C112  A    
C45   C46   A    
C56   C57   A    
H51   N4    S    
C131  C132  A    
C99   H9    S    
Cr3   O21   S    
Cr1   O4    S    
C50   C54   A    
C98   C105  A    
Cr6   O2    S    
C64   H12   S    
C28   H61   S    
C84   C86   S    
C56   N24   S    
C34   H75   S    
C77   H67   S    
C5    C6    A    
C32   H72   S    
C120  C126  A    
C123  C125  A    
C1    O13   A    
C106  C107  A    
C26   C92   S    
C49   C54   S    
C55   C62   A    
C122  C127  A    
C29   H65   S    
C116  C117  A    
C90   N4    S    
C2    C105  S    
C60   C62   A    
C128  C129  A    
C64   C71   A    
C14   C24   S    
C88   C113  S    
C97   O21   A    
C118  C119  A    
C41   C46   A    
C5    C69   S    
C39   N18   T    
C3    H22   S    
H60   N7    S    
C13   C128  S    
C123  C127  A    
C43   C53   S    
C2    O8    A    
C12   C121  S    
Cr4   O6    S    
C18   H37   S    
H33   N23   S    
C96   C98   A    
C117  H15   S    
C72   C78   A    
C107  C108  A    
C118  H16   S    
Cr2   O13   S    
C10   N16   S    
C15   C51   S    
C11   C58   A    
C9    C10   A    
C113  O23   A    
C61   O16   A    
C114  C119  A    
C35   C109  A    
C50   H1    S    
C97   C127  S    
C20   H44   S    
C1    O4    A    
C98   H4    S    
C18   H35   S    
C48   C50   A    
C134  H19   S    
C59   C60   A    
C101  C103  S    
C116  C126  S    
Cr5   O8    S    
C47   C133  A    
C51   C54   A    
C36   N15   S    
C107  H10   S    
C85   O12   A    
C6    N14   S    
C94   C95   A    
C27   H58   S    
C22   C75   S    
C74   H89   S    
C36   H79   S    
C129  H18   S    
C16   N21   S    
C120  C122  A    
C91   O25   A    
C19   H40   S    
C18   N23   S    
C48   C53   A    
C99   C105  A    
C14   N12   T    
C63   C67   A    
Cr3   O22   S    
Cr1   O1    S    
C24   C35   A    
C74   C75   A    
Cr5   O25   S    
C34   N14   S    
C67   C68   S    
C1    C72   S    
C27   H59   S    
C76   C77   A    
C37   H83   S    
Cr4   O23   S    
H64   N8    S    
C3    C8    A    
C34   H74   S    
H69   N11   S    
C79   C81   A    
C52   H5    S    
C85   C89   S    
C86   C87   T    
C82   H3    S    
C21   N26   T    
C17   C60   S    
C124  O7    A    
C77   C78   A    
C2    O9    A    
C82   C83   A    
C37   N16   S    
C110  C111  A    
Cr1   O17   S    
C38   C132  S    
C57   N25   S    
Cr2   O22   S    
C75   C76   A    
C11   N19   S    
C79   C84   A    
H42   N25   S    
C128  C134  A    
C28   N7    S    
C32   H70   S    
C16   H32   S    
C19   N24   S    
C90   C92   A    
C83   C84   A    
C48   H28   S    
Cr4   O5    S    
C124  O6    A    
C73   O18   A    
C35   H45   S    
C89   C95   A    
C21   C79   S    
C8    C131  S    
Cr6   O11   S    
C29   H68   S    
C12   N1    T    
C44   H26   S    
C71   C91   S    
Cr3   O16   S    
C42   H11   S    
C45   H27   S    
C76   C87   S    
H47   N3    S    
C27   N6    S    
C20   H43   S    
C93   C104  S    
C49   O15   A    
C72   C74   A    
C108  N8    S    
C25   N4    S    
C37   H85   S    
C43   C44   A    
C125  C126  A    
C9    C69   A    
Cr6   O10   S    
H55   N6    S    
C33   N13   T    
Cr2   O19   S    
C42   C43   A    
C40   H90   S    
C3    C4    A    
C19   H39   S    
C29   N8    S    
C123  N11   S    
C25   H53   S    
C52   C53   A    
C49   O14   A    
C20   N25   S    
C129  C130  A    
C39   C133  S    
C130  H24   S    
C94   H7    S    
C32   H71   S    
Cr5   O11   S    
C46   C47   S    
C36   H80   S    
C112  N6    S    
C17   N22   T    
Cr5   O26   S    
Cr4   O24   S    
Cr6   O9    S    
C28   H63   S    
H73   N14   S    
C44   C45   A    
C37   H84   S    
H77   N15   S    
C4    C5    A    
C25   H52   S    
C110  C119  S    
C83   H2    S    
Cr2   O14   S    
C85   O20   A    
C58   C69   A    
C6    C7    A    
H38   N24   S    
C15   N20   T    
C96   H6    S    
C7    N15   S    
Cr3   O20   S    
C99   C100  A    
Cr2   O12   S    
Cr1   O18   S    
C28   H62   S    
C24   C47   A    
C40   H87   S    
C10   C80   A    
C130  C131  A    
C111  H17   S    
C33   C41   S    
C51   C52   A    
C34   H76   S    
C117  C118  A    
C78   H78   S    
C81   H56   S    
C40   N19   S    
H82   N16   S    
C16   H31   S    
H29   N21   S    
C23   H48   S    
C30   C120  S    
C100  H8    S    
C73   O19   A    
C38   N17   T    
C55   C61   S    
C9    H25   S    
C92   C93   A    
C31   C122  S    
C73   C80   S    
C108  C110  A    
C66   H23   S    
C66   C67   A    
C91   O24   A    
C81   C88   A    
C57   C59   A    
C11   C80   A    
C29   H66   S    
C59   C70   S    
C20   H46   S    
C63   C64   A    
C23   N3    S    
C16   H30   S    
C65   C71   A    
C22   N2    T    
C132  C134  A    
C65   C66   A    
Cr4   O11   S    
C106  C124  S    
C103  C104  T    
C68   C70   T    
C82   C88   A    
C4    H21   S    
C102  C109  S    
C58   H20   S    
C95   N3    S    
C23   H49   S    
C121  C133  A    
C89   C90   A    
C96   C101  A    
C97   O17   A    
C36   H81   S    
C114  H14   S    
C23   H50   S    
C115  H13   S    
C25   H54   S    
C115  C116  A    
C113  O3    A    
C18   H36   S    
