data_mof_unit_34203.cif
_audit_creation_date              2012-12-10T17:12:42-0500
_audit_creation_method            fapswitch 2.2
_symmetry_space_group_name_H-M    P1
_symmetry_Int_Tables_number       1
_space_group_crystal_system       triclinic
_cell_length_a                    23.418586
_cell_length_b                    10.79964
_cell_length_c                    10.003137
_cell_angle_alpha                 90.000107
_cell_angle_beta                  90.077989
_cell_angle_gamma                 90.608452
_cell_volume                      2529.77137056

loop_
_atom_site_label
_atom_site_type_symbol
_atom_type_description
_atom_site_fract_x
_atom_site_fract_y
_atom_site_fract_z
_atom_type_partial_charge
C1    C     C_R   0.501096 0.262675 0.499889 0.940955
C2    C     C_R   0.963613 0.271257 0.502788 0.173732
C3    C     C_R   0.023644 0.264654 0.493745 0.150469
C4    C     C_R   0.057055 0.374549 0.503533 -0.087957
C5    C     C_R   0.029811 0.489473 0.524607 -0.069042
C6    C     C_R   0.062675 0.597992 0.543077 -0.020471
C7    C     C_R   0.036348 0.709435 0.574741 -0.204130
C8    C     C_R   0.977082 0.717349 0.584850 0.166485
C9    C     C_R   0.117325 0.373883 0.498577 0.532851
C10   C     C_R   0.121899 0.592343 0.533650 0.492659
C11   C     C_R   0.236703 0.491109 0.380249 0.215910
C12   C     C_R   0.389274 0.498394 0.499998 0.887687
C13   C     C_R   0.296350 0.496890 0.379997 -0.232084
C14   C     C_R   0.326985 0.491908 0.500526 -0.076522
C15   C     C_R   0.297802 0.478987 0.622032 -0.212631
C16   C     C_R   0.238752 0.472855 0.623340 -0.133021
C17   C     C_R   0.208178 0.479792 0.503747 0.291190
C18   C     C_R   0.763127 0.509392 0.383811 -0.094806
C19   C     C_R   0.703803 0.504986 0.381206 -0.216530
C20   C     C_R   0.672989 0.507304 0.501506 -0.040119
C21   C     C_R   0.702152 0.516366 0.623951 -0.211154
C22   C     C_R   0.761317 0.520943 0.626133 -0.120925
C23   C     C_R   0.498924 0.737321 0.499954 0.937248
C24   C     C_R   0.791723 0.516512 0.506358 0.329386
C25   C     C_2   0.501919 0.933196 0.387816 -0.151729
C26   C     C_2   0.494026 0.868559 0.500219 -0.325921
C27   C     C_2   0.498512 0.066752 0.387724 -0.150207
C28   C     C_2   0.506128 0.131452 0.500221 -0.325114
C29   C     C_2   0.534169 0.569093 0.924959 -0.125997
C30   C     C_2   0.536383 0.563567 0.075179 -0.130412
C31   C     C_R   0.610715 0.501545 0.500165 0.872560
C32   C     C_R   0.882798 0.616186 0.538349 0.489026
C33   C     C_R   0.877480 0.399371 0.493485 0.519231
C34   C     C_R   0.936847 0.388047 0.507055 -0.082119
C35   C     C_R   0.969806 0.496648 0.526765 -0.098495
C36   C     C_R   0.942821 0.612120 0.550331 -0.017524
H1    H     H_    0.682207 0.498561 0.285609 0.160384
H2    H     H_    0.679388 0.519049 0.718068 0.161642
H3    H     H_    0.783712 0.525626 0.720836 0.128590
H4    H     H_    0.510304 0.887873 0.292957 0.173272
H5    H     H_    0.482298 0.910596 0.594476 0.152824
H6    H     H_    0.490300 0.112005 0.292696 0.173331
H7    H     H_    0.517718 0.089464 0.594673 0.151841
H8    H     H_    0.563338 0.632647 0.875177 0.158935
H9    H     H_    0.475192 0.436037 0.897796 0.161864
H10   H     H_    0.569621 0.616919 0.125103 0.158037
H11   H     H_    0.467145 0.456352 0.102024 0.160891
H12   H     H_    0.062396 0.790620 0.596209 0.188350
H13   H     H_    0.318664 0.506838 0.285702 0.165144
H14   H     H_    0.320493 0.474079 0.716267 0.167691
H15   H     H_    0.216417 0.464579 0.717730 0.141500
H16   H     H_    0.786948 0.505359 0.291232 0.134829
N1    N     N_R   0.852392 0.511168 0.510630 -0.360584
N2    N     N_R   0.147522 0.481982 0.510429 -0.363941
N3    N     N_2   0.500610 0.501330 0.852150 -0.192335
N4    N     N_2   0.500630 0.501360 0.147810 -0.193579
O1    O     O_R   0.499990 0.319060 0.613040 -0.617375
O2    O     O_2   0.844637 0.300328 0.460959 -0.523047
O3    O     O_2   0.146024 0.267239 0.483149 -0.530088
O4    O     O_2   0.153998 0.696223 0.547598 -0.558835
O5    O     O_R   0.500010 0.319100 0.386900 -0.612526
O6    O     O_R   0.416150 0.499940 0.613100 -0.618316
O7    O     O_R   0.416160 0.499980 0.386960 -0.622505
O8    O     O_R   0.499990 0.680900 0.613100 -0.614714
O9    O     O_R   0.500010 0.680940 0.386960 -0.611850
O10   O     O_R   0.583840 0.500020 0.613040 -0.618945
O11   O     O_R   0.583850 0.500060 0.386900 -0.618639
O12   O     O_2   0.854432 0.723483 0.549702 -0.571525
Zn1   Zn    Zn3+2 0.499990 0.499970 0.650990 0.950604
Zn2   Zn    Zn3+2 0.500010 0.500030 0.349010 0.947667
N5    N     N_2   0.930088 0.161031 0.517284 -0.252218
H17   H     H_    0.944422 0.083427 0.468563 0.217406
C37   C     C_3   0.911497 0.137293 0.653032 -0.719920
H18   H     H_    0.948488 0.111071 0.716181 0.207744
H19   H     H_    0.879192 0.061469 0.653237 0.258526
H20   H     H_    0.891177 0.220280 0.697129 0.251588
N6    N     N_2   0.050379 0.147431 0.479891 -0.251752
H21   H     H_    0.035606 0.079716 0.543980 0.210433
C38   C     C_3   0.056277 0.105483 0.343217 -0.690592
H22   H     H_    0.013712 0.088187 0.297434 0.203502
H23   H     H_    0.080781 0.018045 0.341544 0.246139
H24   H     H_    0.079743 0.175714 0.282767 0.256788
C39   C     C_3   0.953852 0.836674 0.641913 -0.368579
C40   C     C_3   0.929998 0.816736 0.782723 -0.790995
H25   H     H_    0.894869 0.747118 0.783478 0.277849
H26   H     H_    0.964425 0.784535 0.850438 0.244933
H27   H     H_    0.913301 0.905165 0.822391 0.240757
H28   H     H_    0.988175 0.907934 0.650654 0.170480
H29   H     H_    0.922207 0.878227 0.573767 0.253425
C41   C     C_3   0.204816 0.500308 0.249044 -0.421407
C42   C     C_3   0.210190 0.381295 0.167981 -0.838299
H30   H     H_    0.255612 0.363282 0.143692 0.254067
H31   H     H_    0.192371 0.301577 0.224994 0.290346
H32   H     H_    0.186007 0.390253 0.072971 0.246790
H33   H     H_    0.158772 0.518765 0.264581 0.210848
H34   H     H_    0.222268 0.579379 0.190235 0.211069

loop_
_geom_bond_atom_site_label_1
_geom_bond_atom_site_label_2
_ccdc_geom_bond_type
O5    Zn2   S    
C31   O10   A    
C33   O2    S    
C8    C39   S    
C37   H18   S    
C19   C20   A    
C27   H6    S    
C16   H15   S    
C18   H16   S    
C7    C8    A    
N6    H21   S    
C31   O11   A    
C18   C24   A    
C32   C36   A    
C40   H26   S    
C18   C19   A    
C25   H4    S    
C5    C6    A    
C15   H14   S    
O10   Zn1   S    
O9    Zn2   S    
C34   C35   A    
C8    C36   A    
C23   C26   S    
C19   H1    S    
C21   H2    S    
C35   C36   A    
C16   C17   A    
C1    C28   S    
C40   H27   S    
C32   O12   S    
C2    C34   A    
C39   H28   S    
C21   C22   A    
C37   H19   S    
N6    C38   S    
C33   N1    A    
C39   H29   S    
C41   H33   S    
C40   H25   S    
C42   H30   S    
C38   H23   S    
C12   O7    A    
C29   N3    D    
C25   C26   D    
C30   N4    D    
C3    C4    A    
O6    Zn1   S    
C9    O3    S    
C10   O4    S    
C29   C30   S    
C1    O1    A    
C42   H31   S    
C12   O6    A    
C39   C40   S    
O7    Zn2   S    
C33   C34   A    
O8    Zn1   S    
N3    Zn1   S    
C13   H13   S    
C23   O8    A    
C12   C14   S    
N4    Zn2   S    
C29   H8    S    
C37   H20   S    
C22   C24   A    
C2    N5    S    
C3    N6    S    
C32   N1    A    
N5    C37   S    
C11   C17   A    
C30   H10   S    
C4    C5    A    
C1    O5    A    
C6    C10   A    
C38   H24   S    
C41   H34   S    
C6    C7    A    
C25   C27   S    
C28   H7    S    
O11   Zn2   S    
C7    H12   S    
C23   O9    A    
C2    C3    A    
C24   N1    S    
N5    H17   S    
C42   H32   S    
C11   C13   A    
C11   C41   S    
C41   C42   S    
C22   H3    S    
C5    C35   A    
C10   N2    A    
C38   H22   S    
C20   C21   A    
H9    N3    S    
C27   C28   D    
C14   C15   A    
C9    N2    A    
O1    Zn1   S    
C4    C9    A    
C13   C14   A    
C17   N2    S    
C15   C16   A    
C26   H5    S    
H11   N4    S    
C20   C31   S    
