data_mof_unit_33938.cif
_audit_creation_date              2012-12-10T17:44:31-0500
_audit_creation_method            fapswitch 2.2
_symmetry_space_group_name_H-M    P1
_symmetry_Int_Tables_number       1
_space_group_crystal_system       triclinic
_cell_length_a                    9.901803
_cell_length_b                    10.714871
_cell_length_c                    15.497687
_cell_angle_alpha                 92.510074
_cell_angle_beta                  68.315623
_cell_angle_gamma                 91.795762
_cell_volume                      1526.22351092

loop_
_atom_site_label
_atom_site_type_symbol
_atom_type_description
_atom_site_fract_x
_atom_site_fract_y
_atom_site_fract_z
_atom_type_partial_charge
C1    C     C_R   0.507220 0.738531 0.490410 0.855833
C2    C     C_R   0.380529 0.452179 0.924050 0.018348
C3    C     C_R   0.258986 0.528742 0.970262 0.133723
C4    C     C_R   0.451933 0.399126 0.977749 0.068922
C5    C     C_R   0.432890 0.453068 0.066284 -0.014909
C6    C     C_R   0.305658 0.524464 0.112977 -0.045626
C7    C     C_R   0.220564 0.560661 0.064217 -0.251833
C8    C     C_R   0.536858 0.290930 0.948022 -0.160526
C9    C     C_R   0.629102 0.256834 0.991593 -0.201327
C10   C     C_R   0.637323 0.329245 0.066390 0.152119
C11   C     C_R   0.539996 0.428905 0.104278 0.122694
C12   C     C_R   0.409450 0.497102 0.675810 0.882586
C13   C     C_R   0.740699 0.302135 0.104319 -0.216179
C14   C     C_R   0.744613 0.368686 0.183115 -0.122357
C15   C     C_R   0.555980 0.502900 0.176886 -0.178118
C16   C     C_R   0.334167 0.864730 0.402523 -0.202191
C17   C     C_R   0.208392 0.914657 0.399435 -0.133059
C18   C     C_R   0.159587 0.030106 0.443345 0.253945
C19   C     C_R   0.246152 0.099208 0.483133 -0.247999
C20   C     C_R   0.381823 0.053821 0.479217 0.072217
C21   C     C_R   0.413096 0.928983 0.450839 0.098671
C22   C     C_R   0.517827 0.870236 0.476169 -0.104238
C23   C     C_R   0.494925 0.259374 0.503366 0.919698
C24   C     C_R   0.615484 0.939360 0.505267 -0.225837
C25   C     C_R   0.602137 0.066084 0.517087 -0.183858
C26   C     C_R   0.487140 0.124811 0.504152 -0.102988
C27   C     C_R   0.798161 0.670457 0.617853 -0.156002
C28   C     C_R   0.835734 0.752195 0.679173 0.266310
C29   C     C_R   0.976554 0.749826 0.678324 -0.263557
C30   C     C_R   0.077164 0.666743 0.619512 -0.174140
C31   C     C_R   0.042195 0.584444 0.557399 0.153410
C32   C     C_R   0.897939 0.585212 0.557029 0.118603
C33   C     C_R   0.954723 0.414357 0.449558 -0.067674
C34   C     C_R   0.591052 0.496523 0.323742 0.859537
C35   C     C_R   0.096927 0.413043 0.450934 -0.070224
C36   C     C_R   0.352049 0.493297 0.777517 -0.140902
C37   C     C_R   0.643537 0.465000 0.223445 -0.175301
C38   C     C_R   0.176218 0.572909 0.922348 -0.175552
C39   C     C_R   0.220853 0.553067 0.827019 -0.203227
C40   C     C_R   0.432650 0.440572 0.825463 -0.087297
H1    H     H_    0.122880 0.613803 0.099865 0.171055
H2    H     H_    0.816632 0.227142 0.073616 0.161821
H3    H     H_    0.699524 0.895397 0.521905 0.180686
H4    H     H_    0.367373 0.774255 0.368565 0.172092
H5    H     H_    0.145287 0.859851 0.367227 0.167539
H6    H     H_    0.200003 0.183525 0.521602 0.166175
H7    H     H_    0.681240 0.117894 0.538147 0.181784
H8    H     H_    0.922481 0.344890 0.408098 0.193323
H9    H     H_    0.690490 0.674015 0.619824 0.206672
H10   H     H_    0.492987 0.586280 0.203004 0.132682
H11   H     H_    0.007614 0.810455 0.725924 0.146737
H12   H     H_    0.179462 0.666264 0.627409 0.210260
H13   H     H_    0.171192 0.341341 0.411312 0.189924
H14   H     H_    0.697020 0.175875 0.964995 0.145725
H15   H     H_    0.079347 0.626811 0.958230 0.145176
H16   H     H_    0.157828 0.592809 0.791154 0.164261
H17   H     H_    0.531496 0.230823 0.891519 0.154768
N1    N     N_R   0.856800 0.501200 0.500850 -0.120659
N2    N     N_R   0.142390 0.501280 0.500880 -0.127514
O1    O     O_R   0.385310 0.683220 0.500000 -0.643340
O2    O     O_R   0.614640 0.683250 0.500010 -0.643533
O3    O     O_R   0.319840 0.499980 0.632240 -0.631058
O4    O     O_R   0.549160 0.500000 0.632250 -0.611247
O5    O     O_R   0.385360 0.316750 0.499990 -0.635975
O6    O     O_R   0.614690 0.316780 0.500000 -0.607377
O7    O     O_R   0.450840 0.500000 0.367750 -0.571075
O8    O     O_R   0.680160 0.500020 0.367760 -0.601316
Zn1   Zn    Zn3+2 0.346880 0.499980 0.499990 0.948670
Zn2   Zn    Zn3+2 0.653120 0.500020 0.500010 0.965478
N3    N     N_2   0.020867 0.074330 0.451620 -0.344830
H18   H     H_    0.984440 0.150424 0.496600 0.203240
C41   C     C_3   0.997634 0.084975 0.365373 -0.702146
H19   H     H_    0.887255 0.121086 0.380372 0.261657
H20   H     H_    0.004102 0.992594 0.329041 0.252517
H21   H     H_    0.079017 0.150632 0.319443 0.266480
N4    N     N_2   0.733928 0.834251 0.745083 -0.300339
H22   H     H_    0.775416 0.918372 0.760096 0.222865
C42   C     C_3   0.582982 0.833778 0.754301 -0.775789
H23   H     H_    0.520899 0.897178 0.813353 0.247273
H24   H     H_    0.534675 0.738448 0.769262 0.250246
H25   H     H_    0.573256 0.867314 0.690212 0.232214
C43   C     C_2   0.853362 0.332910 0.221869 0.941865
O9    O     O_2   0.871430 0.222705 0.230512 -0.616573
O10   O     O_R   0.941418 0.422679 0.244270 -0.770655
H26   H     H_    0.925058 0.510148 0.228226 0.312783
C44   C     C_2   0.578652 0.388667 0.771662 0.913164
O11   O     O_2   0.686879 0.437444 0.779811 -0.619722
O12   O     O_R   0.591645 0.284963 0.711272 -0.817220
H27   H     H_    0.696358 0.259105 0.678036 0.331305
C45   C     C_2   0.240253 0.539426 0.215093 0.948285
O13   O     O_2   0.251443 0.455711 0.262695 -0.620508
O14   O     O_R   0.159802 0.645352 0.256932 -0.835698
H28   H     H_    0.116570 0.641461 0.327149 0.336155

loop_
_geom_bond_atom_site_label_1
_geom_bond_atom_site_label_2
_ccdc_geom_bond_type
C18   N3    S    
O7    Zn1   S    
C33   N1    A    
C35   H13   S    
C34   C37   S    
C19   C20   A    
C32   N1    A    
C4    C8    A    
C34   O7    A    
C19   H6    S    
C16   C21   A    
C5    C6    A    
O5    Zn1   S    
C28   C29   A    
N4    C42   S    
C5    C11   A    
C3    C7    A    
C30   C31   A    
C8    H17   S    
C42   H24   S    
C23   C26   S    
C40   C44   S    
C35   N2    A    
C18   C19   A    
C15   H10   S    
C31   N2    A    
C15   C37   A    
C11   C15   A    
O10   H26   S    
C38   H15   S    
C31   C32   A    
C3    C38   A    
C8    C9    A    
N3    H18   S    
C12   C36   S    
C9    C10   A    
C25   H7    S    
C1    C22   S    
C21   C22   A    
C41   H21   S    
C13   H2    S    
O4    Zn2   S    
C36   C40   A    
N4    H22   S    
C41   H20   S    
C1    O1    A    
C12   O4    A    
C44   O11   D    
C16   C17   A    
C25   C26   A    
C6    C45   S    
O8    Zn2   S    
C2    C4    A    
C29   C30   A    
N2    Zn1   S    
C12   O3    A    
C45   O14   S    
C39   H16   S    
C20   C21   A    
C17   C18   A    
C24   C25   A    
C23   O5    A    
C43   O10   S    
C22   C24   A    
C14   C43   S    
C28   N4    S    
C29   H11   S    
O2    Zn2   S    
C24   H3    S    
C30   H12   S    
C27   C32   A    
C42   H23   S    
C16   H4    S    
C36   C39   A    
C17   H5    S    
C41   H19   S    
C10   C13   A    
C1    O2    A    
C34   O8    A    
N1    Zn2   S    
C6    C7    A    
O3    Zn1   S    
C23   O6    A    
C2    C3    A    
C14   C37   A    
C42   H25   S    
C45   O13   D    
C38   C39   A    
C20   C26   A    
O6    Zn2   S    
O14   H28   S    
C33   C35   A    
C44   O12   S    
C7    H1    S    
C10   C11   A    
C2    C40   A    
C4    C5    A    
O12   H27   S    
O1    Zn1   S    
C43   O9    D    
C27   C28   A    
C33   H8    S    
N3    C41   S    
C9    H14   S    
C13   C14   A    
C27   H9    S    
