data_mof_unit_48921.cif
_audit_creation_date              2012-10-26T21:00:08-0400
_audit_creation_method            fapswitch 2.2
_symmetry_space_group_name_H-M    P1
_symmetry_Int_Tables_number       1
_space_group_crystal_system       triclinic
_cell_length_a                    19.335242
_cell_length_b                    8.690665
_cell_length_c                    7.443737
_cell_angle_alpha                 102.916048
_cell_angle_beta                  94.508314
_cell_angle_gamma                 92.357904
_cell_volume                      1213.17640317

loop_
_atom_site_label
_atom_site_type_symbol
_atom_type_description
_atom_site_fract_x
_atom_site_fract_y
_atom_site_fract_z
_atom_type_partial_charge
C1    C     C_R   0.497912 0.199700 0.453278 0.552747
C2    C     C_R   0.811865 0.490229 0.330642 -0.116196
C3    C     C_R   0.146317 0.500917 0.503631 0.037041
C4    C     C_R   0.853682 0.499083 0.496369 0.037041
C5    C     C_R   0.177896 0.492196 0.338547 -0.116535
C6    C     C_R   0.822104 0.507804 0.661453 -0.116535
C7    C     C_R   0.249769 0.492028 0.338781 -0.130007
C8    C     C_R   0.750231 0.507972 0.661219 -0.130007
C9    C     C_R   0.291619 0.500707 0.504123 0.015460
C10   C     C_R   0.708381 0.499293 0.495877 0.015459
C11   C     C_R   0.929840 0.499465 0.498000 0.346312
C12   C     C_R   0.502088 0.800300 0.546722 0.552747
C13   C     C_R   0.070160 0.500535 0.502000 0.346312
C14   C     C_2   0.496911 0.031876 0.426925 -0.153087
C15   C     C_2   0.503089 0.968124 0.573075 -0.153087
C16   C     C_R   0.367501 0.500016 0.501837 0.547066
C17   C     C_R   0.632499 0.499984 0.498163 0.547066
C18   C     C_R   0.260266 0.509750 0.669595 -0.133985
C19   C     C_R   0.739734 0.490250 0.330405 -0.133985
C20   C     C_R   0.188135 0.509771 0.669358 -0.116196
Cu1   Cu    Cu3+1 0.507710 0.517380 0.684380 0.956678
Cu2   Cu    Cu3+1 0.492290 0.482620 0.315620 0.956678
H1    H     H_    0.291342 0.516423 0.798990 0.127256
H2    H     H_    0.508914 0.039593 0.713998 0.135194
H3    H     H_    0.445076 0.379406 0.948627 0.237909
H4    H     H_    0.554924 0.620594 0.051373 0.237909
H5    H     H_    0.708657 0.483577 0.201010 0.127256
H6    H     H_    0.165264 0.516600 0.798917 0.134807
H7    H     H_    0.834736 0.483400 0.201083 0.134807
H8    H     H_    0.147199 0.485366 0.208585 0.141293
H9    H     H_    0.852801 0.514634 0.791415 0.141293
H10   H     H_    0.272440 0.485202 0.208910 0.129412
H11   H     H_    0.727560 0.514798 0.791090 0.129411
H12   H     H_    0.491086 0.960406 0.286002 0.135194
N1    N     N_R   0.029972 0.492166 0.341746 -0.219298
N2    N     N_R   0.970028 0.507834 0.658254 -0.219298
N3    N     N_R   0.961159 0.491649 0.339723 -0.222145
N4    N     N_R   0.038841 0.508351 0.660277 -0.222145
N5    N     N_2   0.480680 0.456420 0.038530 -0.258355
N6    N     N_2   0.519320 0.543580 0.961470 -0.258355
O1    O     O_R   0.505010 0.286130 0.619770 -0.503758
O2    O     O_R   0.494990 0.713870 0.380230 -0.503758
O3    O     O_R   0.491990 0.256780 0.308370 -0.495270
O4    O     O_R   0.508010 0.743220 0.691630 -0.495270
O5    O     O_R   0.406650 0.514660 0.655750 -0.507714
O6    O     O_R   0.593350 0.485340 0.344250 -0.507714
O7    O     O_R   0.393640 0.485310 0.344340 -0.504825
O8    O     O_R   0.606360 0.514690 0.655660 -0.504825

loop_
_geom_bond_atom_site_label_1
_geom_bond_atom_site_label_2
_ccdc_geom_bond_type
C16   O5    A    
C14   H12   S    
C2    C4    A    
C17   O8    A    
C1    C14   S    
Cu1   O4    S    
C19   H5    S    
Cu1   O5    S    
Cu2   O3    S    
C3    C13   S    
C12   C15   S    
C10   C19   A    
Cu1   O8    S    
N2    N4    A    
Cu2   O7    S    
C5    C7    A    
C3    C20   A    
C12   O4    A    
Cu1   Cu2   S    
H3    N5    S    
C4    C11   S    
H4    N6    S    
C13   N4    A    
Cu2   O2    S    
Cu1   N6    S    
C2    H7    S    
Cu1   O1    S    
Cu2   N5    S    
C6    C8    A    
C16   O7    A    
C1    O1    A    
C15   H2    S    
N1    N3    A    
C9    C16   S    
C13   N1    A    
C18   C20   A    
C8    H11   S    
C10   C17   S    
C12   O2    A    
C18   H1    S    
C7    C9    A    
C9    C18   A    
C17   O6    A    
C4    C6    A    
C5    H8    S    
N5    N6    D    
C11   N3    A    
C14   C15   D    
C11   N2    A    
C6    H9    S    
C7    H10   S    
C20   H6    S    
Cu2   O6    S    
C2    C19   A    
C1    O3    A    
C8    C10   A    
C3    C5    A    
