data_mof_unit_34873.cif
_audit_creation_date              2012-12-10T20:41:56-0500
_audit_creation_method            fapswitch 2.2
_symmetry_space_group_name_H-M    P1
_symmetry_Int_Tables_number       1
_space_group_crystal_system       triclinic
_cell_length_a                    15.07999
_cell_length_b                    15.129181
_cell_length_c                    9.871717
_cell_angle_alpha                 89.862006
_cell_angle_beta                  89.890538
_cell_angle_gamma                 90.096702
_cell_volume                      2252.19761746

loop_
_atom_site_label
_atom_site_type_symbol
_atom_type_description
_atom_site_fract_x
_atom_site_fract_y
_atom_site_fract_z
_atom_type_partial_charge
C1    C     C_R   0.379950 0.880212 0.500203 0.895197
C2    C     C_R   0.937565 0.453267 0.071439 0.231593
C3    C     C_R   0.576247 0.988183 0.071763 -0.132478
C4    C     C_R   0.055847 0.553426 0.071492 -0.134180
C5    C     C_R   0.576270 0.988362 0.927790 -0.137958
C6    C     C_R   0.055811 0.553478 0.927771 -0.137762
C7    C     C_R   0.424723 0.020224 0.929080 0.235112
C8    C     C_R   0.937726 0.453120 0.928943 0.185196
C9    C     C_3   0.339093 0.971454 0.924494 -0.491034
C10   C     C_3   0.924795 0.355525 0.923619 -0.480677
C11   C     C_3   0.338612 0.972376 0.078197 -0.508247
C12   C     C_R   0.378865 0.118849 0.500160 0.884126
C13   C     C_3   0.924058 0.355705 0.077310 -0.511597
C14   C     C_R   0.620869 0.118830 0.500053 0.865428
C15   C     C_R   0.622182 0.882347 0.499895 0.884499
C16   C     C_R   0.120749 0.618856 0.499851 0.887055
C17   C     C_R   0.118476 0.378607 0.500069 0.888329
C18   C     C_R   0.283480 0.219754 0.622359 0.210376
C19   C     C_R   0.258748 0.803672 0.610182 0.044391
C20   C     C_R   0.799995 0.736744 0.619903 0.054541
C21   C     C_R   0.760066 0.302812 0.610027 0.013617
C22   C     C_R   0.305561 0.177269 0.501998 -0.116521
C23   C     C_R   0.880851 0.379380 0.500196 0.854911
C24   C     C_R   0.317444 0.810760 0.501588 -0.115277
C25   C     C_R   0.822331 0.694025 0.499487 -0.101453
C26   C     C_R   0.818953 0.309420 0.501930 -0.091326
C27   C     C_R   0.253120 0.188546 0.386091 -0.167637
C28   C     C_R   0.318661 0.746953 0.398921 -0.197892
C29   C     C_R   0.793407 0.728920 0.375345 -0.199741
C30   C     C_R   0.821146 0.244359 0.401253 -0.201017
C31   C     C_R   0.730620 0.795150 0.374874 -0.217038
C32   C     C_R   0.756311 0.179410 0.400770 -0.212483
C33   C     C_R   0.188023 0.252933 0.386065 -0.199282
C34   C     C_R   0.880568 0.620631 0.500117 0.854936
C35   C     C_R   0.254555 0.681422 0.398735 -0.217635
C36   C     C_R   0.697575 0.826513 0.498630 -0.077964
C37   C     C_R   0.691728 0.179682 0.502793 -0.072998
C38   C     C_R   0.176507 0.305112 0.501873 -0.126019
C39   C     C_R   0.190648 0.680617 0.501614 -0.086616
C40   C     C_R   0.739977 0.803865 0.618895 0.078478
C41   C     C_R   0.698443 0.236767 0.612427 0.101851
C42   C     C_R   0.219533 0.283570 0.621876 0.143676
C43   C     C_R   0.196222 0.738229 0.610383 0.116478
C44   C     C_3   0.706026 0.782722 0.757579 -0.420562
C45   C     C_3   0.341358 0.271555 0.716827 -0.263457
C46   C     C_3   0.628719 0.294344 0.673644 -0.446564
C47   C     C_3   0.269753 0.342238 0.716451 -0.482890
C48   C     C_3   0.125298 0.796281 0.666885 -0.561906
C49   C     C_2   0.354162 0.226945 0.851888 0.489173
C50   C     C_2   0.172481 0.944199 0.571120 0.432643
C51   C     C_2   0.733078 0.615355 0.766264 0.438622
C52   C     C_2   0.673973 0.443157 0.571432 0.533129
C53   C     C_3   0.194039 0.869649 0.666708 -0.200971
C54   C     C_3   0.773054 0.706908 0.759591 -0.205975
C55   C     C_3   0.696615 0.369150 0.668376 -0.227624
C56   C     C_R   0.424706 0.020549 0.071510 0.242386
H1    H     H_    0.265307 0.151352 0.294293 0.173928
H2    H     H_    0.754953 0.131241 0.319734 0.156956
H3    H     H_    0.150622 0.264940 0.294255 0.174155
H4    H     H_    0.253127 0.633662 0.317135 0.162610
H5    H     H_    0.634893 0.763354 0.756806 0.249650
H6    H     H_    0.570237 0.301915 0.606150 0.212431
H7    H     H_    0.234334 0.351015 0.814438 0.234354
H8    H     H_    0.069152 0.805921 0.595284 0.191652
H9    H     H_    0.404547 0.293417 0.668919 0.127610
H10   H     H_    0.210730 0.891275 0.770659 0.179709
H11   H     H_    0.826869 0.716928 0.834880 0.131051
H12   H     H_    0.367025 0.749407 0.317658 0.168245
H13   H     H_    0.717714 0.392736 0.769868 0.144828
H14   H     H_    0.637534 0.976963 0.125859 0.142494
H15   H     H_    0.102701 0.594715 0.124793 0.153810
H16   H     H_    0.637583 0.977585 0.873375 0.147279
H17   H     H_    0.102612 0.594853 0.873945 0.157493
H18   H     H_    0.722521 0.835702 0.831162 0.164567
H19   H     H_    0.612117 0.273415 0.778711 0.183807
H20   H     H_    0.291402 0.404958 0.667420 0.192623
H21   H     H_    0.105205 0.775238 0.770489 0.203831
H22   H     H_    0.420597 0.220241 0.892555 0.037783
H23   H     H_    0.814478 0.701674 0.279150 0.172937
H24   H     H_    0.156698 0.930757 0.465873 0.063908
H25   H     H_    0.775772 0.558168 0.757416 0.057921
H26   H     H_    0.726578 0.483379 0.528385 0.015273
H27   H     H_    0.285461 0.012100 0.879102 0.251230
H28   H     H_    0.346897 0.904007 0.881726 0.208002
H29   H     H_    0.859735 0.337126 0.879168 0.200919
H30   H     H_    0.982844 0.320590 0.879437 0.227267
H31   H     H_    0.870679 0.245438 0.321756 0.155367
H32   H     H_    0.284919 0.013895 0.121599 0.213279
H33   H     H_    0.344844 0.905428 0.123879 0.215682
H34   H     H_    0.858211 0.338156 0.120406 0.205067
H35   H     H_    0.981308 0.320360 0.123059 0.213446
H36   H     H_    0.703871 0.816677 0.278518 0.168891
N1    N     N_R   0.499140 0.000000 0.142800 -0.112592
N2    N     N_R   0.999140 0.500000 0.142800 -0.107651
N3    N     N_R   0.499160 0.000000 0.857150 -0.118234
N4    N     N_R   0.999160 0.500000 0.857150 -0.108539
O1    O     O_R   0.408400 0.908380 0.614690 -0.608783
O2    O     O_R   0.591610 0.908390 0.614650 -0.623660
O3    O     O_R   0.091610 0.591610 0.614650 -0.620852
O4    O     O_R   0.091610 0.408390 0.614650 -0.608870
O5    O     O_R   0.591590 0.091600 0.385310 -0.618772
O6    O     O_R   0.591590 0.908400 0.385310 -0.629788
O7    O     O_R   0.091590 0.591600 0.385310 -0.631370
O8    O     O_R   0.091590 0.408400 0.385310 -0.620033
O9    O     O_2   0.291154 0.198181 0.916424 -0.585482
O10   O     O_2   0.172644 0.020340 0.611531 -0.576345
O11   O     O_2   0.653964 0.603872 0.786397 -0.553284
O12   O     O_R   0.408400 0.091620 0.614690 -0.618464
O13   O     O_2   0.597086 0.460635 0.543754 -0.543833
O14   O     O_R   0.908400 0.408380 0.614690 -0.627007
O15   O     O_R   0.908400 0.591620 0.614690 -0.641928
O16   O     O_R   0.408370 0.908370 0.385350 -0.628032
O17   O     O_R   0.408370 0.091630 0.385350 -0.619748
O18   O     O_R   0.908370 0.408370 0.385350 -0.620086
O19   O     O_R   0.908370 0.591630 0.385350 -0.615145
O20   O     O_R   0.591610 0.091610 0.614650 -0.624797
Zn1   Zn    Zn3+2 0.500010 1.000000 0.653130 0.952765
Zn2   Zn    Zn3+2 0.000010 0.500000 0.653130 0.936360
Zn3   Zn    Zn3+2 0.499980 0.000000 0.346870 0.948339
Zn4   Zn    Zn3+2 0.999980 0.500000 0.346870 0.944812

loop_
_geom_bond_atom_site_label_1
_geom_bond_atom_site_label_2
_ccdc_geom_bond_type
C21   C26   A    
C10   H29   S    
C13   H34   S    
O7    Zn4   S    
C8    N4    A    
C32   H2    S    
O14   Zn2   S    
C27   C33   A    
C46   H6    S    
O15   Zn2   S    
N4    Zn2   S    
C28   H12   S    
C17   O8    A    
C47   H20   S    
C38   C42   A    
C5    H16   S    
C18   C42   A    
C1    O16   A    
C47   H7    S    
C20   C40   A    
C23   O18   A    
C48   H8    S    
C20   C25   A    
C12   C22   S    
C49   H22   S    
C23   C26   S    
C2    C13   S    
C36   C40   A    
O17   Zn3   S    
N2    Zn4   S    
C28   C35   A    
C46   C55   S    
C41   C46   S    
C43   C48   S    
C51   H25   S    
C52   C55   S    
C25   C34   S    
C17   C38   S    
C19   C53   S    
C33   H3    S    
C13   H35   S    
O1    Zn1   S    
C34   O15   A    
C56   N1    A    
C7    C56   A    
C46   H19   S    
C5    N3    A    
C19   C43   A    
C45   C47   S    
C25   C29   A    
C48   C53   S    
C50   C53   S    
O5    Zn3   S    
C2    N2    A    
C3    H14   S    
C20   C54   S    
C27   H1    S    
C1    O1    A    
C12   O12   A    
C14   O5    A    
C39   C43   A    
C54   H11   S    
C16   C39   S    
C34   O19   A    
N3    Zn1   S    
C35   H4    S    
C48   H21   S    
C35   C39   A    
C11   H33   S    
C16   O7    A    
C6    H17   S    
C29   H23   S    
C45   C49   S    
C11   H32   S    
C3    N1    A    
C32   C37   A    
C52   H26   S    
C53   H10   S    
C9    C11   S    
C55   H13   S    
C9    H27   S    
C4    N2    A    
C4    C6    A    
C26   C30   A    
C6    N4    A    
C22   C27   A    
C45   H9    S    
C21   C41   A    
O4    Zn2   S    
C15   O2    A    
C18   C45   S    
C15   C36   S    
O2    Zn1   S    
C21   C55   S    
C12   O17   A    
C7    C9    S    
C23   O14   A    
C10   H30   S    
C18   C22   A    
O12   Zn1   S    
C8    C10   S    
C2    C8    A    
C24   C28   A    
C44   H18   S    
C3    C5    A    
C10   C13   S    
C50   H24   S    
O16   Zn3   S    
C49   O9    D    
O19   Zn4   S    
C16   O3    A    
C44   H5    S    
C7    N3    A    
C33   C38   A    
C51   C54   S    
C19   C24   A    
C29   C31   A    
O3    Zn2   S    
C30   C32   A    
C52   O13   D    
C14   O20   A    
O20   Zn1   S    
C42   C47   S    
C15   O6    A    
C37   C41   A    
C17   O4    A    
O6    Zn3   S    
C9    H28   S    
C44   C54   S    
C40   C44   S    
C1    C24   S    
C51   O11   D    
C31   H36   S    
C50   O10   D    
C31   C36   A    
N1    Zn3   S    
O8    Zn4   S    
C30   H31   S    
C4    H15   S    
O18   Zn4   S    
C11   C56   S    
C14   C37   S    
