data_mof_unit_49340.cif
_audit_creation_date              2012-12-10T17:17:26-0500
_audit_creation_method            fapswitch 2.2
_symmetry_space_group_name_H-M    P1
_symmetry_Int_Tables_number       1
_space_group_crystal_system       triclinic
_cell_length_a                    10.236862
_cell_length_b                    10.660878
_cell_length_c                    12.60669
_cell_angle_alpha                 91.574752
_cell_angle_beta                  109.732128
_cell_angle_gamma                 94.576877
_cell_volume                      1288.72864626

loop_
_atom_site_label
_atom_site_type_symbol
_atom_type_description
_atom_site_fract_x
_atom_site_fract_y
_atom_site_fract_z
_atom_type_partial_charge
C1    C     C_R   0.053391 0.733625 0.497934 0.927631
C2    C     C_R   0.421498 0.477368 0.986387 0.083326
C3    C     C_R   0.360002 0.515791 0.875973 0.077596
C4    C     C_R   0.563101 0.452491 0.021748 0.088466
C5    C     C_R   0.634176 0.447633 0.942819 0.176674
C6    C     C_R   0.573513 0.490562 0.836172 -0.214848
C7    C     C_R   0.444974 0.537628 0.809422 -0.155241
C8    C     C_R   0.641008 0.449819 0.135347 -0.249191
C9    C     C_R   0.849821 0.422129 0.091468 -0.165541
C10   C     C_R   0.216745 0.535950 0.836133 -0.166501
C11   C     C_2   0.093686 0.868069 0.517357 -0.338767
C12   C     C_R   0.137656 0.521346 0.713298 0.884053
C13   C     C_2   0.026520 0.936794 0.568891 -0.195093
C14   C     C_2   0.937521 0.135878 0.533369 -0.417001
C15   C     C_2   0.049446 0.072113 0.577931 0.240477
C16   C     C_2   0.434184 0.500536 0.518783 -0.046936
C17   C     C_2   0.576305 0.470801 0.514884 -0.070813
C18   C     C_R   0.954042 0.267830 0.513849 0.966477
C19   C     C_R   0.863688 0.478845 0.288220 0.886358
C20   C     C_R   0.772695 0.418363 0.977010 -0.158312
C21   C     C_R   0.785067 0.448659 0.169962 -0.063529
C22   C     C_R   0.149370 0.551999 0.915858 0.161001
C23   C     C_R   0.210971 0.516481 0.025510 -0.149660
C24   C     C_R   0.341476 0.471730 0.058507 -0.209097
H1    H     H_    0.960340 0.411695 0.118086 0.173005
H2    H     H_    0.941318 0.895026 0.593029 0.176974
H3    H     H_    0.832938 0.087597 0.502323 0.132405
H4    H     H_    0.177307 0.910431 0.491280 0.183418
H5    H     H_    0.588622 0.375560 0.490159 0.179413
H6    H     H_    0.433109 0.576734 0.576199 0.121217
H7    H     H_    0.631518 0.500462 0.778698 0.159644
H8    H     H_    0.824416 0.404910 0.916063 0.169910
H9    H     H_    0.593827 0.463718 0.198641 0.168440
H10   H     H_    0.378541 0.437350 0.141993 0.167766
H11   H     H_    0.157835 0.524092 0.086122 0.170271
H12   H     H_    0.414566 0.596283 0.738934 0.154971
N1    N     N_2   0.313640 0.446500 0.454900 -0.022527
N2    N     N_2   0.686360 0.553430 0.545150 -0.089894
O1    O     O_R   0.936910 0.692950 0.509080 -0.625614
O2    O     O_R   0.138320 0.658600 0.480130 -0.617796
O3    O     O_R   0.002900 0.525670 0.675280 -0.578121
O4    O     O_R   0.204310 0.491320 0.646330 -0.613266
O5    O     O_R   0.861680 0.341400 0.519870 -0.619164
O6    O     O_R   0.063090 0.307050 0.490920 -0.550399
O7    O     O_R   0.795690 0.508680 0.353670 -0.624074
O8    O     O_R   0.997100 0.474330 0.324720 -0.596867
Zn1   Zn    Zn3+2 0.865520 0.522940 0.519330 0.953880
Zn2   Zn    Zn3+2 0.134480 0.477060 0.480670 1.009408
C25   C     C_3   0.657514 0.686300 0.534679 -0.213782
C26   C     C_3   0.704080 0.757385 0.649935 -0.372360
C27   C     C_3   0.652359 0.888375 0.641586 -0.866632
H13   H     H_    0.689367 0.943485 0.582072 0.254225
H14   H     H_    0.536580 0.880804 0.611969 0.269528
H15   H     H_    0.692978 0.939221 0.726009 0.278485
H16   H     H_    0.663310 0.703966 0.708250 0.232632
H17   H     H_    0.819339 0.767710 0.684349 0.261436
H18   H     H_    0.710707 0.731966 0.480978 0.209799
H19   H     H_    0.546871 0.699909 0.487277 0.156467
I1    I     I_    0.301611 0.300982 0.337699 -0.333971
I2    I     I_    0.969816 0.649140 0.886735 -0.442201
I3    I     I_    0.259286 0.153498 0.660652 -0.308150

loop_
_geom_bond_atom_site_label_1
_geom_bond_atom_site_label_2
_ccdc_geom_bond_type
C25   H18   S    
C2    C4    A    
C23   C24   A    
C19   O7    A    
C6    C7    A    
C8    C21   A    
C18   O6    A    
C14   H3    S    
C17   H5    S    
C7    H12   S    
C14   C18   S    
C9    C20   A    
C3    C7    A    
C26   H16   S    
C1    C11   S    
C16   N1    D    
C4    C8    A    
C27   H15   S    
O7    Zn1   S    
C6    H7    S    
O3    Zn1   S    
C19   O8    A    
C9    H1    S    
C3    C10   A    
O4    Zn2   S    
C18   O5    A    
C10   C22   A    
N1    Zn2   S    
C22   I2    S    
C11   C13   D    
C9    C21   A    
N2    Zn1   S    
N1    I1    S    
C10   C12   S    
C11   H4    S    
C19   C21   S    
C2    C3    A    
C23   H11   S    
C8    H9    S    
C13   C15   S    
C2    C24   A    
C5    C6    A    
O8    Zn2   S    
C13   H2    S    
C1    O1    A    
C16   H6    S    
C27   H13   S    
N2    C25   S    
C17   N2    D    
C12   O3    A    
O1    Zn1   S    
C25   C26   S    
C20   H8    S    
C5    C20   A    
C15   I3    S    
O2    Zn2   S    
C14   C15   D    
C16   C17   S    
C12   O4    A    
C1    O2    A    
C26   C27   S    
C22   C23   A    
O5    Zn1   S    
C26   H17   S    
C25   H19   S    
O6    Zn2   S    
C4    C5    A    
C27   H14   S    
C24   H10   S    
