data_mof_unit_45117.cif
_audit_creation_date              2012-12-11T14:08:36-0500
_audit_creation_method            fapswitch 2.2
_symmetry_space_group_name_H-M    P1
_symmetry_Int_Tables_number       1
_space_group_crystal_system       triclinic
_cell_length_a                    11.046124
_cell_length_b                    11.140617
_cell_length_c                    18.704234
_cell_angle_alpha                 90.61603
_cell_angle_beta                  90.276861
_cell_angle_gamma                 59.870297
_cell_volume                      1990.65237

loop_
_atom_site_label
_atom_site_type_symbol
_atom_type_description
_atom_site_fract_x
_atom_site_fract_y
_atom_site_fract_z
_atom_type_partial_charge
C1    C     C_R   0.238328 0.645780 0.607952 0.543033
C2    C     C_2   0.767783 0.174199 0.710633 -0.180019
C3    C     C_2   0.180065 0.669958 0.678460 -0.133005
C4    C     C_R   0.626134 0.586325 0.608916 0.550755
C5    C     C_2   0.158360 0.681683 0.832785 -0.126171
C6    C     C_2   0.136100 0.594398 0.791777 -0.185365
C7    C     C_2   0.176787 0.570586 0.716372 -0.196156
C8    C     C_2   0.649450 0.645766 0.317499 -0.135045
C9    C     C_2   0.633865 0.666780 0.159628 -0.037791
C10   C     C_2   0.699427 0.546124 0.194750 0.212785
C11   C     C_2   0.673056 0.542313 0.271470 -0.161924
C12   C     C_3   0.759518 0.503480 0.801459 -0.246670
C13   C     C_2   0.632464 0.197877 0.318718 -0.106579
C14   C     C_2   0.637439 0.199982 0.164106 -0.088888
C15   C     C_2   0.523298 0.229580 0.201039 -0.166064
C16   C     C_R   0.627457 0.229934 0.601739 0.537875
C17   C     C_2   0.517419 0.257757 0.276902 -0.155203
C18   C     C_2   0.192449 0.658629 0.325647 -0.095800
C19   C     C_2   0.184386 0.644634 0.172228 -0.103316
C20   C     C_2   0.240655 0.709797 0.206281 -0.161564
C21   C     C_2   0.270575 0.687318 0.281617 -0.149081
C22   C     C_R   0.700547 0.104487 0.899310 0.536443
C23   C     C_3   0.693645 0.661845 0.815058 0.062538
C24   C     C_R   0.722628 0.686367 0.889149 0.535873
C25   C     C_R   0.108171 0.712349 0.905118 0.544514
C26   C     C_R   0.673332 0.113057 0.101359 0.563484
C27   C     C_R   0.692702 0.689175 0.094735 0.581429
C28   C     C_R   0.227513 0.646918 0.399989 0.548314
C29   C     C_R   0.098871 0.706183 0.110313 0.556634
C30   C     C_R   0.641278 0.620845 0.392905 0.557746
C31   C     C_R   0.613531 0.234781 0.393444 0.552466
C32   C     C_3   0.533575 0.734950 0.800462 -0.239489
C33   C     C_3   0.505058 0.702663 0.723876 -0.249289
C34   C     C_3   0.645698 0.616283 0.683402 0.040204
C35   C     C_3   0.769354 0.706965 0.760013 -0.106534
C36   C     C_3   0.517485 0.272339 0.815630 -0.255124
C37   C     C_3   0.484094 0.411472 0.788142 -0.450149
C38   C     C_3   0.767852 0.843523 0.772609 -0.271376
C39   C     C_3   0.853539 0.859475 0.713015 -0.445934
C40   C     C_3   0.720830 0.699842 0.683569 -0.195515
C41   C     C_3   0.736092 0.478313 0.723042 -0.256257
C42   C     C_2   0.670215 0.166755 0.671327 -0.118015
C43   C     C_2   0.672530 0.180996 0.833123 0.023439
C44   C     C_2   0.780683 0.149293 0.788351 -0.148710
Cr1   Cr    Cr6+3 0.393010 0.398050 0.501480 1.014880
Cr2   Cr    Cr6+3 0.398820 0.707980 0.501630 1.014517
Cr3   Cr    Cr6+3 0.708140 0.393940 0.496850 1.012857
Cr4   Cr    Cr6+3 0.937950 0.938450 0.008940 1.028274
Cr5   Cr    Cr6+3 0.626180 0.937030 0.994750 1.007519
Cr6   Cr    Cr6+3 0.937790 0.625760 0.001410 1.035666
H1    H     H_    0.486214 0.849189 0.807131 0.133720
H2    H     H_    0.207839 0.737162 0.812027 0.096327
H3    H     H_    0.482446 0.699947 0.839608 0.113633
H4    H     H_    0.147341 0.771502 0.701426 0.106749
H5    H     H_    0.687727 0.444752 0.291820 0.142176
H6    H     H_    0.546943 0.757562 0.184582 0.045728
H7    H     H_    0.633149 0.745416 0.300048 0.088749
H8    H     H_    0.439326 0.217790 0.177985 0.158300
H9    H     H_    0.413550 0.322937 0.299394 0.164222
H10   H     H_    0.717159 0.218971 0.186668 0.116143
H11   H     H_    0.737338 0.132591 0.297677 0.093204
H12   H     H_    0.839781 0.415439 0.696605 0.136309
H13   H     H_    0.249287 0.793030 0.181547 0.155418
H14   H     H_    0.446790 0.645789 0.725333 0.111319
H15   H     H_    0.350651 0.707801 0.302327 0.159709
H16   H     H_    0.185995 0.554566 0.195214 0.108445
H17   H     H_    0.111090 0.638269 0.307195 0.092003
H18   H     H_    0.436490 0.802149 0.696071 0.141913
H19   H     H_    0.648152 0.805563 0.662669 0.138179
H20   H     H_    0.874781 0.448020 0.810532 0.129905
H21   H     H_    0.722726 0.456107 0.840893 0.128095
H22   H     H_    0.680986 0.420871 0.719568 0.133784
H23   H     H_    0.882007 0.626806 0.762305 0.137858
H24   H     H_    0.552622 0.443878 0.811929 0.147207
H25   H     H_    0.480631 0.415334 0.728958 0.160839
H26   H     H_    0.385785 0.488251 0.810019 0.155385
H27   H     H_    0.476039 0.221397 0.780195 0.131907
H28   H     H_    0.454542 0.294460 0.865427 0.163586
H29   H     H_    0.840660 0.350385 0.195083 0.314995
H30   H     H_    0.928268 0.759013 0.689510 0.160480
H31   H     H_    0.787617 0.912978 0.666502 0.145971
H32   H     H_    0.914245 0.906632 0.732977 0.156677
H33   H     H_    0.658973 0.932576 0.773095 0.155749
H34   H     H_    0.813507 0.650793 0.647437 0.136753
H35   H     H_    0.818029 0.840059 0.824727 0.176946
H36   H     H_    0.887142 0.091833 0.808568 0.131107
H37   H     H_    0.841378 0.198115 0.685477 0.139855
H38   H     H_    0.608524 0.125867 0.693483 0.111917
H39   H     H_    0.096089 0.532076 0.814724 0.153097
H40   H     H_    0.204191 0.470843 0.692441 0.157991
O1    O     O_R   0.507110 0.256280 0.580300 -0.518765
O2    O     O_R   0.837080 0.593860 0.915300 -0.535006
O3    O     O_R   0.064770 0.636080 0.932550 -0.508760
O4    O     O_R   0.280830 0.527190 0.577940 -0.499486
O5    O     O_R   0.068250 0.829200 0.092940 -0.510089
O6    O     O_R   0.799650 0.057040 0.080330 -0.490027
O7    O     O_R   0.586130 0.079760 0.077080 -0.516425
O8    O     O_R   0.627700 0.809630 0.066580 -0.517139
O9    O     O_R   0.816140 0.597180 0.075920 -0.438415
O10   O     O_R   0.045360 0.639170 0.081440 -0.499020
O11   O     O_3   0.833980 0.833750 0.001700 -0.268071
O12   O     O_R   0.524640 0.695370 0.425100 -0.495473
O13   O     O_R   0.261360 0.738990 0.584270 -0.528254
O14   O     O_R   0.532590 0.694780 0.574370 -0.507275
O15   O     O_R   0.744470 0.503750 0.577000 -0.528275
O16   O     O_R   0.698520 0.277230 0.571620 -0.513075
O17   O     O_R   0.498530 0.256920 0.419280 -0.510171
O18   O     O_R   0.272880 0.527780 0.428680 -0.500257
O19   O     O_R   0.252780 0.739630 0.423250 -0.509129
O20   O     O_3   0.796819 0.426218 0.159754 -0.670030
O21   O     O_R   0.735890 0.504390 0.415980 -0.502888
O22   O     O_R   0.690560 0.277820 0.422350 -0.502024
O23   O     O_3   0.499990 0.499990 0.499980 -0.282248
O24   O     O_R   0.089190 0.825870 0.932320 -0.522269
O25   O     O_R   0.819070 0.053960 0.931440 -0.506679
O26   O     O_R   0.607070 0.076440 0.916460 -0.536919
O27   O     O_R   0.647110 0.806550 0.917690 -0.512394

loop_
_geom_bond_atom_site_label_1
_geom_bond_atom_site_label_2
_ccdc_geom_bond_type
C37   H24   S    
Cr2   O23   S    
C27   O8    A    
C25   O3    A    
Cr4   O5    S    
C38   H33   S    
C18   C21   D    
C40   H34   S    
C19   C20   D    
Cr2   O12   S    
C12   C23   S    
C27   O9    A    
Cr6   O9    S    
C34   C40   S    
C36   C37   S    
C2    C42   D    
C3    C7    D    
C36   H27   S    
C8    C11   D    
Cr5   O11   S    
C38   C39   S    
C3    H4    S    
C12   H21   S    
Cr3   O22   S    
C19   H16   S    
C15   C17   S    
Cr5   O8    S    
Cr5   O27   S    
C2    C44   S    
C1    O4    A    
Cr3   O15   S    
C31   O22   A    
C5    H2    S    
C9    C10   D    
C1    O13   A    
H29   O20   S    
Cr1   O18   S    
C16   O16   A    
C22   O26   A    
C37   H25   S    
C34   C41   S    
C41   H12   S    
C44   H36   S    
Cr1   O4    S    
C24   O2    A    
C26   O6    A    
C4    C34   S    
C40   H19   S    
C38   H35   S    
C35   C38   S    
C18   C28   S    
C39   H31   S    
C29   O5    A    
C18   H17   S    
C7    H40   S    
Cr2   O14   S    
C32   C33   S    
C1    C3    S    
C43   C44   D    
C32   H1    S    
C12   C41   S    
C8    H7    S    
C22   C43   S    
C23   C24   S    
Cr3   O16   S    
C30   O12   A    
C33   C34   S    
C24   O27   A    
C2    H37   S    
C9    H6    S    
C14   C26   S    
C17   H9    S    
Cr4   O25   S    
C5    C25   S    
Cr6   O2    S    
C22   O25   A    
C37   H26   S    
C23   C35   S    
C41   H22   S    
C15   H8    S    
C42   H38   S    
C19   C29   S    
C16   C42   S    
C32   H3    S    
C11   H5    S    
C9    C27   S    
Cr4   O24   S    
C4    O15   A    
Cr3   O23   S    
C12   H20   S    
C35   H23   S    
Cr4   O6    S    
C29   O10   A    
C21   H15   S    
C31   O17   A    
C13   C31   S    
C39   H32   S    
Cr6   O3    S    
C6    C7    S    
C28   O19   A    
C6    H39   S    
C14   H10   S    
Cr2   O13   S    
Cr6   O10   S    
Cr6   O11   S    
C13   C17   D    
C30   O21   A    
C8    C30   S    
C39   H30   S    
C20   H13   S    
C35   C40   S    
C36   H28   S    
C25   O24   A    
C23   C32   S    
C5    C6    D    
C28   O18   A    
C33   H14   S    
Cr3   O21   S    
Cr4   O11   S    
C4    O14   A    
C10   O20   S    
Cr1   O1    S    
C10   C11   S    
C26   O7    A    
Cr5   O7    S    
Cr1   O23   S    
Cr5   O26   S    
C13   H11   S    
C20   C21   S    
C16   O1    A    
Cr2   O19   S    
C14   C15   D    
C36   C43   S    
Cr1   O17   S    
C33   H18   S    
