data_mof_unit_59951.cif
_audit_creation_date              2012-12-10T18:32:01-0500
_audit_creation_method            fapswitch 2.2
_symmetry_space_group_name_H-M    P1
_symmetry_Int_Tables_number       1
_space_group_crystal_system       triclinic
_cell_length_a                    10.648761
_cell_length_b                    14.926076
_cell_length_c                    15.347325
_cell_angle_alpha                 82.217122
_cell_angle_beta                  89.829707
_cell_angle_gamma                 104.170904
_cell_volume                      2341.69373965

loop_
_atom_site_label
_atom_site_type_symbol
_atom_type_description
_atom_site_fract_x
_atom_site_fract_y
_atom_site_fract_z
_atom_type_partial_charge
C1    C     C_R   0.485379 0.441837 0.662617 0.858439
C2    C     C_R   0.573434 0.445479 0.898549 0.088446
C3    C     C_R   0.543832 0.348980 0.930829 0.155019
C4    C     C_R   0.742018 0.500701 0.499912 0.877346
C5    C     C_R   0.618332 0.512032 0.955915 0.030640
C6    C     C_R   0.606277 0.481969 0.047472 0.054912
C7    C     C_R   0.589481 0.385171 0.078404 0.064088
C8    C     C_R   0.559101 0.319981 0.019474 -0.298687
C9    C     C_R   0.672189 0.607732 0.925127 -0.220834
C10   C     C_R   0.697012 0.673438 0.983121 -0.236404
C11   C     C_R   0.659911 0.646281 0.071772 0.163889
C12   C     C_3   0.120634 0.499146 0.500100 0.148900
C13   C     C_R   0.609804 0.550412 0.103585 0.099891
C14   C     C_R   0.667227 0.713593 0.128512 -0.205391
C15   C     C_R   0.619997 0.686500 0.215512 -0.192729
C16   C     C_R   0.522059 0.558234 0.337347 0.875509
C17   C     C_R   0.551717 0.526482 0.187655 -0.222772
C18   C     C_R   0.707744 0.843798 0.630615 -0.297867
C19   C     C_R   0.665984 0.752875 0.612484 -0.006174
C20   C     C_R   0.521292 0.797044 0.507915 -0.067387
C21   C     C_R   0.567958 0.892070 0.517177 -0.047283
C22   C     C_R   0.657726 0.914223 0.583997 0.178658
C23   C     C_3   0.067059 0.482655 0.408254 -0.459592
C24   C     C_R   0.522790 0.964230 0.466145 0.030131
C25   C     C_R   0.545785 0.053237 0.495852 0.059301
C26   C     C_R   0.635550 0.072918 0.562540 -0.284219
C27   C     C_R   0.694109 0.005597 0.604122 0.090435
C28   C     C_R   0.257661 0.499478 0.500218 0.856298
C29   C     C_R   0.457477 0.952292 0.385916 0.054639
C30   C     C_R   0.391202 0.017083 0.350221 -0.172996
C31   C     C_R   0.397080 0.098951 0.386282 0.097036
C32   C     C_R   0.479596 0.120076 0.456973 -0.034060
C33   C     C_R   0.326573 0.162282 0.349398 -0.048437
C34   C     C_3   0.104147 0.596170 0.518046 -0.445675
C35   C     C_R   0.342803 0.247834 0.381763 0.234579
C36   C     C_R   0.491607 0.207594 0.485905 -0.110622
C37   C     C_3   0.899117 0.425406 0.573857 -0.510756
C38   C     C_3   0.043290 0.422937 0.573990 -0.045159
C39   C     C_3   0.920823 0.478602 0.409234 -0.055566
C40   C     C_3   0.961890 0.597302 0.518229 -0.406041
C41   C     C_3   0.878487 0.501407 0.499623 0.156162
C42   C     C_R   0.499588 0.407492 0.755089 -0.064210
C43   C     C_R   0.560635 0.592491 0.244947 -0.077174
C44   C     C_R   0.498457 0.282859 0.873980 -0.197184
C45   C     C_R   0.476934 0.312008 0.786252 -0.204706
C46   C     C_R   0.547312 0.473005 0.811335 -0.261917
H1    H     H_    0.158284 0.652520 0.466654 0.183156
H2    H     H_    0.706755 0.698660 0.646181 0.126425
H3    H     H_    0.082548 0.440434 0.638534 0.136813
H4    H     H_    0.867564 0.405785 0.402331 0.160218
H5    H     H_    0.082286 0.416603 0.389632 0.172179
H6    H     H_    0.933192 0.612187 0.583622 0.176254
H7    H     H_    0.835947 0.356001 0.565128 0.173232
H8    H     H_    0.904436 0.515675 0.276623 0.194234
H9    H     H_    0.948633 0.607717 0.331784 0.192282
H10   H     H_    0.494918 0.456351 0.208489 0.175500
H11   H     H_    0.737699 0.746233 0.957617 0.144856
H12   H     H_    0.121396 0.539532 0.357501 0.157839
H13   H     H_    0.477994 0.208799 0.897671 0.135328
H14   H     H_    0.559621 0.545956 0.786932 0.159821
H15   H     H_    0.870067 0.440909 0.638879 0.159195
H16   H     H_    0.691137 0.320788 0.166505 0.191507
H17   H     H_    0.532439 0.302577 0.194450 0.180032
H18   H     H_    0.863199 0.084406 0.640493 0.181530
H19   H     H_    0.742995 0.054645 0.719098 0.183357
H20   H     H_    0.175719 0.285323 0.353556 0.148198
H21   H     H_    0.299158 0.333037 0.278188 0.150856
H22   H     H_    0.339277 0.004469 0.290686 0.180031
H23   H     H_    0.543990 0.246324 0.043835 0.148998
H24   H     H_    0.442353 0.772979 0.466638 0.132018
H25   H     H_    0.665248 0.140878 0.583094 0.133188
H26   H     H_    0.560006 0.864619 0.342671 0.190987
H27   H     H_    0.393080 0.829133 0.336978 0.173759
H28   H     H_    0.147729 0.141821 0.298367 0.185520
H29   H     H_    0.272444 0.190369 0.223913 0.177660
H30   H     H_    0.007149 0.304880 0.511151 0.190295
H31   H     H_    0.016387 0.283664 0.621055 0.175790
H32   H     H_    0.947292 0.654936 0.468386 0.187226
H33   H     H_    0.143681 0.612026 0.582904 0.185726
H34   H     H_    0.629515 0.738686 0.259307 0.156568
H35   H     H_    0.442274 0.260150 0.743162 0.157321
H36   H     H_    0.698537 0.632993 0.856574 0.140416
H37   H     H_    0.708450 0.786900 0.105447 0.137562
H38   H     H_    0.553350 0.230692 0.537934 0.136876
H39   H     H_    0.778622 0.858382 0.680553 0.168278
N1    N     N_R   0.573860 0.731700 0.552730 -0.094332
N2    N     N_R   0.426060 0.268290 0.447230 -0.101973
N3    N     N_3   0.887745 0.540699 0.334941 -0.461938
N4    N     N_3   0.614519 0.353110 0.167508 -0.463989
N5    N     N_3   0.787308 0.029863 0.669699 -0.480437
N6    N     N_3   0.275284 0.315327 0.345445 -0.400512
N7    N     N_3   0.474418 0.885722 0.330298 -0.476174
N8    N     N_3   0.241121 0.140039 0.278927 -0.485661
N9    N     N_3   0.058045 0.329257 0.564873 -0.438236
O1    O     O_R   0.462770 0.383110 0.605620 -0.614606
O2    O     O_R   0.510160 0.531900 0.639510 -0.622037
O3    O     O_R   0.661510 0.425600 0.483070 -0.629825
O4    O     O_R   0.708900 0.574390 0.516960 -0.630962
O5    O     O_R   0.489840 0.468100 0.360490 -0.594882
O6    O     O_R   0.537230 0.616890 0.394380 -0.620079
O7    O     O_R   0.291100 0.425610 0.483040 -0.573054
O8    O     O_R   0.338490 0.574400 0.516930 -0.638325
Zn1   Zn    Zn3+2 0.468350 0.400660 0.477370 0.959054
Zn2   Zn    Zn3+2 0.531650 0.599340 0.522630 0.926460

loop_
_geom_bond_atom_site_label_1
_geom_bond_atom_site_label_2
_ccdc_geom_bond_type
C23   H12   S    
O5    Zn1   S    
C4    O4    A    
H18   N5    S    
C19   N1    A    
N1    Zn2   S    
C7    C8    A    
C39   C41   S    
C38   H3    S    
C2    C46   A    
C12   C23   S    
C26   C27   A    
C29   C30   A    
C12   C28   S    
C34   C40   S    
C32   C36   A    
C30   C31   A    
H26   N7    S    
C11   C14   A    
O4    Zn2   S    
C4    C41   S    
C44   H13   S    
C7    N4    S    
H16   N4    S    
H31   N9    S    
O6    Zn2   S    
C27   N5    S    
C18   C19   A    
C42   C46   A    
H9    N3    S    
C24   C29   A    
H30   N9    S    
C35   N2    A    
C28   O7    A    
C31   C32   A    
C20   N1    A    
C31   C33   A    
C9    C10   A    
C9    H36   S    
C37   H7    S    
C25   C32   A    
O7    Zn1   S    
C4    O3    A    
C12   C38   S    
C26   H25   S    
H28   N8    S    
C38   N9    S    
C39   N3    S    
C20   H24   S    
O1    Zn1   S    
C36   N2    A    
H19   N5    S    
C3    C44   A    
C18   H39   S    
C10   H11   S    
C24   C25   A    
C3    C8    A    
C19   H2    S    
C16   O6    A    
C25   C26   A    
C40   H6    S    
C42   C45   A    
C17   C43   A    
C5    C9    A    
C37   C38   S    
C34   H33   S    
C23   H5    S    
C15   H34   S    
C16   C43   S    
C1    O1    A    
H17   N4    S    
H21   N6    S    
C8    H23   S    
O8    Zn2   S    
C17   H10   S    
O3    Zn1   S    
H20   N6    S    
N2    Zn1   S    
C40   C41   S    
C22   C27   A    
O2    Zn2   S    
C40   H32   S    
C2    C5    A    
C12   C34   S    
C44   C45   A    
H29   N8    S    
C46   H14   S    
C18   C22   A    
C45   H35   S    
H27   N7    S    
C33   N8    S    
C37   H15   S    
C16   O5    A    
C6    C7    A    
C13   C17   A    
C2    C3    A    
C14   H37   S    
C6    C13   A    
H8    N3    S    
C11   C13   A    
C5    C6    A    
C36   H38   S    
C1    O2    A    
C23   C39   S    
C33   C35   A    
C37   C41   S    
C10   C11   A    
C15   C43   A    
C28   O8    A    
C1    C42   S    
C39   H4    S    
C20   C21   A    
C21   C24   A    
C14   C15   A    
C34   H1    S    
C21   C22   A    
C29   N7    S    
C30   H22   S    
C35   N6    S    
