data_mof_unit_8152.cif
_audit_creation_date              2012-12-10T17:05:42-0500
_audit_creation_method            fapswitch 2.2
_symmetry_space_group_name_H-M    P1
_symmetry_Int_Tables_number       1
_space_group_crystal_system       triclinic
_cell_length_a                    15.871464
_cell_length_b                    11.034579
_cell_length_c                    9.933529
_cell_angle_alpha                 109.721414
_cell_angle_beta                  99.097245
_cell_angle_gamma                 92.829235
_cell_volume                      1607.16155969

loop_
_atom_site_label
_atom_site_type_symbol
_atom_type_description
_atom_site_fract_x
_atom_site_fract_y
_atom_site_fract_z
_atom_type_partial_charge
C1    C     C_R   0.495540 0.255933 0.442059 0.895325
C2    C     C_3   0.959697 0.454674 0.630061 -0.393326
C3    C     C_3   0.917388 0.500511 0.506049 0.115545
C4    C     C_3   0.960263 0.637225 0.527658 0.303679
C5    C     C_3   0.056669 0.629392 0.513154 0.264369
C6    C     C_1   0.825072 0.502390 0.504206 -0.009599
C7    C     C_1   0.175283 0.491516 0.501008 0.096843
C8    C     C_1   0.250635 0.494006 0.498733 -0.067567
C9    C     C_2   0.481723 0.119279 0.411094 -0.376837
C10   C     C_2   0.533501 0.053688 0.475151 -0.072000
C11   C     C_2   0.514806 0.882848 0.577357 -0.382502
C12   C     C_R   0.340383 0.498144 0.499418 0.793480
C13   C     C_2   0.497277 0.923798 0.462476 -0.010779
C14   C     C_2   0.516040 0.495875 0.075268 0.066474
C15   C     C_2   0.498634 0.475974 0.913518 0.510824
C16   C     C_R   0.504680 0.745116 0.556516 0.873348
C17   C     C_R   0.659600 0.501214 0.500597 0.852560
C18   C     C_3   0.060577 0.461661 0.643688 -0.089714
C19   C     C_3   0.028241 0.387116 0.364502 -0.250630
C20   C     C_3   0.931559 0.404357 0.358765 -0.536733
C21   C     C_1   0.749359 0.502218 0.502149 -0.109926
C22   C     C_3   0.083160 0.492157 0.506195 -0.028744
Cu1   Cu    Cu3+1 0.514650 0.521810 0.644910 1.032924
Cu2   Cu    Cu3+1 0.485350 0.478190 0.355090 1.027709
H1    H     H_    0.931212 0.353353 0.604861 0.184740
H2    H     H_    0.939778 0.510577 0.733701 0.239032
H3    H     H_    0.928077 0.666763 0.436561 0.019283
H4    H     H_    0.548149 0.949012 0.682775 0.168206
H5    H     H_    0.419010 0.075182 0.346305 0.135755
H6    H     H_    0.578482 0.631835 0.934380 0.177596
H7    H     H_    0.035652 0.290155 0.372691 0.201446
H8    H     H_    0.894559 0.308461 0.333724 0.204984
H9    H     H_    0.906058 0.440605 0.270099 0.224694
H10   H     H_    0.063620 0.639261 0.407544 0.113602
N1    N     N_2   0.463320 0.445430 0.137380 -0.050985
N2    N     N_2   0.536720 0.554500 0.862620 -0.321919
O1    O     O_R   0.507820 0.332330 0.577400 -0.535006
O2    O     O_R   0.483070 0.295500 0.332660 -0.618598
O3    O     O_R   0.391820 0.518430 0.622420 -0.517277
O4    O     O_R   0.367070 0.481600 0.377680 -0.580021
O5    O     O_R   0.516930 0.704500 0.667340 -0.586282
O6    O     O_R   0.492180 0.667670 0.422600 -0.521538
O7    O     O_R   0.632930 0.518400 0.622320 -0.556014
O8    O     O_R   0.608180 0.481570 0.377580 -0.579091
C23   C     C_2   0.107559 0.564185 0.786534 0.960344
O9    O     O_2   0.068458 0.637433 0.870863 -0.541799
O10   O     O_R   0.197174 0.573612 0.821880 -0.739467
H11   H     H_    0.221530 0.644160 0.918705 0.346103
C24   C     C_2   0.437594 0.845257 0.323613 0.941230
O11   O     O_2   0.369186 0.791208 0.327102 -0.603748
O12   O     O_R   0.459035 0.837963 0.190068 -0.741801
H12   H     H_    0.413845 0.782479 0.104151 0.332274
C25   C     C_2   0.625073 0.102718 0.548550 0.862816
O13   O     O_2   0.655431 0.211689 0.564248 -0.605541
O14   O     O_R   0.678047 0.020703 0.593748 -0.775436
H13   H     H_    0.738706 0.063472 0.639431 0.328198
O15   O     O_3   0.439123 0.375780 0.817637 -0.500501
C26   C     C_3   0.467216 0.254595 0.812414 0.121260
H14   H     H_    0.485421 0.246890 0.921348 0.106943
H15   H     H_    0.525433 0.237855 0.762922 0.158016
C27   C     C_3   0.395407 0.147470 0.721822 -0.776965
H16   H     H_    0.382903 0.142798 0.607380 0.248579
H17   H     H_    0.412748 0.052840 0.726721 0.197762
H18   H     H_    0.334614 0.166026 0.762381 0.251457
C28   C     C_2   0.601367 0.562290 0.155852 0.780359
O16   O     O_2   0.665679 0.511318 0.124276 -0.614710
O17   O     O_R   0.608899 0.685885 0.261068 -0.715245
H19   H     H_    0.670805 0.721583 0.307156 0.330086
C29   C     C_2   0.088259 0.333194 0.652930 0.780599
O18   O     O_2   0.136098 0.272324 0.576178 -0.600978
O19   O     O_R   0.060462 0.287058 0.755421 -0.770982
H20   H     H_    0.082260 0.201519 0.752438 0.332855
O20   O     O_3   0.380414 0.427050 0.069670 -0.451941
C30   C     C_3   0.341317 0.309194 0.069770 0.217572
H21   H     H_    0.345293 0.302811 0.178426 0.173021
H22   H     H_    0.371137 0.225079 0.007721 0.103414
C31   C     C_3   0.246972 0.294144 0.001404 -0.740237
H23   H     H_    0.215228 0.199942 0.995121 0.216587
H24   H     H_    0.215152 0.374289 0.068215 0.275644
H25   H     H_    0.240093 0.298285 0.890172 0.268556
C32   C     C_2   0.055122 0.380160 0.222244 0.859845
O21   O     O_2   0.083513 0.282466 0.151629 -0.599117
O22   O     O_R   0.044977 0.481600 0.168681 -0.771406
H26   H     H_    0.064403 0.463372 0.071960 0.363342
O23   O     O_3   0.110903 0.728793 0.630502 -0.536415
C33   C     C_3   0.127553 0.841447 0.596659 0.091617
H27   H     H_    0.135058 0.926664 0.698701 0.178821
H28   H     H_    0.074122 0.856757 0.518692 0.119256
C34   C     C_3   0.211161 0.837998 0.538662 -0.766366
H29   H     H_    0.205230 0.756071 0.434059 0.261319
H30   H     H_    0.226218 0.929879 0.520267 0.230059
H31   H     H_    0.264677 0.826325 0.618519 0.249297
O24   O     O_3   0.953619 0.724930 0.667473 -0.514719
C35   C     C_3   0.904748 0.825833 0.656406 0.065460
H32   H     H_    0.837828 0.786306 0.598781 0.143368
H33   H     H_    0.934422 0.881438 0.597655 0.127565
C36   C     C_3   0.901753 0.918222 0.808458 -0.671618
H34   H     H_    0.967847 0.959936 0.867945 0.262817
H35   H     H_    0.863591 0.998220 0.801292 0.194517
H36   H     H_    0.871476 0.865797 0.869448 0.250705

loop_
_geom_bond_atom_site_label_1
_geom_bond_atom_site_label_2
_ccdc_geom_bond_type
O14   H13   S    
O24   C35   S    
C2    C18   S    
Cu2   O6    S    
O20   C30   S    
C19   C20   S    
C3    C6    S    
C19   H7    S    
C4    H3    S    
C36   H34   S    
C7    C8    T    
C25   O13   D    
C30   H22   S    
O23   C33   S    
C33   H28   S    
C26   H15   S    
Cu1   O7    S    
C27   H17   S    
C23   O10   S    
C29   O19   S    
C10   C25   S    
C32   O22   S    
C5    C22   S    
O10   H11   S    
C24   O12   S    
C30   C31   S    
Cu2   O2    S    
Cu1   Cu2   S    
C34   H30   S    
C9    C10   D    
C27   H16   S    
C1    O1    A    
C5    O23   S    
C26   C27   S    
C31   H24   S    
C15   O15   S    
C29   O18   D    
C36   H35   S    
C32   O21   D    
C25   O14   S    
Cu2   N1    S    
C30   H21   S    
O12   H12   S    
C19   C22   S    
C1    C9    S    
C14   N1    D    
C33   H27   S    
C35   C36   S    
C28   O17   S    
C26   H14   S    
C31   H23   S    
C6    C21   T    
C33   C34   S    
C17   C21   S    
O17   H19   S    
C12   O4    A    
C27   H18   S    
C17   O7    A    
C11   C16   S    
O22   H26   S    
C8    C12   S    
C5    H10   S    
C3    C20   S    
C2    H2    S    
C34   H31   S    
C35   H33   S    
C1    O2    A    
C13   C24   S    
C20   H9    S    
C28   O16   D    
Cu2   O8    S    
C24   O11   D    
C3    C4    S    
C18   C23   S    
C16   O6    A    
C15   N2    D    
C36   H36   S    
C20   H8    S    
C31   H25   S    
N1    O20   S    
C18   C22   S    
C4    C5    S    
C10   C13   S    
C9    H5    S    
C7    C22   S    
Cu1   O5    S    
H6    N2    S    
C12   O3    A    
C2    C3    S    
C17   O8    A    
O19   H20   S    
Cu1   O1    S    
C11   C13   D    
O15   C26   S    
C11   H4    S    
C18   C29   S    
Cu1   O3    S    
Cu2   O4    S    
C14   C28   S    
C2    H1    S    
C35   H32   S    
C4    O24   S    
C23   O9    D    
Cu1   N2    S    
C14   C15   S    
C34   H29   S    
C19   C32   S    
C16   O5    A    
