data_mof_unit_29556.cif
_audit_creation_date              2012-10-26T21:14:55-0400
_audit_creation_method            fapswitch 2.2
_symmetry_space_group_name_H-M    P1
_symmetry_Int_Tables_number       1
_space_group_crystal_system       triclinic
_cell_length_a                    15.044091
_cell_length_b                    10.862675
_cell_length_c                    13.69076
_cell_angle_alpha                 90.47697
_cell_angle_beta                  89.478543
_cell_angle_gamma                 91.759341
_cell_volume                      2236.11154306

loop_
_atom_site_label
_atom_site_type_symbol
_atom_type_description
_atom_site_fract_x
_atom_site_fract_y
_atom_site_fract_z
_atom_type_partial_charge
C1    C     C_R   0.497721 0.261986 0.499440 0.543154
C2    C     C_R   0.563231 0.886158 0.675683 0.055087
C3    C     C_R   0.479038 0.104927 0.236574 -0.105622
C4    C     C_R   0.514448 0.892610 0.763456 -0.102535
C5    C     C_R   0.443734 0.156788 0.152762 -0.120530
C6    C     C_R   0.546369 0.838501 0.848067 -0.118785
C7    C     C_R   0.363218 0.217481 0.158116 -0.100666
C8    C     C_R   0.626813 0.777356 0.845433 -0.100055
C9    C     C_R   0.475077 0.931149 0.418025 -0.159047
C10   C     C_R   0.524727 0.068856 0.582651 -0.158664
C11   C     C_R   0.503583 0.871963 0.501964 -0.005997
C12   C     C_R   0.502302 0.738008 0.500653 0.543125
C13   C     C_R   0.496382 0.128022 0.498512 -0.006463
C14   C     C_R   0.529017 0.941607 0.585530 -0.034731
C15   C     C_R   0.470378 0.058280 0.415274 -0.033917
C16   C     C_R   0.329153 0.506161 0.500521 0.546431
C17   C     C_R   0.670853 0.494162 0.499527 0.546525
C18   C     C_R   0.559640 0.431860 0.791544 0.033477
C19   C     C_R   0.439951 0.567313 0.208227 0.034458
C20   C     C_R   0.439248 0.565975 0.793789 0.053942
C21   C     C_R   0.559769 0.432081 0.206295 0.054118
C22   C     C_R   0.433602 0.562734 0.897180 -0.009813
C23   C     C_R   0.051219 0.288963 0.452733 -0.126704
C24   C     C_R   0.559671 0.424811 0.102733 -0.007952
C25   C     C_R   0.497761 0.495721 0.948183 0.002420
C26   C     C_R   0.497920 0.496047 0.051701 0.002455
C27   C     C_R   0.562236 0.429316 0.895042 -0.017127
C28   C     C_R   0.436929 0.568726 0.104694 -0.016416
C29   C     C_R   0.367486 0.627040 0.950177 -0.001060
C30   C     C_R   0.620132 0.350510 0.049471 -0.000553
C31   C     C_R   0.373783 0.638881 0.053755 0.024197
C32   C     C_R   0.626300 0.360639 0.945686 0.023468
C33   C     C_R   0.813320 0.592500 0.532328 -0.148082
C34   C     C_R   0.948694 0.711275 0.548762 -0.126668
C35   C     C_R   0.186533 0.407953 0.468347 -0.146686
C36   C     C_R   0.767168 0.488511 0.498802 0.010342
C37   C     C_R   0.232808 0.511978 0.501513 0.010128
C38   C     C_R   0.812355 0.383655 0.465244 -0.018063
C39   C     C_R   0.187676 0.616644 0.535639 -0.018816
C40   C     C_R   0.907028 0.382109 0.475277 0.046741
C41   C     C_R   0.092936 0.618174 0.526054 0.046965
C42   C     C_R   0.953035 0.495250 0.501142 0.021857
C43   C     C_R   0.046891 0.505058 0.500186 0.021994
C44   C     C_R   0.905212 0.599072 0.528848 -0.009173
C45   C     C_R   0.317046 0.224477 0.246965 -0.103060
C46   C     C_R   0.094679 0.401260 0.472343 -0.009020
C47   C     C_R   0.958730 0.274846 0.459947 0.026181
C48   C     C_R   0.041216 0.725379 0.541741 0.026359
C49   C     C_3   0.288211 0.679244 0.898239 -0.416794
C50   C     C_3   0.675867 0.256508 0.100830 -0.418622
C51   C     C_3   0.315585 0.729458 0.109546 -0.283290
C52   C     C_3   0.370007 0.843683 0.141385 -0.442230
C53   C     C_3   0.702434 0.301245 0.889006 -0.279298
C54   C     C_3   0.770388 0.398468 0.852590 -0.441865
C55   C     C_3   0.760548 0.282775 0.410809 -0.401275
C56   C     C_R   0.676226 0.772078 0.758586 -0.101906
C57   C     C_3   0.239623 0.717216 0.590243 -0.402525
C58   C     C_3   0.922928 0.142338 0.465438 -0.268532
C59   C     C_3   0.887247 0.112123 0.567762 -0.439851
C60   C     C_3   0.077030 0.857939 0.536879 -0.268361
C61   C     C_3   0.112612 0.889013 0.434673 -0.439563
C62   C     C_R   0.351671 0.171426 0.330610 -0.061438
C63   C     C_R   0.644986 0.827370 0.674176 -0.058448
C64   C     C_R   0.433563 0.113219 0.326286 0.055387
Cu1   Cu    Cu3+1 0.500010 0.499980 0.597420 0.926167
Cu2   Cu    Cu3+1 0.499990 0.500020 0.402580 0.927599
H1    H     H_    0.776815 0.672008 0.555817 0.095148
H2    H     H_    0.908990 0.790962 0.564264 0.094846
H3    H     H_    0.336465 0.258570 0.093352 0.110461
H4    H     H_    0.650833 0.734151 0.910665 0.110709
H5    H     H_    0.254315 0.270531 0.250957 0.100697
H6    H     H_    0.738719 0.725276 0.756673 0.096787
H7    H     H_    0.315161 0.175198 0.398892 0.082449
H8    H     H_    0.683810 0.824235 0.607402 0.082131
H9    H     H_    0.541699 0.058681 0.231721 0.097956
H10   H     H_    0.451439 0.938217 0.765979 0.098027
H11   H     H_    0.478913 0.150267 0.083706 0.113701
H12   H     H_    0.222931 0.328486 0.444735 0.095233
H13   H     H_    0.508276 0.842772 0.915409 0.110835
H14   H     H_    0.276409 0.640316 0.824539 0.114472
H15   H     H_    0.225857 0.653339 0.937938 0.126645
H16   H     H_    0.295902 0.781016 0.893563 0.123877
H17   H     H_    0.746622 0.288618 0.102237 0.131565
H18   H     H_    0.653994 0.233904 0.175824 0.108411
H19   H     H_    0.669511 0.166362 0.062331 0.120293
H20   H     H_    0.327649 0.904966 0.185939 0.148452
H21   H     H_    0.428169 0.819017 0.185458 0.144104
H22   H     H_    0.394304 0.895006 0.076054 0.151292
H23   H     H_    0.453324 0.877889 0.354890 0.126457
H24   H     H_    0.259861 0.763450 0.066404 0.144771
H25   H     H_    0.282467 0.684369 0.173128 0.124427
H26   H     H_    0.739705 0.466363 0.804253 0.153411
H27   H     H_    0.800705 0.448414 0.915739 0.151811
H28   H     H_    0.823902 0.352836 0.810742 0.137712
H29   H     H_    0.740224 0.236057 0.932656 0.145546
H30   H     H_    0.676302 0.244166 0.827477 0.121926
H31   H     H_    0.694290 0.309337 0.386601 0.149959
H32   H     H_    0.795945 0.259528 0.341949 0.118351
H33   H     H_    0.748026 0.201471 0.457669 0.127308
H34   H     H_    0.546004 0.122056 0.646141 0.128803
H35   H     H_    0.305924 0.690478 0.614170 0.150125
H36   H     H_    0.252028 0.798804 0.543665 0.128030
H37   H     H_    0.204389 0.740059 0.659285 0.117066
H38   H     H_    0.942564 0.116545 0.620998 0.145849
H39   H     H_    0.836256 0.177615 0.592028 0.159171
H40   H     H_    0.857030 0.017577 0.568042 0.122328
H41   H     H_    0.874383 0.118009 0.408224 0.134688
H42   H     H_    0.976556 0.077081 0.449763 0.130066
H43   H     H_    0.163488 0.823626 0.409925 0.159270
H44   H     H_    0.057224 0.885207 0.381520 0.146143
H45   H     H_    0.604686 0.379896 0.747016 0.135280
H46   H     H_    0.142951 0.983491 0.434881 0.121916
H47   H     H_    0.023434 0.923103 0.553002 0.129843
H48   H     H_    0.125639 0.881782 0.594139 0.134724
H49   H     H_    0.394881 0.619473 0.252575 0.135750
H50   H     H_    0.397777 0.623699 0.751293 0.127620
H51   H     H_    0.608136 0.386644 0.249264 0.128030
H52   H     H_    0.090916 0.209254 0.437279 0.094558
N1    N     N_R   0.499960 0.499900 0.743810 -0.243156
N2    N     N_R   0.500040 0.500100 0.256190 -0.243935
O1    O     O_R   0.500000 0.319630 0.582270 -0.512504
O2    O     O_R   0.500000 0.680370 0.417730 -0.512922
O3    O     O_R   0.499990 0.319660 0.417730 -0.494993
O4    O     O_R   0.500010 0.680340 0.582270 -0.496482
O5    O     O_R   0.370260 0.499960 0.582280 -0.511403
O6    O     O_R   0.629740 0.500040 0.417720 -0.512299
O7    O     O_R   0.370250 0.499990 0.417740 -0.505874
O8    O     O_R   0.629750 0.500010 0.582260 -0.507834

loop_
_geom_bond_atom_site_label_1
_geom_bond_atom_site_label_2
_ccdc_geom_bond_type
C40   C47   A    
C38   C40   A    
C22   C29   A    
C53   H29   S    
C60   H48   S    
C61   H43   S    
C8    C56   A    
C23   H52   S    
C50   H18   S    
C39   C41   A    
C29   C49   S    
C3    C64   A    
C57   H36   S    
C59   H39   S    
C59   H38   S    
C7    C45   A    
C35   C37   A    
C24   C26   A    
C21   N2    A    
C51   H24   S    
C11   C14   A    
C17   O6    A    
C45   H5    S    
C39   C57   S    
C45   C62   A    
C33   C36   A    
Cu2   O7    S    
C58   H41   S    
Cu1   O4    S    
C49   H15   S    
C54   H27   S    
C62   C64   A    
C50   H19   S    
C51   H25   S    
C38   C55   S    
C56   H6    S    
C22   C25   A    
C21   H51   S    
C15   C64   S    
Cu2   O2    S    
C62   H7    S    
C17   C36   S    
Cu1   O1    S    
C3    H9    S    
C16   O5    A    
C16   C37   S    
C40   C42   A    
C30   C50   S    
C23   C46   A    
Cu2   N2    S    
C53   H30   S    
C41   C43   A    
C60   H47   S    
C42   C44   A    
C61   H44   S    
C43   C46   A    
C50   H17   S    
C48   C60   S    
C24   C30   A    
C28   C31   A    
C57   H37   S    
C59   H40   S    
C23   C47   A    
C51   C52   S    
Cu1   O8    S    
C52   H22   S    
C34   C44   A    
C18   H45   S    
C4    C6    A    
C10   C14   A    
C34   H2    S    
C5    C7    A    
C6    C8    A    
C58   C59   S    
C53   C54   S    
Cu2   O6    S    
C60   C61   S    
Cu1   O5    S    
C49   H16   S    
C2    C4    A    
C1    O3    A    
C54   H26   S    
C12   O4    A    
C19   H49   S    
C55   H31   S    
Cu1   N1    S    
C56   C63   A    
C12   O2    A    
C10   H34   S    
C19   C28   A    
C9    C11   A    
C20   C22   A    
C19   N2    A    
C13   C15   A    
C4    H10   S    
C1    C13   S    
C42   C43   A    
C9    H23   S    
C32   C53   S    
C2    C63   A    
C33   H1    S    
C20   H50   S    
C27   C32   A    
C33   C44   A    
C26   C28   A    
C52   H21   S    
C18   C27   A    
C31   C51   S    
C3    C5    A    
C10   C13   A    
C7    H3    S    
C11   C12   S    
C17   O8    A    
C63   H8    S    
C25   C27   A    
C57   H35   S    
C35   H12   S    
C8    H4    S    
C49   H14   S    
C52   H20   S    
C25   C26   A    
C37   C39   A    
C47   C58   S    
C30   C32   A    
C35   C46   A    
C6    H13   S    
C55   H32   S    
C36   C38   A    
C41   C48   A    
C58   H42   S    
C9    C15   A    
C2    C14   S    
C16   O7    A    
C1    O1    A    
C54   H28   S    
C34   C48   A    
C29   C31   A    
Cu1   Cu2   S    
C21   C24   A    
C55   H33   S    
Cu2   O3    S    
C61   H46   S    
C5    H11   S    
C18   N1    A    
C20   N1    A    
