data_mof_unit_34258.cif
_audit_creation_date              2012-10-26T19:52:50-0400
_audit_creation_method            fapswitch 2.2
_symmetry_space_group_name_H-M    P1
_symmetry_Int_Tables_number       1
_space_group_crystal_system       triclinic
_cell_length_a                    15.082228
_cell_length_b                    10.827107
_cell_length_c                    9.548249
_cell_angle_alpha                 89.582576
_cell_angle_beta                  90.358826
_cell_angle_gamma                 89.621204
_cell_volume                      1559.09292382

loop_
_atom_site_label
_atom_site_type_symbol
_atom_type_description
_atom_site_fract_x
_atom_site_fract_y
_atom_site_fract_z
_atom_type_partial_charge
C1    C     C_R   0.498799 0.262274 0.500211 0.548885
C2    C     C_R   0.185732 0.478150 0.622244 -0.141223
C3    C     C_R   0.231823 0.501449 0.498425 -0.017543
C4    C     C_R   0.328658 0.500134 0.499568 0.549263
C5    C     C_R   0.185558 0.526723 0.373590 -0.140595
C6    C     C_R   0.458455 0.062587 0.611634 0.015447
C7    C     C_R   0.491687 0.129023 0.497708 0.000878
C8    C     C_R   0.511558 0.064923 0.374032 -0.161210
C9    C     C_R   0.510583 0.936343 0.372812 -0.162529
C10   C     C_R   0.490290 0.870529 0.495712 0.006330
C11   C     C_R   0.458081 0.935406 0.610510 -0.000707
C12   C     C_R   0.906033 0.530295 0.373468 -0.005352
C13   C     C_3   0.478886 0.924775 0.763020 -0.239202
C14   C     C_3   0.480052 0.065813 0.764806 -0.110726
C15   C     C_R   0.575967 0.476896 0.074846 0.159392
C16   C     C_R   0.498299 0.737549 0.499307 0.551822
C17   C     C_R   0.427418 0.539077 0.073270 -0.019001
C18   C     C_R   0.427443 0.539172 0.924616 -0.025722
C19   C     C_R   0.575913 0.476211 0.927544 0.161365
C20   C     C_3   0.628795 0.359283 0.925606 -0.279966
C21   C     C_3   0.630103 0.361805 0.084400 -0.275529
C22   C     C_R   0.671386 0.501313 0.500198 0.549512
C23   C     C_R   0.955544 0.457050 0.747608 -0.138000
C24   C     C_R   0.813578 0.528392 0.374956 -0.141643
C25   C     C_R   0.768277 0.504391 0.499972 -0.011925
C26   C     C_R   0.815833 0.483368 0.624348 -0.137942
C27   C     C_R   0.908158 0.482461 0.624077 0.017181
C28   C     C_R   0.953671 0.506289 0.498007 0.055227
C29   C     C_3   0.405314 0.125275 0.850651 -0.274689
C30   C     C_3   0.422569 0.111257 0.007519 -0.445483
C31   C     C_3   0.088130 0.589845 0.108119 -0.281028
C32   C     C_3   0.123425 0.721765 0.107843 -0.437594
C33   C     C_R   0.047774 0.454599 0.746379 -0.137548
C34   C     C_R   0.093587 0.479465 0.622316 0.014440
C35   C     C_R   0.046660 0.505699 0.496793 0.044307
C36   C     C_R   0.092584 0.530642 0.370697 0.024062
C37   C     C_R   0.044046 0.557940 0.245965 0.020836
C38   C     C_R   0.951101 0.556007 0.249262 -0.126005
Cu1   Cu    Cu3+1 0.500000 0.499980 0.640670 0.925359
Cu2   Cu    Cu3+1 0.500000 0.500020 0.359330 0.929820
H1    H     H_    0.776963 0.546509 0.278813 0.120237
H2    H     H_    0.594082 0.284083 0.133902 0.139777
H3    H     H_    0.781228 0.466520 0.721207 0.114389
H4    H     H_    0.697150 0.378963 0.128819 0.122659
H5    H     H_    0.921290 0.438095 0.844809 0.099516
H6    H     H_    0.083439 0.432867 0.842334 0.098305
H7    H     H_    0.221541 0.458006 0.718697 0.115698
H8    H     H_    0.223038 0.543870 0.279554 0.123424
H9    H     H_    0.913455 0.575778 0.154462 0.099025
H10   H     H_    0.532840 0.113317 0.280767 0.124548
H11   H     H_    0.422315 0.012322 0.038947 0.150630
H12   H     H_    0.530976 0.889115 0.278585 0.134116
H13   H     H_    0.487594 0.151623 0.035129 0.141705
H14   H     H_    0.370062 0.160456 0.066532 0.149789
H15   H     H_    0.401255 0.225347 0.824630 0.180254
H16   H     H_    0.340208 0.083318 0.824379 0.150027
H17   H     H_    0.068009 0.788365 0.122859 0.158911
H18   H     H_    0.173322 0.735157 0.192101 0.149570
H19   H     H_    0.155177 0.741729 0.005603 0.133397
H20   H     H_    0.141907 0.522799 0.084502 0.124653
H21   H     H_    0.039731 0.582927 0.020367 0.140527
H22   H     H_    0.423490 0.882001 0.821974 0.136374
H23   H     H_    0.545136 0.882548 0.783706 0.134664
H24   H     H_    0.547071 0.103448 0.785629 0.134985
H25   H     H_    0.368175 0.567830 0.127434 0.111552
H26   H     H_    0.368217 0.568147 0.868910 0.114855
H27   H     H_    0.590644 0.281303 0.882321 0.140710
H28   H     H_    0.695534 0.371463 0.880139 0.114397
N1    N     N_R   0.500570 0.500930 0.147930 -0.230835
N2    N     N_R   0.500570 0.500890 0.852020 -0.234144
O1    O     O_R   0.500000 0.319640 0.618810 -0.508069
O2    O     O_R   0.500010 0.319680 0.381230 -0.504923
O3    O     O_R   0.370250 0.499950 0.618800 -0.517608
O4    O     O_R   0.370260 0.499990 0.381220 -0.513452
O5    O     O_R   0.499990 0.680320 0.618770 -0.498824
O6    O     O_R   0.500000 0.680360 0.381190 -0.505501
O7    O     O_R   0.629740 0.500010 0.618780 -0.502500
O8    O     O_R   0.629750 0.500050 0.381200 -0.505802

loop_
_geom_bond_atom_site_label_1
_geom_bond_atom_site_label_2
_ccdc_geom_bond_type
C18   N2    A    
C30   H11   S    
C17   N1    A    
C23   H5    S    
C16   O5    A    
C31   H21   S    
C20   H27   S    
C35   C36   A    
C32   H18   S    
C7    C8    A    
C38   H9    S    
C15   C19   A    
C30   H14   S    
C26   C27   A    
C1    O1    A    
C12   C28   A    
Cu1   O7    S    
C36   C37   A    
C37   C38   A    
C5    C36   A    
C34   C35   A    
C13   H22   S    
C19   C20   S    
C28   C35   A    
C8    C9    A    
C23   C33   A    
C22   C25   S    
C23   C27   A    
C9    C10   A    
C4    O4    A    
C2    C34   A    
C1    C7    S    
C13   C14   S    
C33   H6    S    
C9    H12   S    
C24   H1    S    
C32   H17   S    
C30   H13   S    
C26   H3    S    
C17   C18   A    
C15   N1    A    
C5    H8    S    
C1    O2    A    
Cu2   N1    S    
C24   C25   A    
C22   O8    A    
C6    C11   A    
C29   H15   S    
C25   C26   A    
Cu2   O6    S    
C31   H20   S    
C29   C30   S    
C6    C14   S    
C21   H4    S    
C31   C32   S    
C13   H23   S    
C14   H24   S    
C33   C34   A    
C4    O3    A    
Cu1   O5    S    
Cu2   O8    S    
C14   C29   S    
C3    C4    S    
C8    H10   S    
Cu1   Cu2   S    
Cu2   O2    S    
C16   O6    A    
C20   H28   S    
C22   O7    A    
C3    C5    A    
C6    C7    A    
C29   H16   S    
C2    H7    S    
C18   H26   S    
C12   C24   A    
C17   H25   S    
C2    C3    A    
C10   C16   S    
C11   C13   S    
Cu1   N2    S    
Cu2   O4    S    
Cu1   O3    S    
C12   C38   A    
C10   C11   A    
C21   H2    S    
C31   C37   S    
C15   C21   S    
C20   C21   S    
C27   C28   A    
Cu1   O1    S    
C19   N2    A    
C32   H19   S    
