data_mof_unit_6918.cif
_audit_creation_date              2012-12-11T15:53:42-0500
_audit_creation_method            fapswitch 2.2
_symmetry_space_group_name_H-M    P1
_symmetry_Int_Tables_number       1
_space_group_crystal_system       triclinic
_cell_length_a                    10.673272
_cell_length_b                    10.707516
_cell_length_c                    16.997766
_cell_angle_alpha                 80.559414
_cell_angle_beta                  99.513556
_cell_angle_gamma                 119.06065
_cell_volume                      1666.7444891

loop_
_atom_site_label
_atom_site_type_symbol
_atom_type_description
_atom_site_fract_x
_atom_site_fract_y
_atom_site_fract_z
_atom_type_partial_charge
C1    C     C_R   0.384966 0.284883 0.631941 0.534582
C2    C     C_1   0.333994 0.187829 0.781726 -0.039442
C3    C     C_1   0.317789 0.683799 0.280470 0.010066
C4    C     C_R   0.414179 0.620049 0.601920 0.540828
C5    C     C_1   0.296655 0.707618 0.209762 -0.005820
C6    C     C_R   0.865240 0.682873 0.166996 -0.005039
C7    C     C_R   0.904284 0.593747 0.222958 0.060593
C8    C     C_R   0.894660 0.586981 0.302930 -0.059164
C9    C     C_R   0.836088 0.782674 0.275964 -0.156678
C10   C     C_R   0.843148 0.786566 0.194378 -0.164600
C11   C     C_3   0.854741 0.435949 0.226444 0.445598
C12   C     C_R   0.515528 0.713762 0.735041 -0.150093
C13   C     C_3   0.844398 0.427665 0.315105 -0.157059
C14   C     C_R   0.847430 0.672360 0.329517 0.001249
C15   C     C_R   0.296896 0.114440 0.172067 0.007355
C16   C     C_R   0.781126 0.621137 0.626192 0.531666
C17   C     C_R   0.180713 0.106640 0.203423 -0.022267
C18   C     C_R   0.190614 0.125697 0.281899 -0.001447
C19   C     C_R   0.417983 0.121005 0.306107 -0.165709
C20   C     C_R   0.408746 0.104916 0.225143 -0.160157
C21   C     C_3   0.096006 0.185190 0.173791 -0.216052
C22   C     C_3   0.111270 0.213323 0.259989 0.144607
C23   C     C_R   0.493063 0.729914 0.810788 -0.129915
C24   C     C_R   0.315118 0.146258 0.332663 0.007282
C25   C     C_R   0.947539 0.725173 0.851686 0.556542
C26   C     C_R   0.316238 0.705673 0.898529 0.549120
C27   C     C_R   0.286747 0.118892 0.858501 0.548887
C28   C     C_R   0.349249 0.222759 0.401540 0.562266
C29   C     C_R   0.891709 0.692964 0.085621 0.561652
C30   C     C_R   0.284508 0.739059 0.125502 0.557680
C31   C     C_R   0.280381 0.097714 0.088485 0.551211
C32   C     C_R   0.361836 0.657493 0.361889 0.567965
C33   C     C_R   0.775371 0.624372 0.401287 0.553170
C34   C     C_3   0.094236 0.484505 0.773253 -0.221450
C35   C     C_R   0.354504 0.651122 0.837814 0.010931
C36   C     C_R   0.251538 0.535253 0.796193 -0.035873
C37   C     C_R   0.274696 0.518134 0.721769 0.014311
C38   C     C_3   0.119023 0.465774 0.691262 0.126395
C39   C     C_R   0.400240 0.617740 0.686269 -0.019473
C40   C     C_1   0.850129 0.669546 0.702684 -0.051505
C41   C     C_1   0.897160 0.704095 0.769395 -0.052190
C42   C     C_1   0.365398 0.234818 0.714480 -0.031576
Cr1   Cr    Cr6+3 0.608440 0.389080 0.519680 1.038230
Cr2   Cr    Cr6+3 0.288640 0.400090 0.490760 1.076997
Cr3   Cr    Cr6+3 0.602940 0.710800 0.489510 1.020052
Cr4   Cr    Cr6+3 0.052530 0.947560 0.964210 1.012982
Cr5   Cr    Cr6+3 0.059970 0.626800 0.992920 1.022967
Cr6   Cr    Cr6+3 0.373320 0.938440 0.995370 1.031560
H1    H     H_    0.618869 0.784460 0.712244 0.150784
H2    H     H_    0.824677 0.865293 0.152710 0.138123
H3    H     H_    0.653395 0.390355 0.191593 0.304365
H4    H     H_    0.983370 0.113026 0.151330 0.114781
H5    H     H_    0.291901 0.394682 0.250017 0.317361
H6    H     H_    0.007283 0.164587 0.286665 0.168538
H7    H     H_    0.579600 0.814825 0.843713 0.152649
H8    H     H_    0.064391 0.570809 0.771193 0.120575
H9    H     H_    0.076952 0.264212 0.718030 0.340597
H10   H     H_    0.949723 0.394526 0.154009 0.368483
H11   H     H_    0.732005 0.361853 0.331026 0.130935
H12   H     H_    0.924568 0.401607 0.354352 0.161749
H13   H     H_    0.511827 0.128298 0.345220 0.141919
H14   H     H_    0.492191 0.093174 0.203744 0.183039
H15   H     H_    0.153374 0.282808 0.132546 0.160146
H16   H     H_    0.026535 0.382440 0.808462 0.159060
H17   H     H_    0.100087 0.538361 0.641670 0.169985
H18   H     H_    0.805546 0.854931 0.295110 0.141327
O1    O     O_R   0.754020 0.497590 0.609930 -0.497353
O2    O     O_R   0.406180 0.826930 0.920660 -0.512989
O3    O     O_R   0.358620 0.062870 0.901950 -0.485989
O4    O     O_R   0.481420 0.271390 0.600630 -0.482329
O5    O     O_R   0.163910 0.085460 0.050210 -0.519483
O6    O     O_R   0.935200 0.815170 0.045770 -0.506640
O7    O     O_R   0.916120 0.596690 0.069430 -0.496800
O8    O     O_R   0.192310 0.631200 0.086170 -0.488034
O9    O     O_R   0.406770 0.819480 0.096420 -0.513929
O10   O     O_R   0.359170 0.055960 0.064880 -0.508845
O11   O     O_3   0.161940 0.837600 0.984160 -0.296670
O12   O     O_R   0.295080 0.533620 0.397890 -0.445785
O13   O     O_R   0.263810 0.254550 0.589590 -0.485251
O14   O     O_R   0.300820 0.531200 0.560890 -0.491687
O15   O     O_R   0.491480 0.744020 0.564270 -0.504399
O16   O     O_R   0.726290 0.693800 0.583010 -0.516552
O17   O     O_R   0.747830 0.500190 0.434090 -0.522157
O18   O     O_R   0.475680 0.273800 0.437630 -0.506745
O19   O     O_R   0.257620 0.257160 0.413750 -0.472136
O20   O     O_3   0.721727 0.357898 0.181691 -0.700496
O21   O     O_3   0.197323 0.360135 0.270497 -0.625055
O22   O     O_3   0.048829 0.321695 0.673788 -0.665143
O23   O     O_R   0.485280 0.746620 0.388440 -0.522573
O24   O     O_3   0.962322 0.405851 0.211957 -0.636441
O25   O     O_R   0.720550 0.696220 0.420010 -0.502094
O26   O     O_3   0.500010 0.499990 0.499980 -0.300539
O27   O     O_R   0.163320 0.092900 0.874450 -0.517177
O28   O     O_R   0.934650 0.822080 0.882840 -0.485734
O29   O     O_R   0.915520 0.604140 0.893670 -0.503882
O30   O     O_R   0.191760 0.638110 0.923230 -0.512746

loop_
_geom_bond_atom_site_label_1
_geom_bond_atom_site_label_2
_ccdc_geom_bond_type
C34   H8    S    
C8    C13   S    
C28   O18   A    
Cr1   O17   S    
Cr6   O10   S    
C19   C20   A    
Cr6   O3    S    
C14   C33   S    
C12   H1    S    
C7    C8    A    
C22   H6    S    
C13   H12   S    
C7    C11   S    
C12   C23   A    
C18   C24   A    
C36   C37   A    
C19   H13   S    
C4    O14   A    
C33   O25   A    
C30   O8    A    
C29   O7    A    
C11   O20   S    
Cr3   O26   S    
C9    H18   S    
C4    O15   A    
Cr3   O16   S    
Cr5   O30   S    
C38   H17   S    
C2    C27   S    
Cr3   O23   S    
C9    C10   A    
Cr4   O6    S    
Cr2   O26   S    
C29   O6    A    
C31   O5    A    
C25   O28   A    
C34   C38   S    
C21   C22   S    
Cr1   O18   S    
Cr6   O9    S    
H3    O20   S    
C16   O16   A    
C26   O30   A    
C15   C20   A    
Cr2   O14   S    
Cr5   O7    S    
C25   C41   S    
C17   C21   S    
C38   O22   S    
C35   C36   A    
Cr6   O11   S    
C9    C14   A    
C37   C38   S    
C33   O17   A    
C1    C42   S    
C32   O23   A    
Cr4   O28   S    
C4    C39   S    
C34   H16   S    
C17   C18   A    
H5    O21   S    
C16   O1    A    
C22   O21   S    
Cr6   O2    S    
C15   C31   S    
H10   O24   S    
Cr4   O5    S    
C16   C40   S    
Cr1   O26   S    
C40   C41   T    
C25   O29   A    
Cr1   O4    S    
C23   C35   A    
C1    O13   A    
C27   O27   A    
Cr5   O11   S    
Cr2   O19   S    
C10   H2    S    
C5    C30   S    
C15   C17   A    
C8    C14   A    
C18   C22   S    
Cr2   O13   S    
Cr3   O15   S    
C24   C28   S    
Cr5   O8    S    
C3    C5    T    
C27   O3    A    
C6    C10   A    
Cr4   O11   S    
C23   H7    S    
C6    C7    A    
C13   H11   S    
C1    O4    A    
H9    O22   S    
C26   O2    A    
C12   C39   A    
Cr2   O12   S    
C19   C24   A    
C37   C39   A    
C30   O9    A    
C11   C13   S    
C11   O24   S    
C31   O10   A    
Cr4   O27   S    
C2    C42   T    
C34   C36   S    
C20   H14   S    
C3    C32   S    
Cr3   O25   S    
C21   H15   S    
C32   O12   A    
C26   C35   S    
C6    C29   S    
Cr1   O1    S    
C28   O19   A    
Cr5   O29   S    
C21   H4    S    
