data_mof_unit_40024.cif
_audit_creation_date              2012-12-11T14:28:27-0500
_audit_creation_method            fapswitch 2.2
_symmetry_space_group_name_H-M    P1
_symmetry_Int_Tables_number       1
_space_group_crystal_system       triclinic
_cell_length_a                    10.948536
_cell_length_b                    19.386371
_cell_length_c                    18.415647
_cell_angle_alpha                 90.045061
_cell_angle_beta                  89.725287
_cell_angle_gamma                 89.721519
_cell_volume                      3908.67254081

loop_
_atom_site_label
_atom_site_type_symbol
_atom_type_description
_atom_site_fract_x
_atom_site_fract_y
_atom_site_fract_z
_atom_type_partial_charge
C1    C     C_R   0.321934 0.968840 0.646204 0.609647
C2    C     C_3   0.152087 0.728955 0.033213 -0.082197
C3    C     C_3   0.155782 0.218012 0.968114 -0.117263
C4    C     C_3   0.444148 0.269480 0.491663 -0.115729
C5    C     C_3   0.498685 0.291086 0.020209 -0.096564
C6    C     C_3   0.643783 0.765816 0.533368 -0.092317
C7    C     C_3   0.616757 0.697491 0.973385 -0.069032
C8    C     C_3   0.161206 0.754870 0.515445 -0.146620
C9    C     C_3   0.115395 0.792836 0.988502 -0.099494
C10   C     C_3   0.106342 0.320684 0.468740 -0.102149
C11   C     C_3   0.178634 0.279500 0.018793 -0.138103
C12   C     C_3   0.562580 0.305078 0.517322 -0.088314
C13   C     C_3   0.972867 0.320118 0.496136 -0.138288
C14   C     C_3   0.630634 0.288053 0.991466 -0.099145
C15   C     C_3   0.619015 0.816640 0.471880 -0.090435
C16   C     C_3   0.686057 0.748509 0.020875 -0.160287
C17   C     C_3   0.070617 0.744480 0.577532 0.060586
C18   C     C_3   0.082209 0.744962 0.926081 0.056822
C19   C     C_3   0.082124 0.253620 0.427547 0.047962
C20   C     C_3   0.084849 0.250457 0.072520 0.053977
C21   C     C_3   0.580038 0.246771 0.572747 0.052178
C22   C     C_3   0.584326 0.246047 0.927252 0.051916
C23   C     C_3   0.575656 0.756001 0.425228 0.061701
C24   C     C_3   0.076765 0.321694 0.983709 -0.123455
C25   C     C_3   0.579325 0.750867 0.074497 0.053456
C26   C     C_3   0.971264 0.783143 0.536177 -0.103420
C27   C     C_3   0.950814 0.739375 0.951537 -0.135075
C28   C     C_3   0.124141 0.210276 0.491980 -0.100623
C29   C     C_3   0.061021 0.188938 0.022053 -0.066183
C30   C     C_3   0.462071 0.211436 0.548684 -0.136982
C31   C     C_3   0.453243 0.249306 0.954300 -0.139628
C32   C     C_3   0.599917 0.705128 0.486602 -0.108254
C33   C     C_3   0.509340 0.699253 0.027853 -0.074750
C34   C     C_3   0.931575 0.713179 0.502532 -0.149896
C35   C     C_3   0.637784 0.262950 0.461866 -0.099792
C36   C     C_3   0.986699 0.675652 0.997814 -0.135085
C37   C     C_3   0.991099 0.209661 0.519520 -0.086554
C38   C     C_3   0.958507 0.231817 0.985832 -0.100287
C39   C     C_3   0.538150 0.169899 0.492840 -0.124201
C40   C     C_3   0.475089 0.181161 0.996560 -0.139049
C41   C     C_3   0.467647 0.715935 0.513483 -0.110944
C42   C     C_3   0.453588 0.761666 0.986781 -0.119176
C43   C     C_3   0.031850 0.675199 0.546044 -0.105173
C44   C     C_3   0.119347 0.681230 0.970222 -0.091720
C45   C     C_3   0.949842 0.252455 0.453263 -0.137068
C46   C     C_3   0.652974 0.220259 0.032697 -0.092383
C47   C     C_3   0.982573 0.292968 0.038053 -0.140685
C48   C     C_3   0.655889 0.204997 0.517510 -0.107382
C49   C     C_3   0.607642 0.178270 0.967750 -0.098954
C50   C     C_3   0.443970 0.766686 0.450101 -0.132203
C51   C     C_3   0.524616 0.812842 0.035196 -0.113653
C52   C     C_3   0.486684 0.827344 0.498743 -0.133945
C53   C     C_3   0.632384 0.810939 0.981056 -0.124919
C54   C     C_3   0.023658 0.723992 0.440525 0.044593
C55   C     C_3   0.020205 0.723931 0.060418 0.036562
C56   C     C_3   0.015913 0.276733 0.560804 0.052622
C57   C     C_R   0.318867 0.967713 0.855618 0.652751
C58   C     C_3   0.055208 0.260255 0.933287 0.073710
C59   C     C_3   0.521159 0.227490 0.437887 0.050526
C60   C     C_3   0.521425 0.223574 0.060949 0.045814
C61   C     C_3   0.512917 0.776419 0.560082 0.041814
C62   C     C_3   0.562720 0.759507 0.933632 0.073576
C63   C     C_R   0.320540 0.004581 0.430760 -0.034502
C64   C     C_R   0.339928 0.986427 0.082159 0.040181
C65   C     C_R   0.336958 0.013913 0.582251 0.043422
C66   C     C_R   0.322822 0.995848 0.930800 0.017794
C67   C     C_R   0.824136 0.505340 0.431101 -0.028129
C68   C     C_R   0.318619 0.032621 0.355706 0.632920
C69   C     C_R   0.838675 0.484732 0.082867 0.045742
C70   C     C_R   0.841770 0.512949 0.582342 0.033410
C71   C     C_R   0.821785 0.494848 0.931397 0.011303
C72   C     C_R   0.543452 0.980399 0.426300 0.386358
C73   C     C_R   0.563474 0.986626 0.073779 0.387436
C74   C     C_R   0.560157 0.012544 0.573893 0.399743
C75   C     C_R   0.547283 0.015171 0.925610 0.383900
C76   C     C_R   0.048510 0.483767 0.424498 0.386160
C77   C     C_R   0.061475 0.484153 0.074683 0.397911
C78   C     C_R   0.066846 0.505999 0.573559 0.377535
C79   C     C_R   0.322525 0.031575 0.145887 0.613706
C80   C     C_R   0.045358 0.516765 0.927224 0.382733
C81   C     C_R   0.656706 0.984801 0.459762 -0.171165
C82   C     C_R   0.668749 0.993995 0.032419 -0.159615
C83   C     C_R   0.665136 0.000771 0.533238 -0.170120
C84   C     C_R   0.660594 0.008044 0.958586 -0.179215
C85   C     C_R   0.162440 0.488574 0.457122 -0.176907
C86   C     C_R   0.166563 0.495867 0.034390 -0.166287
C87   C     C_R   0.171481 0.498800 0.531468 -0.166220
C88   C     C_R   0.158482 0.512115 0.960925 -0.179447
C89   C     C_R   0.444240 0.007967 0.541043 -0.076806
C90   C     C_R   0.822667 0.468094 0.645795 0.606007
C91   C     C_R   0.438863 0.001217 0.964875 -0.071513
C92   C     C_R   0.435635 0.997623 0.465107 -0.088894
C93   C     C_R   0.447498 0.992238 0.040948 -0.082926
C94   C     C_R   0.949751 0.505216 0.540885 -0.077610
C95   C     C_R   0.937504 0.499800 0.965734 -0.084766
C96   C     C_R   0.940560 0.498353 0.464561 -0.067300
C97   C     C_R   0.946014 0.489279 0.041629 -0.077472
C98   C     C_R   0.229061 0.032747 0.548317 -0.073263
C99   C     C_R   0.215792 0.987623 0.975812 -0.081196
C100  C     C_R   0.212153 0.012295 0.475244 -0.100211
C101  C     C_R   0.818658 0.467277 0.855940 0.655394
C102  C     C_R   0.233441 0.966359 0.048272 -0.077799
C103  C     C_R   0.735678 0.534841 0.548873 -0.078515
C104  C     C_R   0.714242 0.487173 0.976276 -0.083335
C105  C     C_R   0.717392 0.513844 0.476459 -0.109201
C106  C     C_R   0.731545 0.465739 0.048935 -0.073198
C107  C     C_R   0.131123 0.059533 0.590145 0.268322
C108  C     C_R   0.091884 0.995634 0.952722 0.284158
C109  C     C_R   0.087566 0.003544 0.452005 0.231635
C110  C     C_R   0.137427 0.936862 0.089215 0.211492
C111  C     C_R   0.639616 0.564760 0.590142 0.266276
C112  C     C_R   0.819216 0.532705 0.355800 0.640382
C113  C     C_R   0.590181 0.497728 0.953870 0.276418
C114  C     C_R   0.593093 0.505737 0.454083 0.236799
C115  C     C_R   0.634273 0.439117 0.090917 0.210940
C116  C     C_R   0.012986 0.050851 0.565516 -0.149147
C117  C     C_R   0.997387 0.970080 0.995524 -0.143271
C118  C     C_R   0.992264 0.024988 0.497030 -0.154275
C119  C     C_R   0.019199 0.941737 0.063005 -0.182004
C120  C     C_R   0.521284 0.561826 0.563636 -0.144486
C121  C     C_R   0.494999 0.477753 0.999309 -0.137713
C122  C     C_R   0.498782 0.532832 0.496579 -0.156427
C123  C     C_R   0.822393 0.530953 0.146234 0.612099
C124  C     C_R   0.515863 0.450253 0.067226 -0.182099
C125  C     C_R   0.126006 0.755999 0.647811 0.556117
C126  C     C_R   0.131605 0.757137 0.854866 0.561836
C127  C     C_R   0.133046 0.242312 0.355875 0.547907
C128  C     C_R   0.129327 0.243056 0.145879 0.563222
C129  C     C_R   0.630733 0.257218 0.644872 0.557379
C130  C     C_R   0.632737 0.257559 0.855531 0.563501
C131  C     C_R   0.630067 0.743278 0.354500 0.550239
C132  C     C_R   0.626248 0.743725 0.147481 0.559546
C133  C     C_R   0.493250 0.788629 0.637863 0.561562
C134  C     C_3   0.123218 0.685279 0.482961 -0.112004
C135  C     C_R   0.539703 0.770949 0.856707 0.577425
C136  C     C_R   0.495273 0.212470 0.362427 0.533867
C137  C     C_R   0.494944 0.211572 0.137571 0.556882
C138  C     C_R   0.993260 0.288869 0.637971 0.560380
C139  C     C_R   0.038039 0.271243 0.856685 0.578206
C140  C     C_R   0.997488 0.712603 0.363177 0.541486
C141  C     C_R   0.995263 0.711826 0.137441 0.554283
C142  C     C_3   0.062196 0.792986 0.473216 -0.076448
C143  C     C_3   0.982656 0.787447 0.015819 -0.108256
C144  C     C_3   0.147971 0.277451 0.533708 -0.099627
Cr1   Cr    Cr6+3 0.488160 0.884660 0.750000 1.143202
Cr2   Cr    Cr6+3 0.333410 0.272740 0.250000 1.155024
Cr3   Cr    Cr6+3 0.833410 0.227260 0.750000 1.084067
Cr4   Cr    Cr6+3 0.833410 0.772740 0.250000 1.161281
Cr5   Cr    Cr6+3 0.488160 0.115340 0.250000 1.147551
Cr6   Cr    Cr6+3 0.988160 0.384660 0.750000 1.149992
Cr7   Cr    Cr6+3 0.988160 0.615340 0.250000 1.144157
Cr8   Cr    Cr6+3 0.173480 0.883120 0.750000 1.114378
Cr9   Cr    Cr6+3 0.173480 0.116880 0.250000 1.095113
Cr10  Cr    Cr6+3 0.673480 0.383120 0.750000 1.121652
Cr11  Cr    Cr6+3 0.673480 0.616880 0.250000 1.086897
Cr12  Cr    Cr6+3 0.333410 0.727260 0.750000 1.080254
F1    F     F_    0.539549 0.953445 0.358235 -0.568226
F2    F     F_    0.575667 0.966915 0.144159 -0.574449
F3    F     F_    0.572690 0.034177 0.643636 -0.566670
F4    F     F_    0.544595 0.042174 0.857563 -0.576662
F5    F     F_    0.044732 0.457652 0.356063 -0.570764
F6    F     F_    0.073336 0.463343 0.144734 -0.568693
F7    F     F_    0.082086 0.523144 0.644485 -0.580420
F8    F     F_    0.041636 0.544275 0.859439 -0.573808
H1    H     H_    0.251330 0.777362 0.526028 0.098918
H2    H     H_    0.905399 0.972358 0.976138 0.137210
H3    H     H_    0.899955 0.022077 0.478210 0.138350
H4    H     H_    0.942686 0.923240 0.094552 0.131395
H5    H     H_    0.445227 0.581566 0.595168 0.174941
H6    H     H_    0.402925 0.483225 0.981174 0.139634
H7    H     H_    0.406331 0.531137 0.477365 0.134167
H8    H     H_    0.438175 0.435013 0.099718 0.119607
H9    H     H_    0.085504 0.841294 0.447646 0.185805
H10   H     H_    0.917014 0.827120 0.034069 0.125794
H11   H     H_    0.226953 0.289089 0.569092 0.164659
H12   H     H_    0.170469 0.840082 0.981259 0.116559
H13   H     H_    0.224888 0.186768 0.938796 0.164837
H14   H     H_    0.361005 0.296980 0.474215 0.151701
H15   H     H_    0.448646 0.333629 0.045094 0.129369
H16   H     H_    0.725161 0.769237 0.568259 0.174394
H17   H     H_    0.668843 0.652422 0.954006 0.183427
H18   H     H_    0.911868 0.824353 0.559077 0.132234
H19   H     H_    0.871415 0.744049 0.914586 0.144260
H20   H     H_    0.188021 0.165921 0.487548 0.115705
H21   H     H_    0.053079 0.134333 0.039560 0.166501
H22   H     H_    0.392047 0.189628 0.585554 0.188252
H23   H     H_    0.162491 0.361546 0.444719 0.183263
H24   H     H_    0.378058 0.264459 0.917458 0.135677
H25   H     H_    0.646669 0.655330 0.477060 0.117703
H26   H     H_    0.456798 0.654486 0.048553 0.152878
H27   H     H_    0.840554 0.691140 0.493778 0.101563
H28   H     H_    0.928665 0.629739 0.004974 0.110767
H29   H     H_    0.936184 0.168577 0.543435 0.126208
H30   H     H_    0.869102 0.212867 0.967124 0.154294
H31   H     H_    0.531243 0.116265 0.475426 0.124790
H32   H     H_    0.409583 0.138038 0.001460 0.111557
H33   H     H_    0.399349 0.677453 0.530954 0.124398
H34   H     H_    0.264200 0.303772 0.034697 0.130289
H35   H     H_    0.358968 0.768017 0.967425 0.113139
H36   H     H_    0.013830 0.632206 0.583224 0.196760
H37   H     H_    0.182456 0.641302 0.949584 0.172008
H38   H     H_    0.878631 0.237053 0.414351 0.136026
H39   H     H_    0.912366 0.323338 0.067911 0.174892
H40   H     H_    0.739703 0.175213 0.528637 0.127506
H41   H     H_    0.660771 0.136175 0.942895 0.179516
H42   H     H_    0.364623 0.766959 0.412782 0.147260
H43   H     H_    0.481152 0.856614 0.063814 0.175392
H44   H     H_    0.187034 0.645753 0.460892 0.137935
H45   H     H_    0.573449 0.360820 0.529459 0.150877
H46   H     H_    0.235375 0.721168 0.066319 0.168501
H47   H     H_    0.907336 0.363622 0.500367 0.101331
H48   H     H_    0.085498 0.375560 0.965144 0.141471
H49   H     H_    0.703183 0.284014 0.422363 0.139347
H50   H     H_    0.733554 0.206980 0.066362 0.165233
H51   H     H_    0.431454 0.873889 0.508582 0.103243
H52   H     H_    0.687350 0.855154 0.961409 0.137339
H53   H     H_    0.737455 0.972982 0.428500 0.201242
H54   H     H_    0.756422 0.989765 0.058564 0.144874
H55   H     H_    0.752639 0.003057 0.559720 0.142517
H56   H     H_    0.695586 0.331553 0.986736 0.114559
H57   H     H_    0.741617 0.017275 0.926690 0.180588
H58   H     H_    0.243473 0.479201 0.424901 0.198870
H59   H     H_    0.253636 0.493480 0.061299 0.140427
H60   H     H_    0.259678 0.500228 0.557409 0.153046
H61   H     H_    0.239162 0.524108 0.929768 0.177517
H62   H     H_    0.208696 0.898331 0.379387 0.306064
H63   H     H_    0.995433 0.932200 0.213387 0.353167
H64   H     H_    0.028627 0.140403 0.755331 0.415508
H65   H     H_    0.876528 0.107948 0.867037 0.381145
H66   H     H_    0.710530 0.392663 0.391809 0.304926
H67   H     H_    0.687752 0.854552 0.454078 0.175320
H68   H     H_    0.491472 0.430578 0.215659 0.348739
H69   H     H_    0.531139 0.642651 0.753119 0.411482
H70   H     H_    0.376941 0.607795 0.863633 0.383488
H71   H     H_    0.777052 0.737891 0.042169 0.108014
H72   H     H_    0.935497 0.066275 0.598465 0.170680
O1    O     O_R   0.575450 0.828820 0.667950 -0.483525
O2    O     O_R   0.416860 0.942890 0.825320 -0.436501
O3    O     O_R   0.416860 0.057110 0.325320 -0.450012
O4    O     O_R   0.416860 0.057110 0.174680 -0.449909
O5    O     O_R   0.916860 0.442890 0.674680 -0.444863
O6    O     O_R   0.916860 0.442890 0.825320 -0.439403
O7    O     O_R   0.916860 0.557110 0.325320 -0.446111
O8    O     O_R   0.916860 0.557110 0.174680 -0.454203
O9    O     O_R   0.213790 0.953680 0.668330 -0.481187
O10   O     O_R   0.213790 0.953680 0.831670 -0.441136
O11   O     O_R   0.213790 0.046320 0.331670 -0.438135
O12   O     O_R   0.575450 0.828820 0.832050 -0.514460
O13   O     O_R   0.213790 0.046320 0.168330 -0.500481
O14   O     O_R   0.713790 0.453680 0.668330 -0.481478
O15   O     O_R   0.713790 0.453680 0.831670 -0.434431
O16   O     O_R   0.713790 0.546320 0.331670 -0.442468
O17   O     O_R   0.713790 0.546320 0.168330 -0.498928
O18   O     O_R   0.121360 0.817890 0.672660 -0.517967
O19   O     O_R   0.121360 0.817890 0.827340 -0.512872
O20   O     O_R   0.121360 0.182110 0.327340 -0.507425
O21   O     O_R   0.121360 0.182110 0.172660 -0.524899
O22   O     O_R   0.621360 0.317890 0.672660 -0.520919
O23   O     O_R   0.575450 0.171180 0.332050 -0.494113
O24   O     O_R   0.621360 0.317890 0.827340 -0.506699
O25   O     O_R   0.621360 0.682110 0.327340 -0.516703
O26   O     O_R   0.621360 0.682110 0.172660 -0.523798
O27   O     O_R   0.206850 0.711370 0.665820 -0.497542
O28   O     O_R   0.206850 0.711370 0.834180 -0.505957
O29   O     O_R   0.206850 0.288630 0.334180 -0.485511
O30   O     O_R   0.206850 0.288630 0.165820 -0.493884
O31   O     O_R   0.706850 0.211370 0.665820 -0.488373
O32   O     O_R   0.706850 0.211370 0.834180 -0.510268
O33   O     O_R   0.706850 0.788630 0.334180 -0.475706
O34   O     O_R   0.575450 0.171180 0.167950 -0.477507
O35   O     O_R   0.706850 0.788630 0.165820 -0.492682
O36   O     O_R   0.457710 0.733190 0.672630 -0.473354
O37   O     O_R   0.457710 0.733190 0.827370 -0.509719
O38   O     O_R   0.457710 0.266810 0.327370 -0.399962
O39   O     O_R   0.457710 0.266810 0.172630 -0.426147
O40   O     O_R   0.957710 0.233190 0.672630 -0.464893
O41   O     O_R   0.957710 0.233190 0.827370 -0.517508
O42   O     O_R   0.957710 0.766810 0.327370 -0.402270
O43   O     O_R   0.957710 0.766810 0.172630 -0.421990
O44   O     O_3   0.331690 0.831680 0.750000 -0.352055
O45   O     O_R   0.075450 0.328820 0.667950 -0.479466
O46   O     O_3   0.331690 0.168320 0.250000 -0.380929
O47   O     O_3   0.831690 0.331680 0.750000 -0.356574
O48   O     O_3   0.831690 0.668320 0.250000 -0.377794
O49   O     O_2   0.931020 0.911376 0.395825 -0.326866
O50   O     O_2   0.991362 0.007160 0.319679 -0.253491
O51   O     O_3   0.149274 0.907124 0.340258 -0.401931
O52   O     O_2   0.200612 0.817021 0.150678 -0.281253
O53   O     O_2   0.262423 0.917230 0.217027 -0.188117
O54   O     O_3   0.031950 0.885715 0.217976 -0.389038
O55   O     O_2   0.249871 0.080258 0.720690 -0.192161
O56   O     O_R   0.075450 0.328820 0.832050 -0.514030
O57   O     O_2   0.185463 0.179944 0.652562 -0.326047
O58   O     O_3   0.018140 0.106617 0.716076 -0.471851
O59   O     O_2   0.146792 0.094661 0.856780 -0.268847
O60   O     O_2   0.998080 0.005953 0.819829 -0.237216
O61   O     O_3   0.926710 0.098913 0.910620 -0.602978
O62   O     O_2   0.443555 0.405366 0.410604 -0.329210
O63   O     O_2   0.490348 0.496680 0.325029 -0.259199
O64   O     O_3   0.657372 0.402671 0.349927 -0.396437
O65   O     O_2   0.697294 0.317851 0.149193 -0.287514
O66   O     O_2   0.758904 0.416684 0.218535 -0.183089
O67   O     O_R   0.075450 0.671180 0.332050 -0.498483
O68   O     O_3   0.530012 0.384672 0.220187 -0.389294
O69   O     O_2   0.763058 0.580983 0.719790 -0.191346
O70   O     O_2   0.691553 0.682822 0.658624 -0.318541
O71   O     O_3   0.529174 0.603916 0.718702 -0.463161
O72   O     O_2   0.647385 0.587194 0.848329 -0.257965
O73   O     O_2   0.489279 0.500520 0.822450 -0.238939
O74   O     O_3   0.431516 0.602748 0.906027 -0.595935
O75   O     O_R   0.075450 0.671180 0.167950 -0.479526
O76   O     O_R   0.416860 0.942890 0.674680 -0.453964
S1    S     S_3+6 0.036819 0.956545 0.375263 0.021647
S2    S     S_3+6 0.162859 0.888821 0.170251 0.081624
S3    S     S_3+6 0.151901 0.107436 0.671594 0.056898
S4    S     S_3+6 0.043492 0.049728 0.881460 0.002691
S5    S     S_3+6 0.543245 0.451483 0.383264 0.035189
S6    S     S_3+6 0.659337 0.389163 0.171134 0.077472
S7    S     S_3+6 0.662002 0.609003 0.673516 0.064371
S8    S     S_3+6 0.541825 0.547658 0.879123 -0.001170

loop_
_geom_bond_atom_site_label_1
_geom_bond_atom_site_label_2
_ccdc_geom_bond_type
C6    C32   S    
C71   C104  A    
O53   S2    D    
O69   S7    D    
H63   O54   S    
C73   C82   A    
C73   C93   A    
C74   C83   A    
Cr9   O21   S    
C9    C143  S    
C61   C133  S    
C65   C89   A    
C90   O14   A    
C74   F3    S    
C55   C141  S    
C52   C61   S    
C117  C119  A    
C86   C88   A    
C71   C95   A    
C69   C123  S    
C54   C134  S    
C16   C25   S    
C9    H12   S    
O55   S3    D    
C5    H15   S    
C37   C56   S    
C50   C52   S    
C28   C144  S    
C41   C61   S    
C4    C12   S    
C85   H58   S    
C21   C48   S    
C100  C109  A    
C22   C130  S    
C7    C33   S    
C14   H56   S    
Cr3   O41   S    
C109  C118  A    
C11   C24   S    
C11   C20   S    
C140  O42   A    
O71   S7    S    
C141  O43   A    
O72   S8    D    
C70   C103  A    
C67   C105  A    
C39   H31   S    
C137  O39   A    
C52   H51   S    
C37   H29   S    
C17   C43   S    
C7    C62   S    
C18   C44   S    
C124  H8    S    
C117  H2    S    
C137  O34   A    
C94   C96   A    
Cr8   O9    S    
C22   C49   S    
C26   H18   S    
C34   C54   S    
C53   H52   S    
C82   C84   A    
C64   C79   S    
C36   C44   S    
C37   C45   S    
Cr10  O24   S    
C77   F6    S    
C69   C106  A    
C127  O29   A    
C46   C60   S    
C139  O41   A    
Cr2   O38   S    
C130  O24   A    
C95   C97   A    
C111  S7    S    
C8    C17   S    
Cr4   O43   S    
C106  C115  A    
C84   H57   S    
C80   C88   A    
C36   C55   S    
C1    O9    A    
C76   C96   A    
C13   C45   S    
C78   C94   A    
C12   C21   S    
C138  O45   A    
Cr5   O3    S    
C116  C118  A    
C2    C55   S    
Cr6   O47   S    
C27   H19   S    
C20   C47   S    
C3    C11   S    
Cr7   O7    S    
O58   S3    S    
Cr11  O25   S    
C107  S3    S    
C67   C112  S    
C113  S8    S    
C51   C53   S    
C115  S6    S    
C76   C85   A    
C78   C87   A    
Cr7   O75   S    
C40   C60   S    
Cr6   O56   S    
C57   C66   S    
H68   O68   S    
C64   C102  A    
C99   C108  A    
O66   S6    D    
C33   C42   S    
C6    C61   S    
H64   O58   S    
C12   H45   S    
C51   H43   S    
C75   C84   A    
C40   C49   S    
C59   C136  S    
C3    C29   S    
Cr12  O28   S    
Cr6   O5    S    
Cr5   O23   S    
C2    C44   S    
C131  O33   A    
C29   C38   S    
C1    C65   S    
C32   C41   S    
C77   C97   A    
C42   C62   S    
Cr10  O22   S    
C75   C91   A    
C13   C56   S    
C121  H6    S    
C78   F7    S    
C76   F5    S    
C133  O1    A    
C79   O4    A    
H69   O71   S    
C81   C83   A    
C142  H9    S    
C55   C143  S    
C7    H17   S    
C8    C134  S    
C41   H33   S    
Cr10  O14   S    
C16   H71   S    
C72   F1    S    
C135  O37   A    
Cr6   O45   S    
C62   C135  S    
Cr2   O29   S    
C101  O6    A    
C83   H55   S    
C134  H44   S    
C81   H53   S    
Cr1   O2    S    
C23   C131  S    
C103  C105  A    
C114  S5    S    
C10   C144  S    
C12   C35   S    
C19   C28   S    
O62   S5    D    
C21   C129  S    
C50   H42   S    
C1    O76   A    
Cr7   O67   S    
C86   H59   S    
C132  O26   A    
C63   C68   S    
C5    C60   S    
C15   H67   S    
Cr9   O46   S    
C36   H28   S    
Cr4   O33   S    
C34   C43   S    
C4    H14   S    
C57   O10   A    
C110  C119  A    
C19   C45   S    
C80   C95   A    
C48   H40   S    
C128  O21   A    
O51   S1    S    
C28   H20   S    
C11   H34   S    
C130  O32   A    
Cr7   O48   S    
C18   C126  S    
Cr1   O76   S    
C67   C96   A    
C28   C37   S    
O59   S4    D    
C29   H21   S    
C30   C39   S    
C125  O18   A    
C107  C116  A    
C8    H1    S    
C104  C113  A    
C9    C18   S    
C113  C121  A    
C122  H7    S    
C128  O30   A    
C25   C132  S    
C25   C33   S    
C131  O25   A    
C69   C97   A    
C75   F4    S    
O60   S4    D    
C13   H47   S    
C104  C106  A    
C14   C46   S    
C46   C49   S    
C42   H35   S    
C70   C94   A    
C65   C98   A    
Cr12  O44   S    
C72   C92   A    
O73   S8    D    
C31   C40   S    
C103  C111  A    
C80   F8    S    
C38   C58   S    
C45   H38   S    
C141  O75   A    
C43   H36   S    
Cr8   O10   S    
C72   C81   A    
Cr2   O46   S    
C6    H16   S    
C71   C101  S    
Cr4   O35   S    
Cr10  O47   S    
C101  O15   A    
C35   C48   S    
C108  C117  A    
C139  O56   A    
Cr2   O39   S    
Cr3   O32   S    
C133  O36   A    
C108  S4    S    
C98   C107  A    
C38   H30   S    
C33   H26   S    
C43   C134  S    
C91   C93   A    
Cr3   O47   S    
O68   S6    S    
C10   C19   S    
C39   C59   S    
C125  O27   A    
C136  O23   A    
C126  O28   A    
C15   C52   S    
C35   H49   S    
C5    C14   S    
O57   S3    D    
C7    C16   S    
C54   C142  S    
C49   H41   S    
C98   C100  A    
C102  C110  A    
C41   C50   S    
O63   S5    D    
C115  C124  A    
C109  S1    S    
C136  O38   A    
O61   S4    S    
C23   C50   S    
C68   O3    A    
Cr5   O34   S    
Cr8   O19   S    
Cr11  O16   S    
Cr12  O36   S    
C27   C36   S    
C21   C30   S    
C23   C32   S    
C14   C22   S    
O74   S8    S    
Cr9   O11   S    
H66   O64   S    
C120  H5    S    
C123  O17   A    
C56   C144  S    
C3    C58   S    
Cr6   O6    S    
C99   C102  A    
C24   C58   S    
O54   S2    S    
C8    C142  S    
C143  H10   S    
C119  H4    S    
C39   C48   S    
C58   C139  S    
Cr11  O17   S    
C118  H3    S    
O52   S2    D    
C132  O35   A    
C24   H48   S    
C17   C26   S    
C30   H22   S    
C74   C89   A    
C34   H27   S    
C64   C93   A    
C20   C128  S    
Cr10  O15   S    
O50   S1    D    
O65   S6    D    
Cr5   O4    S    
C4    C59   S    
Cr11  O48   S    
Cr2   O30   S    
C16   C53   S    
H70   O74   S    
C121  C124  A    
Cr8   O44   S    
C6    C15   S    
Cr11  O26   S    
C26   C34   S    
C112  O7    A    
C54   C140  S    
Cr4   O42   S    
C46   H50   S    
Cr1   O1    S    
C31   H24   S    
Cr5   O46   S    
H65   O61   S    
C126  O19   A    
Cr3   O40   S    
C129  O31   A    
C60   C137  S    
C15   C23   S    
Cr7   O8    S    
O70   S7    D    
C79   O13   A    
C116  H72   S    
C70   C90   S    
C123  O8    A    
C120  C122  A    
C112  O16   A    
C20   C29   S    
C85   C87   A    
C68   O11   A    
C35   C59   S    
C2    H46   S    
C22   C31   S    
C47   H39   S    
C127  O20   A    
C105  C114  A    
H62   O51   S    
Cr3   O31   S    
C129  O22   A    
Cr9   O13   S    
C73   F2    S    
C87   H60   S    
C138  O40   A    
C111  C120  A    
C66   C99   A    
C63   C92   A    
C25   C51   S    
C63   C100  A    
Cr12  O27   S    
C56   C138  S    
C53   C62   S    
C88   H61   S    
C82   H54   S    
C10   H23   S    
Cr12  O37   S    
C27   C143  S    
C89   C92   A    
C38   C47   S    
C140  O67   A    
Cr9   O20   S    
O49   S1    D    
C77   C86   A    
C44   H37   S    
Cr1   O44   S    
C40   H32   S    
Cr4   O48   S    
Cr1   O12   S    
C24   C47   S    
C135  O12   A    
C18   C27   S    
C57   O2    A    
C10   C13   S    
C66   C91   A    
O64   S5    S    
C42   C51   S    
C3    H13   S    
Cr8   O18   S    
C2    C9    S    
C17   C125  S    
C144  H11   S    
C19   C127  S    
C32   H25   S    
C114  C122  A    
C90   O5    A    
C110  S2    S    
C26   C142  S    
C4    C30   S    
C5    C31   S    
