data_mof_unit_7291.cif
_audit_creation_date              2012-12-11T14:14:56-0500
_audit_creation_method            fapswitch 2.2
_symmetry_space_group_name_H-M    P1
_symmetry_Int_Tables_number       1
_space_group_crystal_system       triclinic
_cell_length_a                    24.463518
_cell_length_b                    17.343593
_cell_length_c                    15.519687
_cell_angle_alpha                 90.000026
_cell_angle_beta                  128.931659
_cell_angle_gamma                 90.000017
_cell_volume                      5122.27047575

loop_
_atom_site_label
_atom_site_type_symbol
_atom_type_description
_atom_site_fract_x
_atom_site_fract_y
_atom_site_fract_z
_atom_type_partial_charge
C1    C     C_R   0.334053 0.390606 0.202627 -0.089377
C2    C     C_R   0.682635 0.612039 0.497422 -0.053224
C3    C     C_R   0.817366 0.112040 0.502580 -0.053204
C4    C     C_R   0.169219 0.145115 0.495383 -0.011755
C5    C     C_R   0.381310 0.680299 0.206497 0.145425
C6    C     C_R   0.619581 0.680725 0.792556 0.150877
C7    C     C_R   0.880418 0.180725 0.207443 0.150875
C8    C     C_R   0.118690 0.180298 0.793503 0.145419
C9    C     C_2   0.728379 0.657228 0.406950 -0.346855
C10   C     C_2   0.327289 0.767033 0.568745 -0.373668
C11   C     C_2   0.172709 0.267037 0.431256 -0.373695
C12   C     C_R   0.666033 0.392088 0.799169 -0.126997
C13   C     C_2   0.771625 0.157233 0.593054 -0.346867
C14   C     C_2   0.741175 0.622146 0.495264 0.547286
C15   C     C_2   0.291615 0.702688 0.511407 0.505268
C16   C     C_2   0.208383 0.202693 0.488594 0.505295
C17   C     C_2   0.758828 0.122146 0.504743 0.547264
C18   C     C_2   0.204866 0.329337 0.415834 -0.036270
C19   C     C_2   0.721177 0.209569 0.582875 -0.001703
C20   C     C_2   0.778825 0.709568 0.417129 -0.001755
C21   C     C_2   0.295132 0.829334 0.584166 -0.036286
C22   C     C_2   0.262823 0.360957 0.505235 -0.075091
C23   C     C_R   0.833967 0.892087 0.200831 -0.127003
C24   C     C_2   0.686066 0.259381 0.498200 -0.103254
C25   C     C_2   0.813929 0.759386 0.501798 -0.103301
C26   C     C_2   0.237176 0.860953 0.494764 -0.075076
C27   C     C_2   0.689976 0.340796 0.973536 -0.207208
C28   C     C_2   0.308729 0.340339 0.026936 -0.205771
C29   C     C_2   0.191270 0.840338 0.973063 -0.205763
C30   C     C_2   0.810023 0.840796 0.026464 -0.207214
C31   C     C_2   0.759866 0.342634 0.035226 -0.107018
C32   C     C_2   0.238916 0.341975 0.966398 -0.100328
C33   C     C_2   0.261083 0.841975 0.033602 -0.100336
C34   C     C_R   0.165947 0.890606 0.797372 -0.089376
C35   C     C_2   0.740133 0.842634 0.964773 -0.107012
C36   C     C_2   0.355749 0.751952 0.143280 -0.199860
C37   C     C_2   0.645460 0.752595 0.855313 -0.211096
C38   C     C_2   0.854539 0.252594 0.144686 -0.211098
C39   C     C_2   0.144252 0.251952 0.856721 -0.199828
C40   C     C_R   0.595510 0.365052 0.406722 -0.091467
C41   C     C_R   0.386484 0.398668 0.593055 -0.042503
C42   C     C_R   0.113516 0.898667 0.406944 -0.042512
C43   C     C_R   0.904487 0.865054 0.593278 -0.091469
C44   C     C_2   0.303344 0.790912 0.128442 -0.090432
C45   C     C_R   0.393823 0.616538 0.594719 -0.151120
C46   C     C_2   0.698314 0.790883 0.870655 -0.087049
C47   C     C_2   0.801686 0.290882 0.129344 -0.087031
C48   C     C_2   0.196656 0.290913 0.871558 -0.090427
C49   C     C_R   0.669487 0.364185 0.592393 -0.074274
C50   C     C_R   0.312223 0.398778 0.408937 -0.081481
C51   C     C_R   0.187776 0.898778 0.591063 -0.081463
C52   C     C_R   0.830511 0.864187 0.407607 -0.074223
C53   C     C_R   0.574915 0.388834 0.798441 -0.104708
C54   C     C_R   0.424100 0.389377 0.200538 -0.130319
C55   C     C_R   0.075900 0.889377 0.799461 -0.130315
C56   C     C_R   0.613339 0.599630 0.406799 -0.159340
C57   C     C_R   0.925085 0.888834 0.201559 -0.104707
C58   C     C_R   0.354373 0.368807 0.140692 0.144804
C59   C     C_R   0.644962 0.369470 0.859864 0.142498
C60   C     C_R   0.855038 0.869470 0.140136 0.142494
C61   C     C_R   0.145627 0.868806 0.859308 0.144805
C62   C     C_R   0.650641 0.325568 0.499224 0.092274
C63   C     C_R   0.318147 0.384292 0.501854 0.155978
C64   C     C_R   0.181852 0.884291 0.498145 0.155985
C65   C     C_R   0.849356 0.825571 0.500775 0.092254
C66   C     C_R   0.318303 0.617708 0.410284 -0.139410
C67   C     C_R   0.886662 0.099631 0.593202 -0.159339
C68   C     C_R   0.687912 0.599168 0.590073 -0.047294
C69   C     C_R   0.812088 0.099168 0.409928 -0.047232
C70   C     C_R   0.181696 0.117710 0.589716 -0.139363
C71   C     C_R   0.440939 0.640396 0.240245 -0.136328
C72   C     C_R   0.560660 0.640395 0.761467 -0.144026
C73   C     C_R   0.939340 0.140394 0.238533 -0.144027
C74   C     C_R   0.059061 0.140395 0.759755 -0.136311
C75   C     C_R   0.651346 0.638462 0.758734 -0.121062
C76   C     C_R   0.348310 0.637824 0.238220 -0.116900
C77   C     C_R   0.151690 0.137824 0.761781 -0.116912
C78   C     C_R   0.106176 0.116541 0.405281 -0.151136
C79   C     C_R   0.848654 0.138461 0.241266 -0.121049
C80   C     C_R   0.330779 0.645111 0.504618 -0.011804
H1    H     H_    0.281640 0.391216 0.177444 0.084534
H2    H     H_    0.687263 0.255020 0.429691 0.168535
H3    H     H_    0.812727 0.755028 0.570303 0.168554
H4    H     H_    0.223637 0.852520 0.413900 0.152668
H5    H     H_    0.283583 0.774937 0.172032 0.131480
H6    H     H_    0.718640 0.774057 0.828199 0.134815
H7    H     H_    0.781360 0.274057 0.171801 0.134816
H8    H     H_    0.216416 0.274938 0.827967 0.131478
H9    H     H_    0.785211 0.371121 0.006409 0.131670
H10   H     H_    0.214076 0.369812 0.996498 0.129763
H11   H     H_    0.285924 0.869812 0.003502 0.129757
H12   H     H_    0.718981 0.394554 0.826777 0.089189
H13   H     H_    0.714789 0.871121 0.993591 0.131683
H14   H     H_    0.374850 0.768144 0.098683 0.135243
H15   H     H_    0.626080 0.769578 0.899251 0.133054
H16   H     H_    0.873920 0.269577 0.100747 0.133047
H17   H     H_    0.125150 0.268143 0.901318 0.135248
H18   H     H_    0.665328 0.311532 0.003223 0.146050
H19   H     H_    0.332891 0.311738 0.995999 0.143759
H20   H     H_    0.167108 0.811737 0.004000 0.143760
H21   H     H_    0.834672 0.811531 0.996777 0.146047
H22   H     H_    0.569790 0.351954 0.320938 0.111544
H23   H     H_    0.781019 0.894553 0.173224 0.089220
H24   H     H_    0.406785 0.401837 0.678180 0.093405
H25   H     H_    0.093214 0.901836 0.321819 0.093405
H26   H     H_    0.930207 0.851957 0.679061 0.111551
H27   H     H_    0.712578 0.351326 0.677998 0.089808
H28   H     H_    0.264419 0.403262 0.324315 0.075683
H29   H     H_    0.235580 0.903261 0.675684 0.075681
H30   H     H_    0.787420 0.851328 0.322001 0.089827
H31   H     H_    0.544251 0.388511 0.826758 0.102069
H32   H     H_    0.453455 0.390429 0.169967 0.099694
H33   H     H_    0.046545 0.890429 0.830032 0.099694
H34   H     H_    0.218360 0.891216 0.822556 0.084533
H35   H     H_    0.955749 0.888511 0.173241 0.102068
H36   H     H_    0.270251 0.623285 0.326213 0.104909
H37   H     H_    0.736105 0.592486 0.673921 0.153465
H38   H     H_    0.763894 0.092487 0.326080 0.153560
H39   H     H_    0.229748 0.123286 0.673786 0.104902
H40   H     H_    0.478014 0.656642 0.227431 0.104303
H41   H     H_    0.526022 0.656576 0.779016 0.096625
H42   H     H_    0.973977 0.156575 0.220982 0.096625
H43   H     H_    0.021986 0.156642 0.772570 0.104313
H44   H     H_    0.699198 0.651432 0.771730 0.096810
H45   H     H_    0.189068 0.336551 0.333552 0.124870
H46   H     H_    0.298747 0.650096 0.219606 0.092930
H47   H     H_    0.201253 0.150096 0.780395 0.092928
H48   H     H_    0.800801 0.151431 0.228269 0.096811
H49   H     H_    0.415176 0.620113 0.680233 0.103138
H50   H     H_    0.593176 0.591859 0.322264 0.098467
H51   H     H_    0.906825 0.091860 0.677737 0.098467
H52   H     H_    0.084823 0.120116 0.319767 0.103141
H53   H     H_    0.674892 0.665067 0.331398 0.116196
H54   H     H_    0.382791 0.773105 0.608387 0.146780
H55   H     H_    0.117207 0.273110 0.391614 0.146782
H56   H     H_    0.722836 0.216849 0.653976 0.118293
H57   H     H_    0.825113 0.165080 0.668601 0.116209
H58   H     H_    0.868589 0.489128 0.713624 0.372873
H59   H     H_    0.183500 0.574265 0.365685 0.337608
H60   H     H_    0.316546 0.074283 0.634371 0.337631
H61   H     H_    0.631333 0.988943 0.286758 0.372937
H62   H     H_    0.777171 0.716845 0.346032 0.118310
H63   H     H_    0.310931 0.836549 0.666448 0.124871
H64   H     H_    0.276361 0.352525 0.586099 0.152673
N1    N     N_R   0.389060 0.424180 0.294540 -0.045401
N2    N     N_R   0.374530 0.423490 0.443400 -0.047933
N3    N     N_R   0.125470 0.923490 0.556600 -0.047935
N4    N     N_R   0.874530 0.923490 0.443400 -0.043518
N5    N     N_R   0.555250 0.423100 0.705420 -0.045441
N6    N     N_R   0.444750 0.423100 0.294580 -0.045402
N7    N     N_R   0.055250 0.923100 0.705420 -0.045404
N8    N     N_R   0.944750 0.923100 0.294580 -0.045443
N9    N     N_R   0.375210 0.577180 0.443400 -0.038886
N10   N     N_R   0.624790 0.577180 0.556600 -0.052476
N11   N     N_R   0.875210 0.077180 0.443400 -0.052492
N12   N     N_R   0.610940 0.424180 0.705460 -0.046206
N13   N     N_R   0.124790 0.077180 0.556600 -0.038894
N14   N     N_R   0.445430 0.577570 0.294580 -0.045812
N15   N     N_R   0.554570 0.577570 0.705420 -0.045557
N16   N     N_R   0.945430 0.077570 0.294580 -0.045559
N17   N     N_R   0.054570 0.077570 0.705420 -0.045815
N18   N     N_R   0.611620 0.576500 0.705460 -0.049404
N19   N     N_R   0.388380 0.576500 0.294540 -0.048371
N20   N     N_R   0.111620 0.076500 0.705460 -0.048371
N21   N     N_R   0.888380 0.076500 0.294540 -0.049406
N22   N     N_R   0.421010 0.576890 0.556640 -0.036755
N23   N     N_R   0.889060 0.924180 0.294540 -0.046210
N24   N     N_R   0.578990 0.576890 0.443360 -0.033976
N25   N     N_R   0.921010 0.076890 0.556640 -0.033982
N26   N     N_R   0.078990 0.076890 0.443360 -0.036758
N27   N     N_R   0.110940 0.924180 0.705460 -0.045402
N28   N     N_R   0.579670 0.423790 0.443360 -0.047811
N29   N     N_R   0.420330 0.423790 0.556640 -0.052913
N30   N     N_R   0.079670 0.923790 0.443360 -0.052913
N31   N     N_R   0.920330 0.923790 0.556640 -0.047817
N32   N     N_R   0.625470 0.423490 0.556600 -0.043520
Ni1   Ni    Ni4+2 0.383200 0.500680 0.370150 0.217355
Ni2   Ni    Ni4+2 0.616800 0.500680 0.629850 0.230822
Ni3   Ni    Ni4+2 0.883200 0.000680 0.370150 0.230878
Ni4   Ni    Ni4+2 0.116800 0.000680 0.629850 0.217356
Ni5   Ni    Ni4+2 0.512440 0.500680 0.370150 0.220169
Ni6   Ni    Ni4+2 0.487560 0.500680 0.629850 0.218952
Ni7   Ni    Ni4+2 0.012440 0.000680 0.370150 0.218954
Ni8   Ni    Ni4+2 0.987560 0.000680 0.629850 0.220166
O1    O     O_2   0.875548 0.590334 0.583081 -0.255650
O2    O     O_2   0.624469 0.090307 0.416965 -0.255948
O3    O     O_2   0.644659 0.143982 0.292554 -0.336639
O4    O     O_3   0.679368 0.001518 0.354504 -0.551871
O5    O     O_2   0.855325 0.644003 0.707453 -0.336927
O6    O     O_3   0.820646 0.501529 0.645516 -0.551802
O7    O     O_2   0.191194 0.704782 0.534275 -0.245828
O8    O     O_2   0.153025 0.720927 0.346822 -0.329069
O9    O     O_3   0.191026 0.584459 0.435255 -0.502770
O10   O     O_2   0.308800 0.204778 0.465719 -0.245828
O11   O     O_2   0.346973 0.220936 0.653173 -0.329097
O12   O     O_3   0.308970 0.084463 0.564754 -0.502788
S1    S     S_3+6 0.826692 0.591162 0.610814 -0.050125
S2    S     S_3+6 0.204132 0.680203 0.455605 -0.026791
S3    S     S_3+6 0.295865 0.180206 0.544395 -0.026802
S4    S     S_3+6 0.673313 0.091147 0.389206 -0.050169

loop_
_geom_bond_atom_site_label_1
_geom_bond_atom_site_label_2
_ccdc_geom_bond_type
N23   Ni3   S    
C79   H48   S    
C5    C36   S    
C11   C18   S    
C45   H49   S    
C72   H41   S    
C76   H46   S    
C1    N1    A    
N22   Ni6   S    
O7    S2    D    
C21   C26   D    
C6    C75   A    
N10   N24   A    
N17   N20   A    
C4    C70   A    
C53   C59   A    
N3    N30   A    
N7    N27   A    
N7    Ni8   S    
C54   N6    A    
C67   N25   A    
C6    C72   A    
N28   N32   A    
C73   N16   A    
C69   N11   A    
C72   N15   A    
C66   H36   S    
C71   H40   S    
C75   N18   A    
C3    C69   A    
N5    N12   A    
C2    C68   A    
C10   C15   D    
C33   H11   S    
C18   H45   S    
N26   Ni7   S    
C39   H17   S    
C20   C25   D    
O4    S4    S    
C1    H1    S    
O9    S2    S    
C57   N8    A    
C29   C33   D    
C69   H38   S    
C78   N26   A    
C40   C62   A    
C37   H15   S    
C17   S4    S    
C26   C64   S    
C51   N3    A    
C68   H37   S    
C24   H2    S    
C78   H52   S    
N9    N22   A    
C22   H64   S    
C22   C63   S    
C12   C59   A    
C43   N31   A    
N28   Ni5   S    
C32   H10   S    
C15   C80   S    
C31   H9    S    
C30   C60   S    
N19   Ni1   S    
C24   C62   S    
C48   H8    S    
C8    C39   S    
O8    S2    D    
C45   N22   A    
N16   Ni7   S    
O11   S3    D    
N1    N6    A    
C77   H47   S    
C50   N2    A    
C77   N20   A    
N32   Ni2   S    
C74   H43   S    
C51   H29   S    
C31   C47   S    
C50   H28   S    
C50   C63   A    
C32   C48   S    
O2    S4    D    
H58   O6    S    
N12   Ni2   S    
C12   N12   A    
O12   S3    S    
N3    Ni4   S    
C42   H25   S    
N11   Ni3   S    
N6    Ni5   S    
N9    Ni1   S    
C35   H13   S    
C10   C21   S    
C23   C60   A    
C14   S1    S    
C29   C61   S    
N15   N18   A    
N4    N31   A    
C13   C19   S    
C27   C31   D    
C75   H44   S    
C20   H62   S    
C28   C32   D    
C25   C65   S    
C21   H63   S    
C49   H27   S    
C42   N30   A    
C53   N5    A    
C15   S2    S    
C57   C60   A    
C55   H33   S    
C19   H56   S    
C34   C61   A    
N2    Ni1   S    
C43   H26   S    
C47   H7    S    
C4    C16   S    
C9    C14   D    
N25   Ni8   S    
C4    C78   A    
C11   H55   S    
N13   N26   A    
C66   N9    A    
C11   C16   D    
N11   N25   A    
C9    C20   S    
O10   S3    D    
C52   H30   S    
C70   H39   S    
C43   C65   A    
C7    C73   A    
C8    C74   A    
C6    C37   S    
C54   H32   S    
H61   O4    S    
N16   N21   A    
C79   N21   A    
N8    Ni7   S    
H60   O12   S    
C38   C47   D    
C16   S3    S    
N14   N19   A    
C23   N23   A    
C30   C35   D    
C28   H19   S    
C23   H23   S    
N29   Ni6   S    
C73   H42   S    
N4    Ni3   S    
C28   C58   S    
N10   Ni2   S    
C8    C77   A    
N21   Ni3   S    
N27   Ni4   S    
C36   C44   D    
C41   C63   A    
C38   H16   S    
C44   H5    S    
C42   C64   A    
C40   N28   A    
N8    N23   A    
C7    C79   A    
C54   C58   A    
O5    S1    D    
C71   N14   A    
C41   N29   A    
C27   H18   S    
C26   H4    S    
C49   C62   A    
C29   H20   S    
C18   C22   D    
C33   C44   S    
C12   H12   S    
C67   H51   S    
C51   C64   A    
C10   H54   S    
N20   Ni4   S    
N30   Ni7   S    
C74   N17   A    
C55   N7    A    
N2    N29   A    
C34   H34   S    
C66   C80   A    
C68   N10   A    
C41   H24   S    
C13   C17   D    
O3    S4    D    
C70   N13   A    
N17   Ni8   S    
C19   C24   D    
C5    C71   A    
C2    C56   A    
C1    C58   A    
C53   H31   S    
N5    Ni6   S    
C3    C67   A    
C57   H35   S    
C5    C76   A    
C55   C61   A    
C30   H21   S    
C7    C38   S    
C3    C17   S    
C45   C80   A    
N15   Ni6   S    
C2    C14   S    
N14   Ni5   S    
N18   Ni2   S    
C34   N27   A    
C40   H22   S    
C36   H14   S    
C52   N4    A    
N24   Ni5   S    
N1    Ni1   S    
C56   N24   A    
C25   H3    S    
C39   C48   D    
C76   N19   A    
C27   C59   S    
O1    S1    D    
C37   C46   D    
C35   C46   S    
N13   Ni4   S    
C49   N32   A    
C56   H50   S    
C52   C65   A    
H59   O9    S    
O6    S1    S    
C13   H57   S    
N31   Ni8   S    
C46   H6    S    
C9    H53   S    
