data_mof_unit_54588.cif
_audit_creation_date              2012-12-10T17:54:15-0500
_audit_creation_method            fapswitch 2.2
_symmetry_space_group_name_H-M    P1
_symmetry_Int_Tables_number       1
_space_group_crystal_system       triclinic
_cell_length_a                    27.726452
_cell_length_b                    10.711156
_cell_length_c                    9.871489
_cell_angle_alpha                 88.951346
_cell_angle_beta                  89.743474
_cell_angle_gamma                 91.768928
_cell_volume                      2929.73287306

loop_
_atom_site_label
_atom_site_type_symbol
_atom_type_description
_atom_site_fract_x
_atom_site_fract_y
_atom_site_fract_z
_atom_type_partial_charge
C1    C     C_R   0.502351 0.259478 0.502263 0.871429
C2    C     C_R   0.972635 0.370638 0.479032 0.045176
C3    C     C_R   0.976502 0.598995 0.511799 0.046483
C4    C     C_R   0.406044 0.498510 0.500137 0.873132
C5    C     C_R   0.949345 0.485673 0.495799 0.070876
C6    C     C_R   0.943869 0.261844 0.455420 -0.215585
C7    C     C_R   0.893923 0.265085 0.454286 -0.134446
C8    C     C_R   0.870751 0.376769 0.476004 -0.022143
C9    C     C_R   0.898272 0.487440 0.496605 -0.051536
C10   C     C_R   0.874595 0.599910 0.518014 -0.020826
C11   C     C_R   0.824160 0.599591 0.518415 0.503980
C12   C     C_R   0.278348 0.469473 0.372185 0.544439
C13   C     C_R   0.820366 0.380710 0.476966 0.504494
C14   C     C_R   0.721853 0.481210 0.376823 -0.097787
C15   C     C_R   0.671801 0.483874 0.376978 -0.217557
C16   C     C_R   0.494298 0.738445 0.499514 0.895950
C17   C     C_R   0.672171 0.510131 0.621037 -0.214022
C18   C     C_R   0.722230 0.507615 0.620478 -0.099205
C19   C     C_R   0.747017 0.493068 0.498475 0.319684
C20   C     C_R   0.023652 0.368142 0.485391 0.047013
C21   C     C_R   0.050798 0.482300 0.494417 0.072695
C22   C     C_R   0.027499 0.598111 0.503838 0.045983
C23   C     C_R   0.253024 0.476955 0.494979 0.265704
C24   C     C_R   0.048676 0.254958 0.484166 -0.212817
C25   C     C_R   0.106145 0.706981 0.501653 -0.134783
C26   C     C_R   0.951520 0.709583 0.536595 -0.215982
C27   C     C_R   0.901552 0.709814 0.539194 -0.137204
C28   C     C_R   0.593961 0.499995 0.499735 0.887903
C29   C     C_R   0.056224 0.709616 0.503866 -0.213018
C30   C     C_R   0.504127 0.104685 0.763385 -0.161490
C31   C     C_R   0.487378 0.040130 0.879176 -0.148422
C32   C     C_R   0.462444 0.926534 0.866836 -0.159255
C33   C     C_R   0.458686 0.871861 0.740303 -0.138288
C34   C     C_R   0.101868 0.480675 0.494110 -0.051505
C35   C     C_R   0.479508 0.931827 0.623946 0.100126
C36   C     C_R   0.495667 0.056332 0.632167 0.096839
C37   C     C_R   0.502603 0.125046 0.508178 -0.117117
C38   C     C_R   0.502032 0.064455 0.383814 -0.218250
C39   C     C_R   0.495510 0.937626 0.380372 -0.210760
C40   C     C_R   0.176089 0.367067 0.490071 0.536665
C41   C     C_R   0.486606 0.870389 0.500286 -0.130940
C42   C     C_R   0.435402 0.338784 0.143988 -0.157494
C43   C     C_R   0.403046 0.261317 0.075186 -0.228834
C44   C     C_R   0.403010 0.261860 0.935036 -0.189772
C45   C     C_R   0.125618 0.366406 0.489605 -0.029281
C46   C     C_R   0.435408 0.339658 0.863018 -0.149991
C47   C     C_R   0.468101 0.420994 0.929418 0.137013
C48   C     C_R   0.468145 0.420733 0.074201 0.115577
C49   C     C_R   0.530293 0.577283 0.069891 0.239270
C50   C     C_R   0.530466 0.575601 0.925761 -0.169250
C51   C     C_R   0.179651 0.589707 0.498327 0.539939
C52   C     C_R   0.277219 0.487833 0.618309 -0.203544
C53   C     C_R   0.327237 0.493854 0.620824 -0.225356
C54   C     C_R   0.328988 0.480021 0.375512 -0.362496
C55   C     C_3   0.274998 0.392239 0.152412 0.080188
C56   C     C_R   0.098676 0.254419 0.485903 -0.143166
C57   C     C_3   0.238093 0.352539 0.045876 -0.305892
C58   C     C_3   0.261422 0.276965 0.934906 -0.951311
C59   C     C_3   0.566861 0.785913 0.093734 -0.798964
C60   C     C_R   0.129316 0.593373 0.498407 -0.031655
C61   C     C_R   0.353372 0.491310 0.499258 -0.069906
C62   C     C_R   0.646623 0.498325 0.499177 -0.044200
H1    H     H_    0.349553 0.480779 0.282262 0.161648
H2    H     H_    0.525141 0.189289 0.780243 0.173646
H3    H     H_    0.493078 0.079430 0.978340 0.146728
H4    H     H_    0.447583 0.878603 0.955807 0.139165
H5    H     H_    0.439390 0.782773 0.734291 0.159459
H6    H     H_    0.498634 0.892136 0.283996 0.177569
H7    H     H_    0.433615 0.331182 0.251419 0.208047
H8    H     H_    0.378113 0.199786 0.131129 0.154498
H9    H     H_    0.378217 0.200357 0.881632 0.164750
H10   H     H_    0.434276 0.331860 0.755811 0.209036
H11   H     H_    0.555458 0.635420 0.868264 0.168167
H12   H     H_    0.257009 0.492953 0.712073 0.160007
H13   H     H_    0.116145 0.165330 0.484579 0.187800
H14   H     H_    0.652922 0.473892 0.281834 0.150877
H15   H     H_    0.741170 0.470167 0.282417 0.139131
H16   H     H_    0.873508 0.179174 0.436100 0.192916
H17   H     H_    0.958748 0.172536 0.434469 0.140702
H18   H     H_    0.030755 0.164345 0.484847 0.137517
H19   H     H_    0.345338 0.502131 0.717413 0.170430
H20   H     H_    0.290970 0.306407 0.196817 0.145261
H21   H     H_    0.303484 0.451348 0.100838 0.148570
H22   H     H_    0.208664 0.294985 0.095053 0.241640
H23   H     H_    0.126539 0.794914 0.502408 0.191164
H24   H     H_    0.222128 0.436971 0.999344 0.227802
H25   H     H_    0.291308 0.332318 0.885268 0.261295
H26   H     H_    0.234105 0.252328 0.857126 0.283535
H27   H     H_    0.275898 0.189450 0.978389 0.270120
H28   H     H_    0.596169 0.618029 0.155537 0.222851
H29   H     H_    0.584428 0.843233 0.173202 0.251555
H30   H     H_    0.530537 0.822782 0.073662 0.238537
H31   H     H_    0.589217 0.794497 0.000210 0.229823
H32   H     H_    0.969437 0.797677 0.557519 0.139711
H33   H     H_    0.653574 0.521501 0.716538 0.159031
H34   H     H_    0.884121 0.797006 0.558147 0.190299
H35   H     H_    0.741837 0.516733 0.714595 0.139443
H36   H     H_    0.041344 0.801282 0.502655 0.138215
H37   H     H_    0.507478 0.114605 0.288331 0.172148
N1    N     N_R   0.201714 0.477707 0.494456 -0.336964
N2    N     N_R   0.798351 0.491024 0.498005 -0.358371
N3    N     N_R   0.499540 0.498800 0.142780 -0.143993
N4    N     N_R   0.499520 0.498720 0.857170 -0.140865
N5    N     N_2   0.563075 0.657038 0.140318 -0.252864
O1    O     O_R   0.500000 0.316780 0.614690 -0.653222
O2    O     O_R   0.571250 0.499990 0.614680 -0.620552
O3    O     O_R   0.571240 0.499970 0.385350 -0.615731
O4    O     O_2   0.199468 0.258478 0.486384 -0.564790
O5    O     O_3   0.251847 0.462127 0.252632 -0.639570
O6    O     O_2   0.793493 0.275278 0.457999 -0.551211
O7    O     O_2   0.206480 0.696955 0.501870 -0.549602
O8    O     O_2   0.800982 0.706849 0.538008 -0.552058
O9    O     O_R   0.500000 0.316750 0.385360 -0.641023
O10   O     O_R   0.428760 0.500030 0.614650 -0.650078
O11   O     O_R   0.428750 0.500010 0.385320 -0.641465
O12   O     O_R   0.500000 0.683250 0.614640 -0.624013
O13   O     O_R   0.500000 0.683220 0.385310 -0.588498
Zn1   Zn    Zn3+2 0.500000 0.500020 0.653130 0.925243
Zn2   Zn    Zn3+2 0.500000 0.499980 0.346870 0.950027

loop_
_geom_bond_atom_site_label_1
_geom_bond_atom_site_label_2
_ccdc_geom_bond_type
C10   C27   A    
C26   H32   S    
C8    C13   A    
C22   C29   A    
C30   H2    S    
C39   H6    S    
C4    O11   A    
C35   C36   A    
C58   H25   S    
C49   N5    S    
C57   C58   S    
C7    C8    A    
C39   C41   A    
C31   C32   A    
C12   C23   A    
C26   C27   A    
C37   C38   A    
C29   H36   S    
C59   N5    S    
C4    O10   A    
C36   C37   A    
C52   H12   S    
O13   Zn2   S    
C30   C31   A    
C54   H1    S    
C28   O3    A    
C57   H24   S    
C44   H9    S    
C53   H19   S    
C18   C19   A    
C14   H15   S    
O9    Zn2   S    
C53   C61   A    
C24   H18   S    
C20   C24   A    
C45   C56   A    
C28   O2    A    
C8    C9    A    
C17   H33   S    
C18   H35   S    
C9    C10   A    
C46   H10   S    
C1    C37   S    
C40   O4    S    
C15   H14   S    
C50   N4    A    
C56   H13   S    
C21   C22   A    
C55   O5    S    
C34   C60   A    
C27   H34   S    
C2    C6    A    
C1    O9    A    
C16   O12   A    
O3    Zn2   S    
C12   O5    S    
C44   C46   A    
C25   C29   A    
C40   C45   A    
C47   N4    A    
C2    C20   A    
C50   H11   S    
C49   N3    A    
C42   C48   A    
C21   C34   A    
C4    C61   S    
C42   H7    S    
C23   C52   A    
C43   C44   A    
C5    C9    A    
C13   O6    S    
C17   C62   A    
C47   C48   A    
C48   N3    A    
C25   H23   S    
C17   C18   A    
C57   H22   S    
C11   N2    A    
C34   C45   A    
C59   H29   S    
C55   H20   S    
H28   N5    S    
O10   Zn1   S    
C7    H16   S    
C25   C60   A    
C43   H8    S    
O11   Zn2   S    
C55   C57   S    
O1    Zn1   S    
N4    Zn1   S    
C42   C43   A    
C13   N2    A    
C52   C53   A    
C33   H5    S    
C32   H4    S    
C51   N1    A    
C31   H3    S    
C46   C47   A    
C51   O7    S    
C11   O8    S    
C14   C19   A    
C3    C26   A    
C38   H37   S    
C3    C5    A    
C58   H26   S    
C40   N1    A    
C6    C7    A    
C54   C61   A    
C24   C56   A    
C30   C36   A    
C32   C33   A    
C16   O13   A    
C19   N2    S    
C6    H17   S    
C38   C39   A    
C33   C35   A    
C15   C62   A    
O12   Zn1   S    
C23   N1    S    
C59   H30   S    
C35   C41   A    
C58   H27   S    
C12   C54   A    
C10   C11   A    
C2    C5    A    
C20   C21   A    
C49   C50   A    
C14   C15   A    
C3    C22   A    
C51   C60   A    
C59   H31   S    
C55   H21   S    
C16   C41   S    
O2    Zn1   S    
N3    Zn2   S    
C1    O1    A    
C28   C62   S    
