data_mof_unit_51243.cif
_audit_creation_date              2012-12-10T19:05:02-0500
_audit_creation_method            fapswitch 2.2
_symmetry_space_group_name_H-M    P1
_symmetry_Int_Tables_number       1
_space_group_crystal_system       triclinic
_cell_length_a                    13.044113
_cell_length_b                    13.598814
_cell_length_c                    15.737292
_cell_angle_alpha                 89.951366
_cell_angle_beta                  93.181383
_cell_angle_gamma                 85.055718
_cell_volume                      2776.83303657

loop_
_atom_site_label
_atom_site_type_symbol
_atom_type_description
_atom_site_fract_x
_atom_site_fract_y
_atom_site_fract_z
_atom_type_partial_charge
C1    C     C_R   0.480576 0.685203 0.498823 0.896377
C2    C     C_3   0.380754 0.536721 0.045034 0.193653
C3    C     C_3   0.503066 0.499992 0.083010 -0.225857
C4    C     C_3   0.538777 0.379611 0.059011 0.423824
C5    C     C_3   0.528538 0.374949 0.953129 0.170649
C6    C     C_1   0.502161 0.501740 0.174444 0.148222
C7    C     C_1   0.501532 0.493784 0.825564 0.244089
C8    C     C_1   0.500162 0.496568 0.750227 -0.053849
C9    C     C_1   0.536245 0.211595 0.502779 -0.170840
C10   C     C_2   0.546541 0.019732 0.501788 0.096516
C11   C     C_2   0.455750 0.979894 0.486875 0.090271
C12   C     C_R   0.499803 0.499692 0.661820 0.876114
C13   C     C_1   0.455293 0.875789 0.490480 -0.030102
C14   C     C_1   0.545935 0.124026 0.503103 -0.025414
C15   C     C_1   0.464129 0.788318 0.494495 -0.176186
C16   C     C_2   0.032626 0.474116 0.472618 -0.129497
C17   C     C_2   0.967484 0.521404 0.527822 0.347540
C18   C     C_1   0.854807 0.517857 0.519037 0.086122
C19   C     C_1   0.145339 0.480635 0.481247 0.267364
C20   C     C_R   0.519459 0.314790 0.501418 0.914981
C21   C     C_R   0.500303 0.500161 0.338129 0.912852
C22   C     C_3   0.382281 0.539639 0.940169 0.225289
C23   C     C_3   0.595875 0.571061 0.948871 0.507490
C24   C     C_3   0.589465 0.578591 0.053796 -0.072551
C25   C     C_1   0.501064 0.500988 0.249667 -0.075831
C26   C     C_3   0.502338 0.494509 0.916516 -0.281517
N1    N     N_1   0.234540 0.484780 0.486630 -0.085120
N2    N     N_1   0.765460 0.515220 0.513370 -0.077203
O1    O     O_R   0.402510 0.634760 0.495110 -0.593013
O2    O     O_R   0.572960 0.644530 0.503690 -0.609514
O3    O     O_R   0.414740 0.495110 0.618560 -0.578372
O4    O     O_R   0.585180 0.504880 0.627150 -0.571767
O5    O     O_R   0.427040 0.355470 0.496310 -0.612949
O6    O     O_R   0.597490 0.365240 0.504890 -0.609504
O7    O     O_R   0.414820 0.495120 0.372850 -0.600200
O8    O     O_R   0.585260 0.504890 0.381440 -0.615710
Zn1   Zn    Zn3+2 0.386190 0.493480 0.494270 1.037492
Zn2   Zn    Zn3+2 0.613810 0.506520 0.505730 1.017659
S1    S     S_3+6 0.312304 0.648892 0.098184 -0.062907
O9    O     O_2   0.307057 0.626261 0.191385 -0.350402
O10   O     O_2   0.350624 0.748900 0.091780 -0.322331
O11   O     O_3   0.189881 0.670194 0.057868 -0.582855
H1    H     H_    0.153448 0.711114 0.100763 0.393885
S2    S     S_3+6 0.270243 0.483933 0.877630 0.047679
O12   O     O_2   0.177682 0.558425 0.870024 -0.294751
O13   O     O_2   0.297503 0.461680 0.787878 -0.245182
O14   O     O_3   0.219127 0.383862 0.912199 -0.502532
H2    H     H_    0.165691 0.369233 0.867884 0.408823
C27   C     C_3   0.308754 0.458350 0.074252 -0.204111
C28   C     C_3   0.188651 0.473349 0.077095 -0.205359
C29   C     C_3   0.140172 0.377495 0.094806 -0.797442
H3    H     H_    0.160445 0.319881 0.047416 0.334425
H4    H     H_    0.165969 0.349698 0.159447 0.261653
H5    H     H_    0.054993 0.391686 0.092216 0.247367
H6    H     H_    0.166566 0.521824 0.130928 0.250740
H7    H     H_    0.151304 0.505884 0.017803 0.309190
H8    H     H_    0.325545 0.398498 0.032529 0.290984
H9    H     H_    0.332127 0.439423 0.141240 0.229636
S3    S     S_3+6 0.671685 0.329332 0.110212 0.015430
O15   O     O_2   0.767190 0.337567 0.063160 -0.343963
O16   O     O_2   0.687719 0.374957 0.196333 -0.340771
O17   O     O_3   0.681616 0.206822 0.129758 -0.434194
H10   H     H_    0.740406 0.194491 0.172152 0.383107
C30   C     C_3   0.353185 0.040495 0.470638 -0.409571
C31   C     C_3   0.306926 0.072883 0.554730 -0.328031
C32   C     C_3   0.209919 0.143005 0.539123 -0.820481
H11   H     H_    0.229182 0.211822 0.507893 0.257732
H12   H     H_    0.151713 0.107478 0.498207 0.258074
H13   H     H_    0.176367 0.162614 0.600822 0.267698
H14   H     H_    0.287325 0.006809 0.590063 0.231009
H15   H     H_    0.363744 0.111098 0.594996 0.237892
H16   H     H_    0.362761 0.105908 0.430329 0.215323
H17   H     H_    0.298404 0.995864 0.434173 0.213958
C33   C     C_3   0.648468 0.959349 0.521934 -0.411414
C34   C     C_3   0.661104 0.931462 0.616670 -0.376429
C35   C     C_3   0.760483 0.865780 0.636333 -0.749942
H18   H     H_    0.759055 0.795698 0.600203 0.284987
H19   H     H_    0.828256 0.904284 0.619256 0.260995
H20   H     H_    0.768283 0.847948 0.705382 0.266011
H21   H     H_    0.662702 0.999626 0.655539 0.234215
H22   H     H_    0.595001 0.891286 0.635166 0.233987
H23   H     H_    0.654163 0.891855 0.482061 0.211288
H24   H     H_    0.713098 0.002831 0.505391 0.209587
S4    S     S_3+6 0.015610 0.588855 0.615206 0.039076
O18   O     O_2   0.088015 0.521497 0.670996 -0.237614
O19   O     O_2   0.072847 0.671363 0.582942 -0.314430
O20   O     O_3   0.917628 0.636026 0.671995 -0.542803
H25   H     H_    0.950292 0.675042 0.717485 0.390136
C36   C     C_3   0.987334 0.418072 0.397671 -0.458063
C37   C     C_3   0.066653 0.351905 0.350378 -0.356850
C38   C     C_3   0.013487 0.292497 0.281225 -0.799733
H26   H     H_    0.958666 0.245358 0.309493 0.267999
H27   H     H_    0.970945 0.342840 0.233211 0.282149
H28   H     H_    0.071977 0.243892 0.249036 0.247873
H29   H     H_    0.121210 0.397999 0.320351 0.229225
H30   H     H_    0.110869 0.299710 0.395994 0.225542
H31   H     H_    0.929834 0.370345 0.421402 0.221223
H32   H     H_    0.946360 0.472419 0.352020 0.215256
C39   C     C_3   0.351731 0.649889 0.910803 -0.236563
C40   C     C_3   0.345702 0.681640 0.814834 -0.287382
C41   C     C_3   0.292608 0.785869 0.801682 -0.752292
H33   H     H_    0.210282 0.787120 0.816685 0.272795
H34   H     H_    0.329977 0.840211 0.842735 0.297506
H35   H     H_    0.296227 0.808615 0.734175 0.240593
H36   H     H_    0.421827 0.679351 0.788281 0.256572
H37   H     H_    0.300683 0.633897 0.773555 0.285415
H38   H     H_    0.273721 0.672303 0.930448 0.286333
H39   H     H_    0.389231 0.698797 0.951641 0.231278
S5    S     S_3+6 0.729774 0.532086 0.906501 0.041532
O21   O     O_2   0.805583 0.467458 0.960845 -0.331395
O22   O     O_2   0.715199 0.482435 0.822402 -0.314024
O23   O     O_3   0.802153 0.624236 0.882655 -0.438753
H40   H     H_    0.860194 0.592986 0.851381 0.405111
S6    S     S_3+6 0.591747 0.698016 0.894576 -0.000654
O24   O     O_2   0.504828 0.776190 0.900148 -0.369595
O25   O     O_2   0.681026 0.751740 0.928921 -0.262578
O26   O     O_3   0.608475 0.679999 0.790084 -0.525411
H41   H     H_    0.627430 0.743903 0.768192 0.387955
C42   C     C_3   0.561938 0.689351 0.082418 -0.217214
C43   C     C_3   0.551759 0.716033 0.178272 -0.375885
C44   C     C_3   0.548309 0.827615 0.192147 -0.751097
H42   H     H_    0.622312 0.855588 0.175748 0.252538
H43   H     H_    0.484527 0.866723 0.152402 0.311474
H44   H     H_    0.536002 0.844405 0.260089 0.239207
H45   H     H_    0.481413 0.690931 0.203254 0.293220
H46   H     H_    0.616963 0.682590 0.219439 0.195562
H47   H     H_    0.621461 0.735544 0.062866 0.234731
H48   H     H_    0.500145 0.723698 0.043419 0.259673
C45   C     C_3   0.698325 0.558841 0.104728 -0.295722
C46   C     C_3   0.782620 0.633153 0.103256 -0.354808
C47   C     C_3   0.886859 0.586947 0.139963 -0.801203
H49   H     H_    0.880115 0.561085 0.206229 0.249271
H50   H     H_    0.914906 0.523628 0.100617 0.299152
H51   H     H_    0.944438 0.642560 0.140427 0.253571
H52   H     H_    0.792809 0.658682 0.038118 0.318631
H53   H     H_    0.762586 0.698749 0.142809 0.215030
H54   H     H_    0.687825 0.545894 0.172767 0.220171
H55   H     H_    0.735344 0.493796 0.083196 0.319713
S7    S     S_3+6 0.441423 0.279528 0.911452 0.076065
O27   O     O_2   0.349931 0.260377 0.959480 -0.175328
O28   O     O_2   0.407272 0.300854 0.820226 -0.282191
O29   O     O_3   0.506176 0.166340 0.912580 -0.529707
H56   H     H_    0.462479 0.124435 0.877137 0.385348
C48   C     C_3   0.630652 0.320076 0.918381 -0.222125
C49   C     C_3   0.642214 0.287702 0.823407 -0.292873
C50   C     C_3   0.751852 0.243034 0.810199 -0.791833
H57   H     H_    0.808727 0.297458 0.825764 0.311599
H58   H     H_    0.770378 0.176604 0.851151 0.271589
H59   H     H_    0.758537 0.220838 0.742678 0.238623
H60   H     H_    0.591090 0.230932 0.802253 0.264028
H61   H     H_    0.625228 0.348230 0.777638 0.237419
H62   H     H_    0.693450 0.360099 0.933506 0.272939
H63   H     H_    0.650052 0.251189 0.955827 0.276307
S8    S     S_3+6 0.470274 0.281248 0.117007 0.084923
O30   O     O_2   0.505966 0.182265 0.081701 -0.138634
O31   O     O_2   0.506765 0.282111 0.209489 -0.278091
O32   O     O_3   0.343093 0.271678 0.121335 -0.592260
H64   H     H_    0.336460 0.214477 0.159091 0.388244

loop_
_geom_bond_atom_site_label_1
_geom_bond_atom_site_label_2
_ccdc_geom_bond_type
C32   H12   S    
O20   H25   S    
C41   H33   S    
S7    O28   D    
C4    S8    S    
C46   H52   S    
S4    O20   S    
C33   H24   S    
C9    C14   T    
C3    C6    S    
S6    O24   D    
C7    C8    T    
S1    O10   D    
C21   O8    A    
S2    O12   D    
C39   H39   S    
C40   H36   S    
O32   H64   S    
C7    C26   S    
O7    Zn1   S    
S4    O19   D    
C45   C46   S    
S5    O22   D    
C49   C50   S    
S7    O29   S    
C43   H46   S    
C32   H13   S    
C31   H14   S    
C11   C13   S    
C27   H8    S    
O2    Zn2   S    
C23   C26   S    
C48   H63   S    
C1    O2    A    
C44   H44   S    
C2    S1    S    
C22   S2    S    
C45   H55   S    
C39   C40   S    
C16   C17   D    
S3    O17   S    
C2    C22   S    
C30   H17   S    
C35   H20   S    
C1    C15   S    
O4    Zn2   S    
C19   N1    T    
C34   H21   S    
S8    O31   D    
C49   H60   S    
S2    O14   S    
C8    C12   S    
C20   O6    A    
C42   H48   S    
C47   H51   S    
C32   H11   S    
S3    O15   D    
C41   H34   S    
C12   O4    A    
C3    C24   S    
C33   H23   S    
C24   C45   S    
O23   H40   S    
S2    O13   D    
C5    S7    S    
S1    O11   S    
C50   H58   S    
C23   S5    S    
S3    O16   D    
C33   C34   S    
C29   H3    S    
C37   H29   S    
C18   N2    T    
S4    O18   D    
S8    O32   S    
C11   C30   S    
C10   C14   S    
S5    O23   S    
S1    O9    D    
C43   H45   S    
C48   C49   S    
C5    C48   S    
C28   C29   S    
C31   H15   S    
O5    Zn1   S    
C27   H9    S    
O3    Zn1   S    
C36   H31   S    
C29   H4    S    
C34   C35   S    
O17   H10   S    
C2    C27   S    
C38   H27   S    
C50   H59   S    
C9    C20   S    
O14   H2    S    
N2    Zn2   S    
C23   C24   S    
C1    O1    A    
C17   C18   S    
S8    O30   D    
C35   H18   S    
C42   C43   S    
C44   H42   S    
C49   H61   S    
C20   O5    A    
C31   C32   S    
C41   H35   S    
C13   C15   T    
C12   O3    A    
O11   H1    S    
C47   H49   S    
C38   H26   S    
C43   C44   S    
C50   H57   S    
C21   C25   S    
C24   C42   S    
C22   C39   S    
O6    Zn2   S    
C46   H53   S    
C35   H19   S    
C4    C5    S    
C47   H50   S    
S6    O25   D    
S7    O27   D    
C37   H30   S    
C21   O7    A    
C34   H22   S    
C39   H38   S    
C40   H37   S    
C28   H6    S    
C36   H32   S    
C29   H5    S    
C30   C31   S    
C17   S4    S    
O8    Zn2   S    
C2    C3    S    
C48   H62   S    
S5    O21   D    
C38   H28   S    
C10   C33   S    
C37   C38   S    
N1    Zn1   S    
C16   C19   S    
C4    S3    S    
C40   C41   S    
C46   C47   S    
C30   H16   S    
C28   H7    S    
C44   H43   S    
S6    O26   S    
C10   C11   D    
C5    C26   S    
C6    C25   T    
C16   C36   S    
C45   H54   S    
C27   C28   S    
C22   C26   S    
O1    Zn1   S    
O29   H56   S    
C36   C37   S    
O26   H41   S    
C3    C4    S    
C23   S6    S    
C42   H47   S    
