data_mof_unit_54160.cif
_audit_creation_date              2012-12-11T17:16:03-0500
_audit_creation_method            fapswitch 2.2
_symmetry_space_group_name_H-M    P1
_symmetry_Int_Tables_number       1
_space_group_crystal_system       triclinic
_cell_length_a                    14.678679
_cell_length_b                    7.332312
_cell_length_c                    13.375643
_cell_angle_alpha                 90.000107
_cell_angle_beta                  99.70387
_cell_angle_gamma                 89.999941
_cell_volume                      1419.00474721

loop_
_atom_site_label
_atom_site_type_symbol
_atom_type_description
_atom_site_fract_x
_atom_site_fract_y
_atom_site_fract_z
_atom_type_partial_charge
O1    O     O_R   0.398210 0.494340 0.401550 -0.526514
O2    O     O_R   0.601790 0.994340 0.598450 -0.526514
O3    O     O_R   0.586310 0.821730 0.403360 -0.550564
O4    O     O_R   0.413690 0.321730 0.596640 -0.550564
C1    C     C_R   0.614045 0.655858 0.381207 0.700060
C2    C     C_R   0.385955 0.155858 0.618793 0.700061
O5    O     O_R   0.397970 0.823900 0.389580 -0.539128
O6    O     O_R   0.602030 0.323900 0.610420 -0.539127
O7    O     O_R   0.412100 0.996500 0.584560 -0.534435
O8    O     O_R   0.587900 0.496500 0.415440 -0.534435
C3    C     C_R   0.365411 0.655365 0.363195 0.725259
C4    C     C_R   0.634589 0.155365 0.636805 0.725266
O9    O     O_3   0.504860 0.661550 0.563990 -0.377505
O10   O     O_3   0.495140 0.161550 0.436010 -0.377505
V1    V     V_3+5 0.499100 0.935510 0.488130 1.415917
V2    V     V_3+5 0.500900 0.435510 0.511870 1.415917
C5    C     C_1   0.715835 0.144810 0.716919 -0.176309
C6    C     C_1   0.284165 0.644810 0.283081 -0.176299
C7    C     C_1   0.783939 0.133981 0.783403 -0.186660
C8    C     C_1   0.216061 0.633981 0.216597 -0.186654
C9    C     C_3   0.214735 0.335167 0.793058 0.344471
C10   C     C_3   0.785264 0.835168 0.206942 0.344469
H1    H     H_    0.240676 0.399522 0.868279 0.008388
H2    H     H_    0.759323 0.899521 0.131721 0.008388
C11   C     C_3   0.292513 0.342609 0.727597 -0.356336
C12   C     C_3   0.707486 0.842610 0.272403 -0.356339
H3    H     H_    0.354008 0.411550 0.770124 0.083991
H4    H     H_    0.645990 0.911553 0.229879 0.083995
H5    H     H_    0.270157 0.432878 0.660977 0.172463
H6    H     H_    0.729843 0.932879 0.339024 0.172464
H7    H     H_    0.084215 0.137736 0.665850 0.184432
H8    H     H_    0.915786 0.637740 0.334151 0.184432
H9    H     H_    0.195655 0.168882 0.564925 0.165345
H10   H     H_    0.804346 0.668890 0.435076 0.165345
C13   C     C_3   0.147729 0.063369 0.700522 -0.315497
C14   C     C_3   0.852272 0.563372 0.299479 -0.315500
C15   C     C_3   0.274009 0.025515 0.856508 -0.486638
C16   C     C_3   0.725993 0.525512 0.143494 -0.486631
C17   C     C_3   0.186199 0.135252 0.809814 0.032455
C18   C     C_3   0.813802 0.635252 0.190187 0.032454
H11   H     H_    0.254570 0.884799 0.875626 0.132941
H12   H     H_    0.745433 0.384797 0.124376 0.132942
H13   H     H_    0.305594 0.088357 0.929596 0.144375
H14   H     H_    0.694408 0.588353 0.070405 0.144376
C19   C     C_3   0.314603 0.148864 0.688983 -0.024948
C20   C     C_3   0.685397 0.648864 0.311018 -0.024948
C21   C     C_3   0.221292 0.076422 0.629577 -0.404383
C22   C     C_3   0.778709 0.576426 0.370425 -0.404376
C23   C     C_3   0.343342 0.014786 0.780597 0.319987
C24   C     C_3   0.656660 0.514782 0.219404 0.319987
H15   H     H_    0.333216 0.875574 0.747170 0.107747
H16   H     H_    0.666787 0.375569 0.252831 0.107743
H17   H     H_    0.123948 0.925578 0.701801 0.132538
H18   H     H_    0.876054 0.425581 0.298202 0.132539
H19   H     H_    0.230715 0.939800 0.596470 0.138854
H20   H     H_    0.769287 0.439803 0.403534 0.138853
O11   O     O_R   0.912140 0.786650 0.084610 -0.527217
O12   O     O_R   0.087860 0.286650 0.915390 -0.527216
O13   O     O_R   0.102040 0.454810 0.110430 -0.537487
O14   O     O_R   0.897960 0.954810 0.889570 -0.537486
C25   C     C_R   0.134711 0.623420 0.136625 0.713252
C26   C     C_R   0.865289 0.123420 0.863375 0.713257
O15   O     O_R   0.913690 0.457060 0.096650 -0.555562
O16   O     O_R   0.086310 0.957060 0.903350 -0.555563
O17   O     O_R   0.898200 0.284560 0.901540 -0.527920
O18   O     O_R   0.101800 0.784560 0.098460 -0.527921
C27   C     C_R   0.886112 0.625626 0.119331 0.682532
C28   C     C_R   0.113888 0.125626 0.880670 0.682532
O19   O     O_3   0.995160 0.617270 0.936040 -0.384948
O20   O     O_3   0.004840 0.117270 0.063960 -0.384949
V3    V     V_3+5 0.000900 0.343280 0.011870 1.357425
V4    V     V_3+5 0.999100 0.843280 0.988130 1.357425
O21   O     O_3   0.135004 0.418947 0.738181 -0.564622
C29   C     C_3   0.122554 0.595670 0.770273 0.115699
H21   H     H_    0.128437 0.605220 0.853809 0.154850
H22   H     H_    0.177940 0.679274 0.747088 0.085342
C30   C     C_3   0.025284 0.652769 0.720012 -0.635715
H23   H     H_    0.974401 0.547064 0.733297 0.225435
H24   H     H_    0.004267 0.782944 0.751382 0.186128
H25   H     H_    0.022502 0.667638 0.636903 0.182326
O22   O     O_3   0.864995 0.918950 0.261819 -0.564622
C31   C     C_3   0.877445 0.095672 0.229725 0.115698
H26   H     H_    0.871562 0.105220 0.146190 0.154850
H27   H     H_    0.822059 0.179278 0.252910 0.085343
C32   C     C_3   0.974715 0.152770 0.279985 -0.635711
H28   H     H_    0.025598 0.047065 0.266697 0.225435
H29   H     H_    0.995732 0.282946 0.248617 0.186128
H30   H     H_    0.977499 0.167636 0.363094 0.182326
O23   O     O_3   0.438084 0.013044 0.827545 -0.556493
C33   C     C_3   0.472419 0.182229 0.868023 0.118357
H31   H     H_    0.422693 0.256816 0.906848 0.110943
H32   H     H_    0.492638 0.267699 0.806815 0.118757
C34   C     C_3   0.558835 0.149007 0.946254 -0.716275
H33   H     H_    0.611385 0.074904 0.911080 0.215982
H34   H     H_    0.588426 0.281383 0.976346 0.194148
H35   H     H_    0.541282 0.066964 0.010151 0.214737
O24   O     O_3   0.561917 0.513037 0.172454 -0.556493
C35   C     C_3   0.527583 0.682222 0.131971 0.118372
H36   H     H_    0.577318 0.756826 0.093166 0.110925
H37   H     H_    0.507343 0.767677 0.193175 0.118764
C36   C     C_3   0.441185 0.648997 0.053711 -0.716295
H38   H     H_    0.388629 0.574849 0.088857 0.215983
H39   H     H_    0.411580 0.781371 0.023623 0.194158
H40   H     H_    0.458773 0.566999 0.989817 0.214741

loop_
_geom_bond_atom_site_label_1
_geom_bond_atom_site_label_2
_ccdc_geom_bond_type
C3    C6    S    
C15   H13   S    
C34   H33   S    
C2    C19   S    
C11   C19   S    
C13   H17   S    
C17   C28   S    
O1    C3    A    
C13   C21   S    
C2    O7    A    
O24   C35   S    
C30   H23   S    
O5    C3    A    
C36   H38   S    
C29   H22   S    
H8    C14   S    
C10   H2    S    
C16   H12   S    
O12   V3    S    
C30   H25   S    
O14   V4    S    
C7    C26   S    
C9    O21   S    
O14   C26   A    
O21   C29   S    
C19   C21   S    
C8    C25   S    
C31   H27   S    
C25   O18   A    
O18   V4    S    
C23   H15   S    
C29   C30   S    
C4    C5    S    
C24   H16   S    
O20   V3    S    
O6    V2    S    
O5    V1    S    
O2    C4    A    
C36   H39   S    
O11   C27   A    
O22   C31   S    
C20   C22   S    
C30   H24   S    
C11   H5    S    
O15   C27   A    
O13   C25   A    
C29   H21   S    
C32   H29   S    
C10   O22   S    
C14   C18   S    
O4    C2    A    
C32   H28   S    
C18   C27   S    
O4    V2    S    
O19   V4    S    
C13   C17   S    
C16   H14   S    
C15   C23   S    
C33   H32   S    
C9    C17   S    
C19   C23   S    
O6    C4    A    
C10   C18   S    
O1    V2    S    
O2    V1    S    
O12   C28   A    
O15   V3    S    
C12   H6    S    
C34   H35   S    
C35   H37   S    
C9    H1    S    
H9    C21   S    
H7    C13   S    
H10   C22   S    
C35   C36   S    
O16   C28   A    
O3    V1    S    
C33   C34   S    
C21   H19   S    
C32   H30   S    
C22   H20   S    
C9    C11   S    
C24   O24   S    
C26   O17   A    
C23   O23   S    
O3    C1    A    
C16   C24   S    
C11   H3    S    
C31   C32   S    
C1    C20   S    
C20   C24   S    
C12   H4    S    
O7    V1    S    
C1    O8    A    
C15   C17   S    
O17   V3    S    
C16   C18   S    
C33   H31   S    
C5    C7    T    
C14   C22   S    
C6    C8    T    
O16   V4    S    
O11   V4    S    
C15   H11   S    
C14   H18   S    
C12   C20   S    
C34   H34   S    
C35   H36   S    
C10   C12   S    
O9    V2    S    
O10   V1    S    
O8    V2    S    
C36   H40   S    
C31   H26   S    
O23   C33   S    
O13   V3    S    
