data_mof_unit_34852.cif
_audit_creation_date              2012-12-10T17:09:50-0500
_audit_creation_method            fapswitch 2.2
_symmetry_space_group_name_H-M    P1
_symmetry_Int_Tables_number       1
_space_group_crystal_system       triclinic
_cell_length_a                    10.884557
_cell_length_b                    12.92872
_cell_length_c                    11.799791
_cell_angle_alpha                 100.055239
_cell_angle_beta                  92.601233
_cell_angle_gamma                 91.151074
_cell_volume                      1632.6538036

loop_
_atom_site_label
_atom_site_type_symbol
_atom_type_description
_atom_site_fract_x
_atom_site_fract_y
_atom_site_fract_z
_atom_type_partial_charge
C1    C     C_R   0.503611 0.300059 0.478704 0.859653
C2    C     C_R   0.063452 0.500865 0.601529 -0.000926
C3    C     C_R   0.127342 0.499968 0.499488 -0.152080
C4    C     C_R   0.059535 0.513038 0.397337 0.190257
C5    C     C_R   0.932438 0.499489 0.392944 0.120444
C6    C     C_R   0.871684 0.518416 0.497975 -0.201269
C7    C     C_R   0.476571 0.812467 0.530118 -0.059161
C8    C     C_R   0.516725 0.187592 0.468586 -0.072331
C9    C     C_R   0.650302 0.038812 0.457710 -0.160018
C10   C     C_R   0.632679 0.143382 0.446619 0.098278
C11   C     C_R   0.418327 0.127600 0.498242 0.044350
C12   C     C_R   0.262122 0.498141 0.500466 0.884086
C13   C     C_R   0.437104 0.022548 0.509154 0.083293
C14   C     C_R   0.554337 0.978783 0.490518 0.104057
C15   C     C_R   0.573553 0.874600 0.502856 -0.283677
C16   C     C_R   0.358832 0.854910 0.544110 0.151951
C17   C     C_R   0.341043 0.959528 0.536872 -0.154713
C18   C     C_R   0.442979 0.373039 0.020339 -0.277882
C19   C     C_R   0.424380 0.393038 0.139416 0.375329
C20   C     C_R   0.535097 0.556203 0.157402 0.332764
C21   C     C_R   0.527817 0.548710 0.034136 0.037051
C22   C     C_R   0.493984 0.450636 0.966435 -0.030909
C23   C     C_R   0.494328 0.700175 0.521101 0.821892
C24   C     C_R   0.503706 0.435377 0.844591 0.010836
C25   C     C_R   0.514404 0.617191 0.855128 0.335005
C26   C     C_R   0.545134 0.634812 0.974023 0.027661
C27   C     C_R   0.737530 0.505984 0.499179 0.801627
C28   C     C_R   0.112936 0.468486 0.701458 -0.169153
C29   C     C_R   0.053721 0.490480 0.805023 0.188951
C30   C     C_R   0.952340 0.557294 0.813749 0.155250
C31   C     C_R   0.900976 0.586369 0.711786 0.186119
C32   C     C_R   0.943716 0.538071 0.603602 0.027262
Cu1   Cu    Cu3+1 0.509250 0.507730 0.615930 0.974993
Cu2   Cu    Cu3+1 0.490750 0.492270 0.384070 1.008239
H1    H     H_    0.249580 0.988937 0.548630 0.196375
H2    H     H_    0.485335 0.358189 0.793617 0.160101
H3    H     H_    0.407193 0.300301 0.968396 0.180615
H4    H     H_    0.193412 0.420856 0.699105 0.200130
H5    H     H_    0.662705 0.840328 0.486879 0.136423
H6    H     H_    0.739454 0.004514 0.442356 0.155608
N1    N     N_R   0.523180 0.519350 0.790130 -0.227543
N2    N     N_R   0.476820 0.480650 0.209890 -0.199919
O1    O     O_R   0.506570 0.354460 0.582000 -0.589295
O2    O     O_R   0.490940 0.341410 0.386200 -0.557539
O3    O     O_R   0.327470 0.506530 0.597920 -0.567079
O4    O     O_R   0.311840 0.493480 0.402120 -0.535898
O5    O     O_R   0.509060 0.658590 0.613800 -0.566945
O6    O     O_R   0.493430 0.645540 0.418000 -0.586082
O7    O     O_R   0.688160 0.506520 0.597880 -0.574650
O8    O     O_R   0.672530 0.493470 0.402080 -0.579246
I1    I     I_    0.133659 0.577064 0.256718 -0.228972
C33   C     C_3   0.739049 0.207986 0.415806 -0.769562
H7    H     H_    0.822799 0.160871 0.400321 0.244530
H8    H     H_    0.714003 0.239030 0.336123 0.256256
H9    H     H_    0.761827 0.274655 0.487178 0.220182
I2    I     I_    0.243031 0.199319 0.527121 -0.376282
I3    I     I_    0.360456 0.707595 0.819190 -0.274872
C34   C     C_3   0.567318 0.748715 0.031060 -0.828063
H10   H     H_    0.564953 0.802336 0.967071 0.248006
H11   H     H_    0.494916 0.773889 0.092444 0.262503
H12   H     H_    0.660925 0.762487 0.072072 0.230836
I4    I     I_    0.301812 0.284831 0.195794 -0.210782
C35   C     C_3   0.621415 0.640116 0.224982 -0.730472
H13   H     H_    0.661703 0.622514 0.304600 0.265224
H14   H     H_    0.704929 0.647385 0.176243 0.207094
H15   H     H_    0.575105 0.716027 0.246590 0.222093
I5    I     I_    0.126520 0.420301 0.941626 -0.293352
C36   C     C_3   0.896823 0.595916 0.928112 -0.772599
H16   H     H_    0.944750 0.568212 0.001326 0.279750
H17   H     H_    0.900844 0.683068 0.947578 0.233017
H18   H     H_    0.799362 0.568050 0.924308 0.229126
C37   C     C_3   0.817127 0.679193 0.719727 -0.749057
H19   H     H_    0.792092 0.698630 0.633793 0.209957
H20   H     H_    0.732052 0.663635 0.762668 0.241623
H21   H     H_    0.865378 0.749834 0.770706 0.228971
I6    I     I_    0.848387 0.434957 0.225919 -0.318663
I7    I     I_    0.196320 0.767796 0.560112 -0.328777

loop_
_geom_bond_atom_site_label_1
_geom_bond_atom_site_label_2
_ccdc_geom_bond_type
C6    C32   A    
C21   C26   A    
C35   H14   S    
C1    C8    S    
Cu1   O3    S    
Cu2   N2    S    
C10   C33   S    
C24   H2    S    
C28   C29   A    
C18   H3    S    
C18   C19   A    
C8    C11   A    
C5    C6    A    
C16   C17   A    
C19   I4    S    
C34   H11   S    
C2    C32   A    
C16   I7    S    
C3    C12   S    
C29   I5    S    
C1    O1    A    
C31   C32   A    
C36   H16   S    
Cu2   O4    S    
C9    C10   A    
C33   H9    S    
C34   H12   S    
C7    C15   A    
C35   H15   S    
C21   C22   A    
C24   N1    A    
C25   I3    S    
C37   H21   S    
C33   H8    S    
Cu2   O8    S    
C23   O5    A    
C4    I1    S    
Cu1   O1    S    
Cu2   O2    S    
C37   H20   S    
C25   N1    A    
C12   O3    A    
C25   C26   A    
C9    H6    S    
C12   O4    A    
C9    C14   A    
C29   C30   A    
C1    O2    A    
C6    C27   S    
C28   H4    S    
Cu1   Cu2   S    
C26   C34   S    
C15   H5    S    
C36   H17   S    
C31   C37   S    
Cu1   O5    S    
C22   C24   A    
Cu2   O6    S    
C3    C4    A    
C33   H7    S    
C27   O8    A    
C7    C16   A    
C23   O6    A    
C18   C22   A    
C37   H19   S    
C20   N2    A    
C19   N2    A    
C13   C17   A    
Cu1   N1    S    
C20   C35   S    
C2    C3    A    
C34   H10   S    
C11   C13   A    
C30   C31   A    
C5    I6    S    
C36   H18   S    
C7    C23   S    
C35   H13   S    
C4    C5    A    
C20   C21   A    
C8    C10   A    
C14   C15   A    
C2    C28   A    
C17   H1    S    
C13   C14   A    
Cu1   O7    S    
C30   C36   S    
C11   I2    S    
C27   O7    A    
