data_mof_unit_46383.cif
_audit_creation_date              2012-12-10T17:22:10-0500
_audit_creation_method            fapswitch 2.2
_symmetry_space_group_name_H-M    P1
_symmetry_Int_Tables_number       1
_space_group_crystal_system       triclinic
_cell_length_a                    15.881483
_cell_length_b                    10.866884
_cell_length_c                    9.581789
_cell_angle_alpha                 90.366687
_cell_angle_beta                  89.942795
_cell_angle_gamma                 92.509209
_cell_volume                      1652.02676684

loop_
_atom_site_label
_atom_site_type_symbol
_atom_type_description
_atom_site_fract_x
_atom_site_fract_y
_atom_site_fract_z
_atom_type_partial_charge
C1    C     C_R   0.506627 0.263061 0.500348 0.797241
C2    C     C_3   0.947376 0.374887 0.548415 -0.353093
C3    C     C_3   0.917168 0.502302 0.502511 0.246790
C4    C     C_3   0.954550 0.604201 0.602614 0.126774
C5    C     C_3   0.052339 0.601959 0.603581 -0.385157
C6    C     C_1   0.824936 0.501795 0.500791 -0.047013
C7    C     C_1   0.174978 0.501167 0.500942 -0.093281
C8    C     C_1   0.250544 0.500478 0.500423 -0.179772
C9    C     C_R   0.554560 0.122372 0.754792 -0.155159
C10   C     C_R   0.544676 0.064491 0.883397 -0.156408
C11   C     C_R   0.503050 0.949765 0.890666 -0.147549
C12   C     C_R   0.340255 0.499762 0.500126 0.833293
C13   C     C_R   0.479234 0.887669 0.768235 -0.165353
C14   C     C_R   0.497603 0.939557 0.635372 0.094763
C15   C     C_R   0.522848 0.065348 0.630850 0.095232
C16   C     C_R   0.514178 0.129246 0.503115 -0.119296
C17   C     C_R   0.501243 0.063001 0.378719 -0.212539
C18   C     C_R   0.494136 0.935840 0.380201 -0.216117
C19   C     C_R   0.492137 0.872304 0.507014 -0.112299
C20   C     C_R   0.611790 0.664374 0.145005 -0.153949
C21   C     C_R   0.666186 0.744809 0.073080 -0.211747
C22   C     C_R   0.666306 0.744523 0.929336 -0.150157
C23   C     C_R   0.495428 0.737611 0.501549 0.777315
C24   C     C_R   0.611863 0.664037 0.856660 -0.125102
C25   C     C_R   0.554865 0.580846 0.925582 0.187743
C26   C     C_R   0.554836 0.580896 0.075269 0.208302
C27   C     C_R   0.448154 0.422619 0.073463 -0.066653
C28   C     C_R   0.448169 0.422658 0.925465 -0.064018
C29   C     C_R   0.659714 0.500479 0.499913 0.799746
C30   C     C_3   0.044920 0.375034 0.549012 -0.374684
C31   C     C_3   0.049497 0.528910 0.353539 -0.374903
C32   C     C_3   0.951913 0.528547 0.353804 -0.430063
C33   C     C_1   0.749375 0.501194 0.499994 -0.143393
C34   C     C_3   0.082786 0.501827 0.501677 0.267431
Cu1   Cu    Cu3+1 0.499990 0.499990 0.640660 0.927070
Cu2   Cu    Cu3+1 0.500010 0.500010 0.359340 0.932639
H1    H     H_    0.922225 0.301969 0.475653 0.158260
H2    H     H_    0.067384 0.353980 0.655882 0.177548
H3    H     H_    0.936112 0.695685 0.564275 0.120895
H4    H     H_    0.496562 0.109397 0.279450 0.162127
H5    H     H_    0.588761 0.210535 0.753873 0.166700
H6    H     H_    0.490779 0.907483 0.991103 0.137566
H7    H     H_    0.443826 0.801545 0.780946 0.169671
H8    H     H_    0.488748 0.887341 0.281243 0.163987
H9    H     H_    0.405704 0.359180 0.128404 0.137024
H10   H     H_    0.617650 0.671849 0.254976 0.200973
H11   H     H_    0.708756 0.807674 0.129635 0.154389
H12   H     H_    0.708805 0.807362 0.873365 0.164649
H13   H     H_    0.405754 0.359207 0.869692 0.144563
H14   H     H_    0.075466 0.620097 0.317577 0.172800
H15   H     H_    0.070855 0.458280 0.278296 0.179661
H16   H     H_    0.926524 0.457262 0.279224 0.195188
H17   H     H_    0.931071 0.619221 0.316819 0.175172
H18   H     H_    0.075870 0.583697 0.710453 0.203698
H19   H     H_    0.079442 0.693970 0.572559 0.144827
N1    N     N_R   0.500800 0.501210 0.147910 -0.196579
N2    N     N_R   0.500820 0.501290 0.852040 -0.203218
O1    O     O_R   0.499990 0.319640 0.618810 -0.588922
O2    O     O_R   0.500000 0.319660 0.381240 -0.580928
O3    O     O_R   0.379430 0.499990 0.618840 -0.574863
O4    O     O_R   0.379440 0.500020 0.381260 -0.571817
O5    O     O_R   0.500000 0.680340 0.618760 -0.615930
O6    O     O_R   0.500010 0.680360 0.381190 -0.600533
O7    O     O_R   0.620560 0.499980 0.618740 -0.586164
O8    O     O_R   0.620570 0.500010 0.381160 -0.592072
H20   H     H_    0.922842 0.351238 0.654069 0.206743
H21   H     H_    0.567116 0.110315 0.977789 0.138570
H22   H     H_    0.066341 0.301108 0.478108 0.164542
H23   H     H_    0.617153 0.671925 0.746748 0.200959
Br1   Br    Br    0.909762 0.590098 0.792417 -0.586118

loop_
_geom_bond_atom_site_label_1
_geom_bond_atom_site_label_2
_ccdc_geom_bond_type
C22   H12   S    
C6    C33   T    
Cu1   O7    S    
Cu2   N1    S    
C18   H8    S    
Cu2   O6    S    
C17   H4    S    
C9    C10   A    
C32   H17   S    
C27   N1    A    
C9    H5    S    
Cu1   Cu2   S    
C14   C15   A    
C4    H3    S    
C8    C12   S    
Cu1   N2    S    
C3    C6    S    
C5    C34   S    
C27   H9    S    
C4    Br1   S    
C17   C18   A    
C9    C15   A    
C29   O7    A    
C7    C8    T    
C1    C16   S    
C10   H21   S    
C1    O1    A    
C24   C25   A    
C12   O4    A    
C11   C13   A    
C2    H1    S    
C30   H2    S    
Cu1   O3    S    
C16   C17   A    
C20   C26   A    
Cu1   O1    S    
C29   O8    A    
C26   N1    A    
C21   C22   A    
C24   H23   S    
C2    C3    S    
Cu1   O5    S    
C1    O2    A    
Cu2   O4    S    
C3    C32   S    
C7    C34   S    
C22   C24   A    
C23   O6    A    
C31   C34   S    
C10   C11   A    
C30   C34   S    
C31   H14   S    
C15   C16   A    
C25   N2    A    
C29   C33   S    
C5    H18   S    
C13   H7    S    
C2    C30   S    
C20   C21   A    
C28   N2    A    
C11   H6    S    
C31   C32   S    
C18   C19   A    
C28   H13   S    
C27   C28   A    
C19   C23   S    
C32   H16   S    
C13   C14   A    
C2    H20   S    
C25   C26   A    
Cu2   O8    S    
Cu2   O2    S    
C14   C19   A    
C5    H19   S    
C23   O5    A    
C30   H22   S    
C3    C4    S    
C31   H15   S    
C4    C5    S    
C21   H11   S    
C20   H10   S    
C12   O3    A    
