data_mof_unit_54142.cif
_audit_creation_date              2012-10-26T17:10:24-0400
_audit_creation_method            fapswitch 2.2
_symmetry_space_group_name_H-M    P1
_symmetry_Int_Tables_number       1
_space_group_crystal_system       triclinic
_cell_length_a                    16.905429
_cell_length_b                    16.959716
_cell_length_c                    16.915017
_cell_angle_alpha                 66.839524
_cell_angle_beta                  67.523375
_cell_angle_gamma                 66.847451
_cell_volume                      3948.28553044

loop_
_atom_site_label
_atom_site_type_symbol
_atom_type_description
_atom_site_fract_x
_atom_site_fract_y
_atom_site_fract_z
_atom_type_partial_charge
C1    C     C_R   0.596387 0.021273 0.596314 -0.080077
C2    C     C_R   0.403663 0.978514 0.403760 -0.080517
C3    C     C_R   0.019619 0.601762 0.595541 -0.094978
C4    C     C_R   0.982413 0.403330 0.398041 -0.096651
C5    C     C_R   0.604135 0.599230 0.010187 -0.118640
C6    C     C_R   0.406037 0.399452 0.976082 -0.098583
C7    C     C_R   0.030240 0.828862 0.564523 0.861354
C8    C     C_R   0.982674 0.168935 0.430636 0.882523
C9    C     C_R   0.828988 0.564354 0.029877 0.860805
C10   C     C_R   0.169054 0.430760 0.982520 0.884262
C11   C     C_R   0.566508 0.023332 0.829566 0.874840
C12   C     C_R   0.433496 0.976661 0.170430 0.875142
C13   C     C_R   0.435549 0.171120 0.969547 0.862316
C14   C     C_R   0.569449 0.831194 0.017089 0.881001
C15   C     C_R   0.969858 0.435698 0.170929 0.870238
C16   C     C_R   0.017365 0.569286 0.831050 0.882695
C17   C     C_R   0.170465 0.976411 0.433591 0.874246
C18   C     C_R   0.829548 0.023552 0.566419 0.874529
C19   C     C_R   0.547005 0.010423 0.546829 0.216782
C20   C     C_R   0.453038 0.989344 0.453265 0.213800
C21   C     C_R   0.010866 0.550985 0.544099 0.148763
C22   C     C_R   0.992782 0.454308 0.448241 0.147976
C23   C     C_R   0.555069 0.549620 0.996270 0.110412
C24   C     C_R   0.458371 0.451311 0.981920 0.129339
C25   C     C_R   0.572656 0.929259 0.526662 0.097718
C26   C     C_R   0.427385 0.070506 0.473434 0.089653
C27   C     C_R   0.015936 0.458676 0.580706 0.089187
C28   C     C_R   0.006491 0.540369 0.405593 0.083789
C29   C     C_R   0.462377 0.585008 0.001802 0.104208
C30   C     C_R   0.546159 0.410602 0.992815 0.142152
C31   C     C_R   0.525623 0.918761 0.479692 0.093929
C32   C     C_R   0.474407 0.081000 0.520417 0.094353
C33   C     C_R   0.421478 0.543687 0.976468 0.087106
C34   C     C_R   0.598293 0.464412 0.979990 0.103765
C35   C     C_R   0.989142 0.418028 0.540394 0.085805
C36   C     C_R   0.996917 0.593104 0.457667 0.080832
C37   C     C_R   0.556314 0.023715 0.684968 0.493967
C38   C     C_R   0.443734 0.976103 0.315093 0.482331
C39   C     C_R   0.050085 0.679165 0.552202 0.496757
C40   C     C_R   0.005479 0.308513 0.425426 0.487347
C41   C     C_R   0.680046 0.553599 0.044073 0.434852
C42   C     C_R   0.311254 0.426448 0.000993 0.486811
C43   C     C_R   0.315234 0.975254 0.443991 0.492831
C44   C     C_R   0.684796 0.024591 0.556058 0.483985
C45   C     C_R   0.448586 0.321291 0.946872 0.497338
C46   C     C_R   0.576592 0.693771 0.989346 0.504253
C47   C     C_R   0.950833 0.447583 0.320603 0.501720
C48   C     C_R   0.996014 0.574688 0.690154 0.481247
C49   C     C_R   0.604303 0.030304 0.733549 -0.303475
C50   C     C_R   0.395716 0.969616 0.266474 -0.308120
C51   C     C_R   0.044020 0.731631 0.602278 -0.284195
C52   C     C_R   0.980008 0.263622 0.388690 -0.306254
C53   C     C_R   0.731748 0.601997 0.042865 -0.258719
C54   C     C_R   0.264256 0.389050 0.978845 -0.304316
C55   C     C_R   0.266526 0.969267 0.395807 -0.302564
C56   C     C_R   0.733489 0.030653 0.604217 -0.308044
C57   C     C_R   0.397885 0.268371 0.955203 -0.285180
C58   C     C_R   0.611760 0.736973 0.018492 -0.307938
C59   C     C_R   0.956008 0.398049 0.268121 -0.280960
C60   C     C_R   0.020320 0.611224 0.736162 -0.305144
C61   C     C_R   0.691534 0.036922 0.691525 0.454090
C62   C     C_R   0.308472 0.963025 0.308490 0.453961
C63   C     C_R   0.041398 0.692125 0.692031 0.451213
C64   C     C_R   0.958180 0.308533 0.307643 0.457221
C65   C     C_R   0.691770 0.691048 0.042416 0.460905
C66   C     C_R   0.307854 0.307614 0.958890 0.450296
Cu1   Cu    Cu3+1 0.995180 0.995180 0.424630 1.166372
Cu2   Cu    Cu3+1 0.004820 0.004820 0.575370 1.167433
Cu3   Cu    Cu3+1 0.995180 0.424630 0.995180 1.146438
Cu4   Cu    Cu3+1 0.004820 0.575370 0.004820 1.151636
Cu5   Cu    Cu3+1 0.424630 0.995180 0.995180 1.167997
Cu6   Cu    Cu3+1 0.575370 0.004820 0.004820 1.167567
O1    O     O_R   0.124540 0.978640 0.385460 -0.524101
O2    O     O_R   0.875460 0.021360 0.614540 -0.525136
O3    O     O_R   0.978640 0.385460 0.124540 -0.524227
O4    O     O_R   0.021360 0.614540 0.875460 -0.525491
O5    O     O_R   0.385460 0.124540 0.978640 -0.526132
O6    O     O_R   0.614540 0.875460 0.021360 -0.526037
O7    O     O_R   0.614540 0.021360 0.875460 -0.524140
O8    O     O_R   0.385460 0.978640 0.124540 -0.525095
O9    O     O_R   0.875460 0.614540 0.021360 -0.525865
O10   O     O_R   0.124540 0.385460 0.978640 -0.524705
O11   O     O_R   0.021360 0.875460 0.614540 -0.525991
O12   O     O_R   0.978640 0.124540 0.385460 -0.524060
O13   O     O_R   0.013780 0.867370 0.487190 -0.548599
O14   O     O_R   0.986220 0.132630 0.512810 -0.544236
O15   O     O_R   0.867370 0.487190 0.013780 -0.550572
O16   O     O_R   0.132630 0.512810 0.986220 -0.543430
O17   O     O_R   0.487190 0.013780 0.867370 -0.525846
O18   O     O_R   0.512810 0.986220 0.132630 -0.530049
O19   O     O_R   0.512810 0.132630 0.986220 -0.548392
O20   O     O_R   0.487190 0.867370 0.013780 -0.544456
O21   O     O_R   0.986220 0.512810 0.132630 -0.542479
O22   O     O_R   0.013780 0.487190 0.867370 -0.545651
O23   O     O_R   0.132630 0.986220 0.512810 -0.526102
O24   O     O_R   0.867370 0.013780 0.487190 -0.530260
N1    N     N_3   0.449873 0.163454 0.540760 -0.551993
H1    H     H_    0.454883 0.215178 0.481111 0.228802
H2    H     H_    0.383587 0.176254 0.579545 0.255487
N2    N     N_3   0.550122 0.836286 0.459398 -0.548063
H3    H     H_    0.616427 0.823426 0.420661 0.259476
H4    H     H_    0.545054 0.784592 0.519077 0.228500
N3    N     N_3   0.967034 0.688800 0.424626 -0.503253
H5    H     H_    0.011554 0.710226 0.363469 0.272467
H6    H     H_    0.904770 0.706464 0.413438 0.224953
N4    N     N_3   0.953417 0.343721 0.594732 -0.504432
H7    H     H_    0.000789 0.292181 0.625871 0.271132
H8    H     H_    0.897397 0.364649 0.644525 0.233600
N5    N     N_3   0.692919 0.434386 0.940757 -0.538170
H9    H     H_    0.723193 0.381090 0.987666 0.289389
H10   H     H_    0.722865 0.485942 0.914874 0.262172
N6    N     N_3   0.346061 0.597073 0.940743 -0.505428
H11   H     H_    0.295241 0.628364 0.987291 0.269757
H12   H     H_    0.365839 0.647022 0.883723 0.233320
N7    N     N_3   0.354190 0.142260 0.444602 -0.546211
H13   H     H_    0.305173 0.159264 0.500527 0.266291
H14   H     H_    0.377160 0.197715 0.402435 0.225500
N8    N     N_3   0.645875 0.857521 0.555453 -0.558500
H15   H     H_    0.622947 0.802037 0.597577 0.230722
H16   H     H_    0.694892 0.840582 0.499504 0.251871
N9    N     N_3   0.581333 0.315135 0.022075 -0.493721
H17   H     H_    0.642044 0.295072 0.976322 0.290191
H18   H     H_    0.594478 0.298167 0.083219 0.231680
N10   N     N_3   0.408174 0.659145 0.037766 -0.502613
H19   H     H_    0.376569 0.710609 0.990712 0.271410
H20   H     H_    0.358798 0.638008 0.094190 0.228041
N11   N     N_3   0.036118 0.572266 0.310097 -0.495558
H21   H     H_    0.991615 0.633993 0.287632 0.271697
H22   H     H_    0.098423 0.582373 0.293112 0.231263
N12   N     N_3   0.052876 0.404601 0.655208 -0.508935
H23   H     H_    0.006445 0.373523 0.706586 0.271506
H24   H     H_    0.109339 0.354545 0.634722 0.225260
F1    F     F_    0.471572 0.016931 0.723785 -0.602259
F2    F     F_    0.528501 0.982827 0.276299 -0.610026
F3    F     F_    0.090011 0.702066 0.463308 -0.625168
F4    F     F_    0.058286 0.259054 0.481777 -0.631911
F5    F     F_    0.703664 0.463509 0.079591 -0.639864
F6    F     F_    0.264070 0.483298 0.052258 -0.638544
F7    F     F_    0.277233 0.979001 0.529729 -0.603688
F8    F     F_    0.722796 0.020828 0.470325 -0.609015
F9    F     F_    0.537133 0.298219 0.905497 -0.619265
F10   F     F_    0.521323 0.744631 0.935582 -0.626680
F11   F     F_    0.910783 0.536969 0.297581 -0.622715
F12   F     F_    0.944002 0.518578 0.738193 -0.642673
F13   F     F_    0.736660 0.047163 0.736646 -0.589590
F14   F     F_    0.263324 0.952837 0.263352 -0.590333
F15   F     F_    0.056141 0.734247 0.736639 -0.591396
F16   F     F_    0.942341 0.264809 0.265448 -0.583150
F17   F     F_    0.732620 0.733396 0.061831 -0.585983
F18   F     F_    0.262464 0.264713 0.946291 -0.592033

loop_
_geom_bond_atom_site_label_1
_geom_bond_atom_site_label_2
_ccdc_geom_bond_type
C25   C31   A    
C15   O3    A    
C55   C62   A    
C26   C32   A    
C6    C45   A    
C29   C33   A    
C42   F6    S    
Cu2   O14   S    
C7    O11   A    
C57   C66   A    
Cu4   O16   S    
C25   N8    S    
N6    H12   S    
N1    H1    S    
C46   F10   S    
C21   C36   A    
C39   F3    S    
C22   C35   A    
C40   F4    S    
C45   C57   A    
C59   C64   A    
N4    H8    S    
C36   N3    S    
C23   C29   A    
C12   O18   A    
C66   F18   S    
Cu6   O7    S    
C62   F14   S    
N5    H10   S    
C13   C57   S    
N4    H7    S    
Cu2   O2    S    
N7    H13   S    
C29   N10   S    
C47   F11   S    
C3    C48   A    
Cu6   O18   S    
C32   N1    S    
C48   F12   S    
C16   C60   S    
Cu4   O9    S    
C11   O17   A    
C26   N7    S    
Cu5   O8    S    
Cu6   O6    S    
Cu3   O10   S    
C1    C44   A    
C39   C51   A    
N8    H15   S    
Cu5   O20   S    
C4    C40   A    
N7    H14   S    
C5    C23   S    
C43   F7    S    
Cu1   O1    S    
C53   C65   A    
C8    C52   S    
C41   F5    S    
Cu3   O15   S    
C28   N11   S    
C18   C56   S    
C14   O6    A    
C4    C22   S    
C21   C27   A    
C3    C39   A    
Cu1   O12   S    
C18   O2    A    
C16   O4    A    
C46   C58   A    
C45   F9    S    
C10   C54   S    
C19   C32   A    
C63   F15   S    
N6    H11   S    
N1    H2    S    
C48   C60   A    
C24   C30   A    
C14   C58   S    
C13   O5    A    
Cu1   O13   S    
Cu2   O23   S    
C49   C61   A    
C30   C34   A    
C2    C20   S    
Cu1   Cu2   S    
C42   C54   A    
Cu4   O21   S    
C51   C63   A    
Cu3   O22   S    
C52   C64   A    
C17   O1    A    
Cu6   O19   S    
C27   C35   A    
C40   C52   A    
C1    C19   S    
C10   O10   A    
N12   H24   S    
N11   H22   S    
C11   C49   S    
C37   C49   A    
C44   C56   A    
C58   C65   A    
Cu5   O17   S    
C30   N9    S    
C2    C43   A    
C23   C34   A    
C10   O16   A    
N2    H4    S    
N3    H6    S    
C33   N6    S    
C31   N2    S    
C41   C53   A    
N9    H17   S    
C11   O7    A    
C17   O23   A    
C43   C55   A    
C14   O20   A    
C60   C63   A    
Cu4   O4    S    
Cu1   O24   S    
C50   C62   A    
C37   F1    S    
C3    C21   S    
C9    C53   S    
N11   H21   S    
Cu5   O5    S    
N10   H20   S    
C27   N12   S    
C5    C41   A    
C8    O12   A    
Cu2   O11   S    
C15   C59   S    
C18   O24   A    
C15   O21   A    
C12   C50   S    
C6    C24   S    
C38   C50   A    
C1    C37   A    
C5    C46   A    
C16   O22   A    
C24   C33   A    
C2    C38   A    
N12   H23   S    
C7    C51   S    
Cu5   Cu6   S    
C35   N4    S    
N5    H9    S    
C9    O15   A    
C7    O13   A    
C20   C26   A    
C17   C55   S    
C12   O8    A    
C61   F13   S    
N2    H3    S    
Cu3   O3    S    
C8    O14   A    
C38   F2    S    
C65   F17   S    
Cu3   Cu4   S    
C19   C25   A    
N8    H16   S    
N9    H18   S    
C47   C59   A    
C13   O19   A    
C28   C36   A    
C44   F8    S    
C6    C42   A    
N3    H5    S    
C34   N5    S    
C56   C61   A    
C22   C28   A    
C54   C66   A    
C20   C31   A    
C64   F16   S    
C9    O9    A    
N10   H19   S    
C4    C47   A    
