data_mof_unit_24303.cif
_audit_creation_date              2012-12-11T20:53:19-0500
_audit_creation_method            fapswitch 2.2
_symmetry_space_group_name_H-M    P1
_symmetry_Int_Tables_number       1
_space_group_crystal_system       triclinic
_cell_length_a                    8.434985
_cell_length_b                    22.896259
_cell_length_c                    26.897659
_cell_angle_alpha                 95.714848
_cell_angle_beta                  93.142745
_cell_angle_gamma                 90.087007
_cell_volume                      5161.01418711

loop_
_atom_site_label
_atom_site_type_symbol
_atom_type_description
_atom_site_fract_x
_atom_site_fract_y
_atom_site_fract_z
_atom_type_partial_charge
Ba1   Ba    Ba6+2 0.848110 0.472730 0.522970 1.712311
Ba2   Ba    Ba6+2 0.341700 0.527220 0.477020 1.697514
C1    C     C_3   0.890357 0.421296 0.754127 -0.395675
C2    C     C_3   0.790323 0.415677 0.704708 0.412414
C3    C     C_3   0.486247 0.675807 0.633234 0.440025
C4    C     C_3   0.543872 0.728420 0.670504 -0.163745
C5    C     C_3   0.048467 0.674791 0.345781 0.469105
C6    C     C_3   0.033476 0.711103 0.300780 0.156465
C7    C     C_3   0.546220 0.688967 0.369316 0.373724
C8    C     C_3   0.521712 0.748229 0.349110 -0.317001
C9    C     C_R   0.988589 0.462968 0.180237 0.598602
C10   C     C_R   0.942447 0.566040 0.180228 0.562344
C11   C     C_2   0.782277 0.551206 0.274745 -0.097243
C12   C     C_3   0.194823 0.284514 0.648453 0.629838
C13   C     C_3   0.766784 0.568817 0.329853 -0.086819
C14   C     C_1   0.984755 0.497953 0.344953 0.053175
C15   C     C_2   0.015426 0.492613 0.296576 -0.127748
C16   C     C_2   0.908780 0.519738 0.258348 0.203283
C17   C     C_R   0.029372 0.510984 0.104147 -0.115776
C18   C     C_R   0.035177 0.459745 0.129652 -0.048841
C19   C     C_R   0.085090 0.406825 0.103453 0.209761
C20   C     C_R   0.982540 0.564116 0.129922 -0.015101
C21   C     C_2   0.877541 0.535643 0.363599 -0.241584
C22   C     C_2   0.294659 0.468157 0.640450 -0.170531
C23   C     C_3   0.147530 0.280195 0.702580 -0.298790
C24   C     C_R   0.162568 0.455035 0.976011 0.002219
C25   C     C_R   0.095921 0.559674 0.976290 0.026960
C26   C     C_R   0.148550 0.506532 0.950672 0.044788
C27   C     C_R   0.222590 0.404138 0.949549 -0.134597
C28   C     C_R   0.262788 0.402552 0.899616 0.212665
C29   C     C_R   0.241244 0.452760 0.873237 -0.042864
C30   C     C_R   0.187381 0.505011 0.899218 -0.117107
C31   C     C_R   0.171710 0.555924 0.873714 -0.027391
C32   C     C_R   0.210205 0.554455 0.823033 0.588853
C33   C     C_R   0.270287 0.452107 0.821533 0.578855
C34   C     C_3   0.229434 0.350444 0.383370 0.346689
C35   C     C_2   0.426040 0.475256 0.727376 -0.091124
C36   C     C_3   0.434211 0.452101 0.672387 -0.079279
C37   C     C_1   0.195184 0.507880 0.658156 0.045429
C38   C     C_2   0.171029 0.519265 0.706451 -0.128381
C39   C     C_2   0.292404 0.500920 0.744402 0.213116
C40   C     C_R   0.118999 0.456135 0.026974 0.003270
C41   C     C_R   0.069779 0.509454 0.052823 0.045064
C42   C     C_R   0.060313 0.561473 0.027828 0.028153
C43   C     C_R   0.122911 0.405487 0.053207 -0.131513
C44   C     C_R   0.977849 0.615132 0.105213 -0.071556
C45   C     C_3   0.216996 0.283539 0.374338 -0.064379
C46   C     C_R   0.079926 0.609448 0.949123 -0.103564
C47   C     C_R   0.117526 0.607565 0.899314 -0.060324
C48   C     C_R   0.015948 0.613991 0.055619 -0.104658
C49   C     C_R   0.360567 0.335085 0.515325 -0.280280
C50   C     C_R   0.492566 0.926985 0.479656 -0.072535
C51   C     C_R   0.534902 0.867176 0.470250 0.619966
C52   C     C_R   0.806113 0.894851 0.463395 0.570629
C53   C     C_R   0.762792 0.954493 0.466311 -0.070104
C54   C     C_R   0.607817 0.970795 0.477401 -0.067321
C55   C     C_R   0.340374 0.943649 0.494279 -0.069560
C56   C     C_3   0.034499 0.650431 0.583508 0.316014
C57   C     C_R   0.302494 0.003177 0.507149 0.208815
C58   C     C_R   0.412999 0.047377 0.497578 -0.042671
C59   C     C_R   0.568348 0.031060 0.486150 -0.097248
C60   C     C_R   0.872665 0.998223 0.458907 -0.041916
C61   C     C_R   0.834261 0.057998 0.465365 0.227803
C62   C     C_R   0.684599 0.075049 0.483902 -0.064075
C63   C     C_R   0.645403 0.133718 0.501086 0.564693
C64   C     C_R   0.372223 0.107301 0.496695 0.572050
C65   C     C_2   0.868444 0.765687 0.449512 -0.127287
C66   C     C_3   0.938363 0.711976 0.469614 -0.039528
C67   C     C_3   0.013013 0.715375 0.599717 -0.405640
C68   C     C_1   0.693617 0.696091 0.508337 -0.052885
C69   C     C_2   0.663350 0.754290 0.509449 0.188234
C70   C     C_2   0.742082 0.790402 0.472717 0.190597
C71   C     C_R   0.297028 0.233990 0.525332 -0.091952
C72   C     C_R   0.257951 0.293672 0.530290 -0.036157
C73   C     C_R   0.503128 0.317687 0.495476 0.056876
C74   C     C_R   0.546781 0.258307 0.493029 -0.124607
C75   C     C_R   0.444574 0.214321 0.507258 0.190342
C76   C     C_2   0.808787 0.671575 0.481798 -0.318020
C77   C     C_3   0.679241 0.330296 0.362166 0.702017
C78   C     C_3   0.605080 0.298012 0.311321 0.080657
H1    H     H_    0.335796 0.264197 0.381150 0.048142
H2    H     H_    0.138082 0.266856 0.401606 0.083567
H3    H     H_    0.919305 0.631163 0.568442 0.024160
H4    H     H_    0.122242 0.645539 0.554182 0.055634
H5    H     H_    0.920174 0.720961 0.627467 0.127579
H6    H     H_    0.977829 0.739556 0.567344 0.064432
H7    H     H_    0.125875 0.734655 0.617086 0.107957
H8    H     H_    0.015215 0.431356 0.747575 0.135252
H9    H     H_    0.527780 0.261931 0.320970 0.090999
H10   H     H_    0.672248 0.399227 0.713400 -0.017351
H11   H     H_    0.886642 0.379565 0.771862 0.086564
H12   H     H_    0.391615 0.690983 0.607431 0.021552
H13   H     H_    0.639886 0.752182 0.654433 0.107437
H14   H     H_    0.596699 0.712939 0.705586 0.122017
H15   H     H_    0.843367 0.456959 0.780215 0.108199
H16   H     H_    0.048631 0.248196 0.703116 0.088312
H17   H     H_    0.090298 0.629857 0.333922 0.003480
H18   H     H_    0.928534 0.671360 0.360043 -0.145970
H19   H     H_    0.948045 0.688467 0.272408 0.116810
H20   H     H_    0.675951 0.682545 0.374421 -0.076272
H21   H     H_    0.493706 0.690019 0.406354 0.090151
H22   H     H_    0.595357 0.782168 0.372002 0.081810
H23   H     H_    0.395683 0.761458 0.350780 0.168496
H24   H     H_    0.557390 0.746059 0.309834 0.109211
H25   H     H_    0.123412 0.471006 0.284674 0.108374
H26   H     H_    0.517031 0.462935 0.754300 0.079792
H27   H     H_    0.245232 0.364470 0.966962 0.063550
H28   H     H_    0.155478 0.363184 0.035864 0.062432
H29   H     H_    0.699100 0.569676 0.248448 0.114589
H30   H     H_    0.944378 0.656845 0.124313 0.113964
H31   H     H_    0.036478 0.650986 0.964885 0.066326
H32   H     H_    0.102849 0.647221 0.880699 0.120526
H33   H     H_    0.059087 0.537620 0.718356 0.124130
H34   H     H_    0.010807 0.655754 0.040532 0.065057
H35   H     H_    0.873482 0.546459 0.403638 0.076263
H36   H     H_    0.285613 0.449108 0.601926 0.068020
H37   H     H_    0.989933 0.985852 0.447354 0.138994
H38   H     H_    0.212761 0.204275 0.538039 0.149700
H39   H     H_    0.254124 0.909721 0.498167 0.158537
H40   H     H_    0.248669 0.266190 0.726607 0.092599
H41   H     H_    0.926955 0.785898 0.420695 0.150636
H42   H     H_    0.659205 0.247174 0.478414 0.141876
H43   H     H_    0.326207 0.380742 0.517419 0.075452
H44   H     H_    0.787740 0.630725 0.458313 0.064626
H45   H     H_    0.109944 0.323595 0.719817 0.115097
H46   H     H_    0.306426 0.365406 0.355060 0.073390
H47   H     H_    0.279448 0.362677 0.421868 -0.017112
N1    N     N_R   0.946403 0.515988 0.205389 -0.422444
N2    N     N_R   0.259056 0.502937 0.797389 -0.429437
N3    N     N_R   0.693171 0.851126 0.466558 -0.421759
N4    N     N_R   0.487716 0.151315 0.501926 -0.415825
O1    O     O_2   0.919820 0.530450 0.618560 -0.418109
O2    O     O_3   0.557226 0.344346 0.395334 -0.696900
O3    O     O_3   0.052571 0.296289 0.619949 -0.590386
O4    O     O_2   0.269870 0.469530 0.381410 -0.491638
O5    O     O_3   0.037890 0.469550 0.441610 -0.460953
O6    O     O_3   0.535640 0.573600 0.413100 -0.474516
O7    O     O_3   0.080548 0.375887 0.377778 -0.643684
O8    O     O_3   0.647280 0.568810 0.525990 -0.418035
O9    O     O_3   0.133260 0.602900 0.438000 -0.486662
O10   O     O_2   0.264868 0.705043 0.472708 -0.440078
O11   O     O_3   0.156887 0.702195 0.382220 -0.584226
O12   O     O_3   0.151800 0.530410 0.558380 -0.494033
O13   O     O_3   0.542410 0.431140 0.474010 -0.476410
O14   O     O_2   0.406930 0.639920 0.526240 -0.472330
O15   O     O_3   0.619108 0.652573 0.608322 -0.610026
O16   O     O_2   0.438372 0.530783 0.321420 -0.496414
O17   O     O_3   0.473127 0.644456 0.335812 -0.579018
O18   O     O_2   0.982067 0.418405 0.201495 -0.587335
O19   O     O_2   0.301274 0.405818 0.797504 -0.591021
O20   O     O_2   0.904393 0.612914 0.201754 -0.645771
O21   O     O_2   0.200944 0.599225 0.801825 -0.599023
O22   O     O_2   0.431129 0.829445 0.466216 -0.561023
O23   O     O_3   0.654050 0.426350 0.586890 -0.459797
O24   O     O_2   0.945897 0.882377 0.459709 -0.618075
O25   O     O_2   0.750469 0.167541 0.518537 -0.592197
O26   O     O_2   0.234252 0.119477 0.488066 -0.606781
O27   O     O_2   0.609491 0.533340 0.627488 -0.436377
O28   O     O_3   0.089075 0.623542 0.625483 -0.625717
O29   O     O_3   0.784167 0.470430 0.685043 -0.572133
O30   O     O_2   0.782760 0.360070 0.473730 -0.432325
O31   O     O_3   0.056430 0.397060 0.562000 -0.474631
O32   O     O_2   0.932014 0.292900 0.528591 -0.434443
P1    P     P_3+3 0.092730 0.547450 0.611370 1.031348
P2    P     P_3+3 0.606840 0.368620 0.459370 1.017605
P3    P     P_3+3 0.077676 0.319906 0.560137 1.018911
P4    P     P_3+3 0.096970 0.452510 0.388620 1.004029
P5    P     P_3+3 0.119027 0.679480 0.440595 0.987378
P6    P     P_3+3 0.619194 0.470031 0.642731 1.020435
P7    P     P_3+3 0.590498 0.642250 0.542422 0.998773
P8    P     P_3+3 0.554303 0.577142 0.349260 0.940428
N5    N     N_3   0.857163 0.372899 0.668434 -0.440950
H48   H     H_    0.974266 0.385790 0.664271 0.205729
H49   H     H_    0.854714 0.331935 0.682398 0.153022
N6    N     N_2   0.157993 0.266017 0.323305 -0.409755
H50   H     H_    0.218245 0.284592 0.296486 0.210346
C79   C     C_3   0.131461 0.203837 0.311194 -0.238887
H51   H     H_    0.088262 0.195096 0.271396 0.116460
H52   H     H_    0.039187 0.188473 0.334587 0.114858
H53   H     H_    0.243473 0.179357 0.317139 0.095235
N7    N     N_2   0.795723 0.291845 0.384021 -0.395651
H54   H     H_    0.903007 0.293376 0.368334 0.236205
C80   C     C_3   0.749972 0.231404 0.387871 -0.289307
H55   H     H_    0.767035 0.203917 0.352252 0.115453
H56   H     H_    0.623526 0.227816 0.396479 0.086539
H57   H     H_    0.826812 0.213744 0.417388 0.125431
N8    N     N_2   0.754225 0.384465 0.351978 -0.440513
H58   H     H_    0.835415 0.380060 0.324606 0.172872
C81   C     C_3   0.650490 0.434402 0.348656 -0.138186
H59   H     H_    0.676448 0.456326 0.315256 0.054919
H60   H     H_    0.664784 0.463621 0.383945 0.102372
H61   H     H_    0.523341 0.422555 0.343782 0.152121
N9    N     N_3   0.729040 0.271225 0.280267 -0.523745
H62   H     H_    0.674348 0.244401 0.250447 0.174640
H63   H     H_    0.792220 0.303619 0.264794 0.200586
N10   N     N_3   0.504535 0.336101 0.282299 -0.534206
H64   H     H_    0.441025 0.309660 0.254065 0.160448
H65   H     H_    0.575649 0.363447 0.263796 0.185295
N11   N     N_3   0.419169 0.630194 0.660458 -0.469089
H66   H     H_    0.328334 0.648011 0.681959 0.167722
H67   H     H_    0.506183 0.616250 0.685793 0.182868
N12   N     N_3   0.416513 0.769774 0.682766 -0.507354
H68   H     H_    0.372314 0.786453 0.649999 0.168449
H69   H     H_    0.323907 0.747879 0.697519 0.191765
N13   N     N_2   0.187145 0.717469 0.279450 -0.414282
H70   H     H_    0.207256 0.757734 0.266716 0.190382
C82   C     C_3   0.236842 0.669345 0.244861 -0.169345
H71   H     H_    0.365549 0.673957 0.239341 0.118685
H72   H     H_    0.171255 0.670498 0.208068 0.113122
H73   H     H_    0.217062 0.626384 0.259420 0.133746
N14   N     N_3   0.967600 0.768785 0.316519 -0.522539
H74   H     H_    0.054140 0.794220 0.338153 0.210811
H75   H     H_    0.939844 0.790175 0.284593 0.165964
N15   N     N_3   0.311261 0.332552 0.649019 -0.510618
H76   H     H_    0.378364 0.327400 0.617534 0.124592
H77   H     H_    0.393186 0.331418 0.679574 0.151017
N16   N     N_2   0.099772 0.354078 0.127255 -0.378509
H78   H     H_    0.064858 0.316899 0.104390 0.181799
C83   C     C_3   0.253345 0.346984 0.152588 -0.170243
H79   H     H_    0.251729 0.306955 0.172712 0.097871
H80   H     H_    0.281900 0.385278 0.180393 0.131452
H81   H     H_    0.347179 0.342276 0.125043 0.074219
N17   N     N_2   0.329048 0.349975 0.876808 -0.378975
H82   H     H_    0.280902 0.312131 0.887733 0.181117
C84   C     C_3   0.500846 0.349209 0.879969 -0.173039
H83   H     H_    0.543009 0.308687 0.858679 0.101858
H84   H     H_    0.545869 0.349831 0.919643 0.073576
H85   H     H_    0.549744 0.387661 0.863600 0.123620
N18   N     N_2   0.259140 0.228048 0.629227 -0.446454
H86   H     H_    0.177569 0.194068 0.626525 0.198157
C85   C     C_3   0.416787 0.210817 0.646392 -0.301452
H87   H     H_    0.420500 0.203896 0.686653 0.108236
H88   H     H_    0.507388 0.243809 0.639580 0.130503
H89   H     H_    0.448406 0.168840 0.624995 0.131268
N19   N     N_2   0.943445 0.098978 0.449406 -0.369228
H90   H     H_    0.933729 0.142381 0.462236 0.261396
C86   C     C_3   0.978937 0.091013 0.397108 -0.226061
H91   H     H_    0.077612 0.120963 0.390820 0.128854
H92   H     H_    0.872655 0.101059 0.373302 0.073218
H93   H     H_    0.018849 0.045715 0.385929 0.109634
N20   N     N_2   0.161447 0.018547 0.533089 -0.405200
H94   H     H_    0.158874 0.060989 0.549747 0.237903
C87   C     C_3   0.103466 0.978116 0.566283 -0.278793
H95   H     H_    0.004346 0.998634 0.587144 0.113289
H96   H     H_    0.199721 0.967311 0.593685 0.106990
H97   H     H_    0.055320 0.937565 0.544902 0.155524
N21   N     N_2   0.577957 0.784058 0.548713 -0.394092
H98   H     H_    0.501622 0.758965 0.566145 0.178638
C88   C     C_3   0.667061 0.827212 0.582248 -0.250195
H99   H     H_    0.589208 0.846849 0.611325 0.116306
H100  H     H_    0.710819 0.863339 0.562086 0.115215
H101  H     H_    0.770133 0.806514 0.600684 0.090073

loop_
_geom_bond_atom_site_label_1
_geom_bond_atom_site_label_2
_ccdc_geom_bond_type
C25   C46   A    
O9    P5    S    
C53   C54   A    
C51   O22   D    
C5    H18   S    
C68   C76   D    
Ba2   O13   S    
C71   C72   A    
N17   H82   S    
C49   C72   A    
C69   N21   S    
C73   C74   A    
Ba1   O1    S    
C7    H20   S    
C22   C37   D    
C5    C6    S    
N6    C79   S    
C2    O29   S    
N7    H54   S    
N5    H48   S    
Ba2   O14   S    
C78   N9    S    
C61   N19   S    
C88   H99   S    
C35   C36   S    
C77   N8    S    
C11   C16   D    
C34   C45   S    
O2    P2    S    
C25   C26   A    
C8    H23   S    
C6    H19   S    
C49   C73   A    
C4    N12   S    
C63   O25   D    
C15   H25   S    
C56   O28   S    
C80   H56   S    
C28   C29   A    
N15   H77   S    
C55   C57   A    
C14   P4    S    
C31   C47   A    
C87   H95   S    
C53   C60   A    
C10   C20   A    
C84   H85   S    
C49   H43   S    
C12   N15   S    
O8    P7    S    
C1    H11   S    
N20   H94   S    
C75   N4    S    
C45   H2    S    
C78   H9    S    
C81   H60   S    
C23   H45   S    
C12   N18   S    
C11   H29   S    
C16   N1    S    
O31   P3    S    
C25   C42   A    
C9    O18   D    
N14   H74   S    
Ba1   P1    S    
C17   C41   A    
C14   C15   D    
C60   H37   S    
C15   C16   S    
C82   H73   S    
C22   C36   S    
O29   P6    S    
O3    P3    S    
C68   C69   D    
C3    O15   S    
C33   O19   D    
Ba1   P2    S    
C6    N14   S    
C76   H44   S    
C7    C8    S    
C33   N2    Am   
C19   C43   A    
C67   H7    S    
C43   H28   S    
C55   H39   S    
C79   H53   S    
C5    H17   S    
C13   C21   S    
Ba1   O30   S    
C57   C58   A    
C19   N16   S    
C86   H91   S    
C35   C39   D    
Ba2   O12   S    
N19   C86   S    
C10   O20   D    
C6    N13   S    
C52   N3    Am   
C65   H41   S    
C63   N4    Am   
N5    H49   S    
C31   C32   A    
C2    H10   S    
N21   C88   S    
C66   C76   S    
C86   H92   S    
C77   O2    S    
C9    C18   A    
C88   H100  S    
N8    C81   S    
N12   H68   S    
C61   C62   A    
C82   H71   S    
C26   C30   A    
O32   P3    D    
C74   C75   A    
O16   P8    D    
C72   P3    S    
C85   H88   S    
N7    C80   S    
C83   H79   S    
C56   C67   S    
C32   O21   D    
N15   H76   S    
C12   O3    S    
C87   H96   S    
N16   H78   S    
N13   H70   S    
C21   H35   S    
Ba2   O5    S    
C65   C66   S    
O23   P6    S    
C58   C59   A    
N20   C87   S    
C40   C43   A    
C81   H61   S    
C41   C42   A    
O1    P1    D    
C80   H55   S    
N18   H86   S    
Ba1   O12   S    
C56   H4    S    
O10   P5    D    
C83   H80   S    
O11   P5    S    
C38   H33   S    
C8    H22   S    
C27   C28   A    
N19   H90   S    
C4    H13   S    
C17   C20   A    
C60   C61   A    
N9    H63   S    
C84   H83   S    
C13   P8    S    
C73   P2    S    
C5    O11   S    
N12   H69   S    
C24   C27   A    
C47   H32   S    
C66   P5    S    
N10   H65   S    
C38   C39   S    
N14   H75   S    
Ba1   O31   S    
C22   H36   S    
C14   C21   D    
O15   P7    S    
Ba1   O13   S    
C29   C33   A    
C80   H57   S    
C34   H47   S    
C40   C41   A    
Ba2   O8    S    
C1    C2    S    
Ba1   O5    S    
C23   H40   S    
O12   P1    S    
C37   C38   D    
C65   C70   D    
C67   H5    S    
C50   C51   A    
C24   C40   A    
C36   P6    S    
C82   H72   S    
C64   N4    Am   
C42   C48   A    
C81   H59   S    
C52   O24   D    
C52   C53   A    
C46   C47   A    
C88   H101  S    
C71   C75   A    
C71   H38   S    
C2    N5    S    
C20   C44   A    
C1    H8    S    
O28   P1    S    
Ba2   O6    S    
C32   N2    Am   
C29   C30   A    
C34   H46   S    
N10   H64   S    
C3    N11   S    
Ba1   O8    S    
C1    H15   S    
N21   H98   S    
N17   C84   S    
O27   P6    D    
C70   N3    S    
C28   N17   S    
C10   N1    Am   
O5    P4    S    
N16   C83   S    
C44   C48   A    
C7    O17   S    
C24   C26   A    
Ba2   O4    S    
O13   P2    S    
C57   N20   S    
C78   N10   S    
Ba2   O9    S    
C62   C63   A    
C17   C18   A    
C11   C13   S    
C9    N1    Am   
C68   P7    S    
C74   H42   S    
C35   H26   S    
N18   C85   S    
N6    H50   S    
C56   H3    S    
C30   C31   A    
C59   C62   A    
C39   N2    S    
C4    H14   S    
C3    C4    S    
C34   O7    S    
O17   P8    S    
C87   H97   S    
Ba1   Ba2   S    
C8    H24   S    
C84   H84   S    
C79   H52   S    
C85   H89   S    
N11   H66   S    
C45   H1    S    
C12   C23   S    
O14   P7    D    
Ba1   O23   S    
C45   N6    S    
O6    P8    S    
C3    H12   S    
C50   C55   A    
C79   H51   S    
C58   C64   A    
C77   C78   S    
C77   N7    S    
C69   C70   S    
C46   H31   S    
C18   C19   A    
N8    H58   S    
C23   H16   S    
C7    H21   S    
N9    H62   S    
C86   H93   S    
C85   H87   S    
N11   H67   S    
O4    P4    D    
C54   C59   A    
O7    P4    S    
C44   H30   S    
C51   N3    Am   
C48   H34   S    
C37   P1    S    
N13   C82   S    
C27   H27   S    
Ba2   P4    S    
C64   O26   D    
O30   P2    D    
C67   H6    S    
C50   C54   A    
C83   H81   S    
