data_mof_unit_15554.cif
_audit_creation_date              2013-03-05T16:06:21-0500
_audit_creation_method            fapswitch 2.2
_symmetry_space_group_name_H-M    P1
_symmetry_Int_Tables_number       1
_space_group_crystal_system       triclinic
_cell_length_a                    10.830476
_cell_length_b                    9.498004
_cell_length_c                    27.825575
_cell_angle_alpha                 90.064721
_cell_angle_beta                  90.136987
_cell_angle_gamma                 90.014684
_cell_volume                      2862.34848497

loop_
_atom_site_label
_atom_site_type_symbol
_atom_site_description
_atom_site_fract_x
_atom_site_fract_y
_atom_site_fract_z
_atom_type_partial_charge
O1    O     O_R   0.319640 0.618740 0.500000 -0.589095
O2    O     O_R   0.680360 0.381260 0.500000 -0.588780
O3    O     O_R   0.680360 0.618740 0.500000 -0.588004
O4    O     O_R   0.319640 0.381260 0.500000 -0.588306
C1    C     C_R   0.261999 0.499990 0.499969 0.793868
C2    C     C_R   0.738001 0.500010 0.500037 0.794386
O5    O     O_R   0.500020 0.618770 0.430260 -0.583978
O6    O     O_R   0.499980 0.381230 0.569740 -0.584094
O7    O     O_R   0.499980 0.618770 0.569740 -0.585879
O8    O     O_R   0.500020 0.381230 0.430260 -0.585320
C3    C     C_R   0.499848 0.499962 0.407411 0.829889
C4    C     C_R   0.500100 0.500104 0.592580 0.830563
Cu1   Cu    Cu3+1 0.500000 0.640660 0.500000 0.946278
Cu2   Cu    Cu3+1 0.500000 0.359340 0.500000 0.946617
C5    C     C_R   0.392450 0.522760 0.178028 0.503367
C6    C     C_R   0.608837 0.476835 0.822177 0.500000
O9    O     O_2   0.286324 0.538540 0.202793 -0.550279
O10   O     O_2   0.714192 0.454374 0.797510 -0.551975
N1    N     N_R   0.501384 0.504919 0.202174 -0.453823
N2    N     N_R   0.500772 0.500312 0.797940 -0.453970
C7    C     C_R   0.610526 0.488968 0.178218 0.593689
C8    C     C_R   0.392439 0.522474 0.821947 0.600205
C9    C     C_R   0.482902 0.627606 0.279242 -0.181692
C10   C     C_R   0.524118 0.376787 0.721097 -0.175630
C11   C     C_R   0.482248 0.626760 0.329278 -0.215016
C12   C     C_R   0.524130 0.376122 0.671044 -0.220262
C13   C     C_R   0.517200 0.374423 0.328773 -0.299240
C14   C     C_R   0.477691 0.625865 0.670784 -0.313441
C15   C     C_R   0.516744 0.374768 0.278450 0.486767
C16   C     C_R   0.480330 0.627994 0.721198 0.510423
C17   C     C_R   0.500880 0.502417 0.253683 0.279463
C18   C     C_R   0.501286 0.501757 0.746345 0.276819
C19   C     C_R   0.501481 0.506126 0.102032 -0.044041
C20   C     C_R   0.500899 0.501817 0.898155 -0.046024
C21   C     C_R   0.390462 0.523572 0.127593 -0.019327
C22   C     C_R   0.610900 0.477302 0.872619 -0.017738
C23   C     C_R   0.279909 0.540303 0.102443 -0.151881
C24   C     C_R   0.720465 0.453817 0.897801 -0.148713
C25   C     C_R   0.612581 0.489073 0.127774 -0.040967
C26   C     C_R   0.390652 0.524470 0.872390 -0.042665
C27   C     C_R   0.499484 0.500216 0.354506 -0.096434
C28   C     C_R   0.500863 0.500639 0.645467 -0.091990
H1    H     H_    0.532386 0.275984 0.347499 0.170543
H2    H     H_    0.455772 0.721839 0.651575 0.165779
H3    H     H_    0.193141 0.552963 0.121270 0.187869
H4    H     H_    0.806173 0.433595 0.879006 0.188085
C29   C     C_R   0.388671 0.526178 0.974429 0.042664
C30   C     C_R   0.614259 0.486059 0.025749 0.042696
C31   C     C_R   0.613661 0.481757 0.974641 0.042005
C32   C     C_R   0.388418 0.524518 0.025559 0.042180
C33   C     C_R   0.501084 0.503307 0.949302 0.069232
C34   C     C_R   0.501391 0.505628 0.050887 0.068201
C35   C     C_R   0.279975 0.550242 0.947227 -0.202570
C36   C     C_R   0.724364 0.471902 0.052911 -0.202508
C37   C     C_R   0.281198 0.548978 0.897348 -0.145490
C38   C     C_R   0.723183 0.473023 0.102793 -0.148327
O11   O     O_2   0.286667 0.541659 0.797052 -0.511512
O12   O     O_2   0.716671 0.473514 0.203173 -0.515934
C39   C     C_R   0.278554 0.540505 0.052561 -0.206065
C40   C     C_R   0.722075 0.455611 0.947678 -0.207707
H5    H     H_    0.542268 0.278139 0.652404 0.161342
H6    H     H_    0.468224 0.725215 0.348165 0.164675
H7    H     H_    0.541127 0.279729 0.740407 0.152602
H8    H     H_    0.470187 0.725789 0.260207 0.159358
H9    H     H_    0.195299 0.567794 0.878370 0.186748
H10   H     H_    0.810071 0.461209 0.121752 0.186440
H11   H     H_    0.191589 0.571832 0.963143 0.135850
H12   H     H_    0.814190 0.460979 0.036944 0.135111
H13   H     H_    0.188747 0.552085 0.036481 0.135752
H14   H     H_    0.810459 0.434375 0.963804 0.136836
C41   C     C_R   0.063823 0.372032 0.499931 -0.177622
C42   C     C_R   0.936176 0.627969 0.500092 -0.177315
C43   C     C_R   0.936114 0.372044 0.499986 -0.177201
C44   C     C_R   0.063886 0.627957 0.500038 -0.177380
H15   H     H_    0.111853 0.271999 0.499862 0.149779
H16   H     H_    0.888146 0.728002 0.500162 0.149899
H17   H     H_    0.888034 0.272015 0.499968 0.149935
H18   H     H_    0.111965 0.727986 0.500056 0.149795
C45   C     C_R   0.871806 0.500013 0.500050 -0.018381
C46   C     C_R   0.128193 0.499989 0.499968 -0.018341
C47   C     C_R   0.423532 0.074373 0.469969 -0.023863
C48   C     C_R   0.576461 0.925626 0.530034 -0.025512
C49   C     C_R   0.576466 0.074610 0.530032 -0.024458
C50   C     C_R   0.423530 0.925389 0.469969 -0.023733
H19   H     H_    0.362335 0.130584 0.445938 0.117403
H20   H     H_    0.637651 0.869416 0.554068 0.117441
H21   H     H_    0.637663 0.131009 0.554064 0.116012
H22   H     H_    0.362332 0.868990 0.445939 0.116552
N3    N     N_R   0.500000 0.852070 0.500000 -0.156417
N4    N     N_R   0.500000 0.147930 0.500000 -0.156303
O13   O     O_3   0.540590 0.252203 0.253368 -0.591267
C51   C     C_3   0.429336 0.176301 0.248132 0.035406
H23   H     H_    0.357262 0.242007 0.230278 0.167491
H24   H     H_    0.395051 0.140905 0.283872 0.137618
C52   C     C_3   0.453452 0.046842 0.216865 -0.326511
H25   H     H_    0.488822 0.081050 0.181257 0.233894
H26   H     H_    0.524919 0.979966 0.234256 0.226201
C53   C     C_3   0.336278 0.960093 0.209484 -0.886045
H27   H     H_    0.299978 0.923247 0.244600 0.260802
H28   H     H_    0.357367 0.866702 0.186886 0.266100
H29   H     H_    0.264567 0.024021 0.191045 0.265131
O14   O     O_3   0.449020 0.748846 0.746299 -0.586529
C54   C     C_3   0.540807 0.853733 0.740826 0.029078
H30   H     H_    0.494463 0.957649 0.744129 0.179266
H31   H     H_    0.586569 0.853011 0.704971 0.118794
C55   C     C_3   0.637732 0.841071 0.780751 -0.359201
H32   H     H_    0.591017 0.836625 0.816255 0.235358
H33   H     H_    0.691080 0.742335 0.775731 0.241426
C56   C     C_3   0.726815 0.965578 0.780229 -0.856037
H34   H     H_    0.775394 0.971222 0.745168 0.257729
H35   H     H_    0.796543 0.952462 0.809197 0.265686
H36   H     H_    0.676107 0.065610 0.786460 0.257697

loop_
_geom_bond_atom_site_label_1
_geom_bond_atom_site_label_2
_geom_bond_distance
_ccdc_geom_bond_type
C49   H21   1.081800 S    
C13   C15   1.400260 A    
C52   H25   1.111979 S    
C42   H16   1.083314 S    
O3    C2    1.289101 A    
N1    C17   1.433520 S    
C8    O11   1.349797 S    
C52   C53   1.526236 S    
C19   C34   1.423137 A    
C30   C36   1.416803 A    
C20   C33   1.423240 A    
C19   C25   1.408334 A    
C31   C40   1.416750 A    
O1    C1    1.288987 A    
C32   C39   1.416870 A    
C21   C23   1.394609 A    
C12   H5    1.083147 S    
C10   C12   1.392755 A    
C42   C45   1.400935 A    
C56   H35   1.110372 S    
C36   H12   1.075471 S    
C55   H32   1.111868 S    
O7    Cu1   1.951896 S    
Cu2   N4    2.007974 S    
C4    C28   1.471629 S    
C5    N1    1.366984 A    
C31   C33   1.421961 A    
C32   C34   1.422059 A    
O3    Cu1   1.964501 S    
C6    N2    1.367876 A    
C29   C35   1.416789 A    
C44   C46   1.401012 A    
Cu1   Cu2   2.671978 S    
O2    C2    1.288987 A    
C35   H11   1.075379 S    
C5    C21   1.403546 A    
C41   C46   1.400935 A    
C37   H9    1.083636 S    
C29   C32   1.422819 A    
C35   C37   1.388065 A    
C36   C38   1.388097 A    
C41   H15   1.083314 S    
C42   C44   1.383158 A    
O8    Cu2   1.951896 S    
C56   H36   1.111188 S    
C11   C27   1.404870 A    
O13   C51   1.411121 S    
C41   C43   1.383158 A    
C29   C33   1.422034 A    
C48   H20   1.081821 S    
C14   H2    1.083320 S    
C51   C52   1.528375 S    
C9    C17   1.398713 A    
O5    C3    1.294599 A    
C10   C18   1.400962 A    
C13   C27   1.405654 A    
C25   C38   1.394698 A    
C7    C25   1.403850 A    
C40   H14   1.075449 S    
O6    C4    1.295009 A    
C26   C37   1.394789 A    
C8    C26   1.403900 A    
C16   O14   1.385614 S    
C51   H24   1.114604 S    
C43   C45   1.401010 A    
C54   H31   1.115089 S    
C1    C46   1.449179 S    
C48   N3    1.366506 A    
C23   C39   1.388047 A    
C39   H13   1.075370 S    
C24   C40   1.388023 A    
C47   N4    1.366504 A    
C9    H8    1.081660 S    
N2    C8    1.367752 A    
C53   H27   1.111023 S    
C10   H7    1.083141 S    
C53   H28   1.110804 S    
C20   C26   1.407963 A    
O1    Cu1   1.964395 S    
C50   N3    1.366537 A    
C23   H3    1.083638 S    
C22   C24   1.394766 A    
C15   O13   1.381368 S    
C47   C50   1.415054 A    
C12   C28   1.403543 A    
N2    C18   1.435749 S    
C5    O9    1.349840 S    
C49   N4    1.366546 A    
C30   C31   1.422658 A    
O6    Cu2   1.951429 S    
Cu1   N3    2.007973 S    
C50   H22   1.081796 S    
O4    C1    1.289104 A    
C52   H26   1.111714 S    
C53   H29   1.110925 S    
C14   C16   1.403136 A    
C7    O12   1.349754 S    
C15   C17   1.405641 A    
C56   H34   1.110875 S    
C6    C22   1.403690 A    
C16   C18   1.407135 A    
C2    C45   1.449176 S    
C55   H33   1.110486 S    
C38   H10   1.083638 S    
C14   C28   1.404643 A    
C51   H23   1.115664 S    
C19   C21   1.408194 A    
C3    C27   1.472101 S    
C54   C55   1.531470 S    
C20   C22   1.407931 A    
C11   H6    1.083098 S    
C9    C11   1.392331 A    
O4    Cu2   1.964501 S    
O14   C54   1.415779 S    
O2    Cu2   1.964395 S    
O7    C4    1.294542 A    
C24   H4    1.083630 S    
O8    C3    1.295221 A    
C13   H1    1.083290 S    
O5    Cu1   1.951429 S    
C6    O10   1.349876 S    
C48   C49   1.415056 A    
C44   H18   1.083299 S    
C54   H30   1.111223 S    
C43   H17   1.083300 S    
C30   C34   1.421969 A    
C47   H19   1.081817 S    
N1    C7    1.366816 A    
C55   C56   1.526119 S    
