data_mof_unit_6817.cif
_audit_creation_date              2012-12-10T17:58:21-0500
_audit_creation_method            fapswitch 2.2
_symmetry_space_group_name_H-M    P1
_symmetry_Int_Tables_number       1
_space_group_crystal_system       triclinic
_cell_length_a                    9.734168
_cell_length_b                    10.800765
_cell_length_c                    15.961153
_cell_angle_alpha                 89.909873
_cell_angle_beta                  71.032123
_cell_angle_gamma                 91.316602
_cell_volume                      1586.48844187

loop_
_atom_site_label
_atom_site_type_symbol
_atom_type_description
_atom_site_fract_x
_atom_site_fract_y
_atom_site_fract_z
_atom_type_partial_charge
C1    C     C_R   0.000536 0.263135 0.496987 0.833607
C2    C     C_R   0.999542 0.737066 0.502719 0.836136
C3    C     C_R   0.586033 0.602110 0.086869 -0.292776
C4    C     C_R   0.418412 0.601625 0.911159 -0.278444
C5    C     C_R   0.732464 0.598701 0.037350 0.455126
C6    C     C_R   0.271776 0.598407 0.960874 0.455095
C7    C     C_R   0.882932 0.065288 0.553756 -0.193294
C8    C     C_R   0.117060 0.935462 0.445075 -0.189999
C9    C     C_R   0.879935 0.936735 0.560028 -0.007622
C10   C     C_R   0.119015 0.064093 0.437879 -0.010182
C11   C     C_R   0.999513 0.871512 0.505037 -0.113621
C12   C     C_R   0.000428 0.129033 0.493971 -0.110793
C13   C     C_R   0.546717 0.408057 0.542074 0.094729
C14   C     C_R   0.452881 0.592902 0.459048 0.094895
C15   C     C_R   0.400478 0.408282 0.540961 -0.059275
C16   C     C_R   0.599508 0.591846 0.459252 -0.060243
C17   C     C_R   0.914791 0.499692 0.670932 0.837718
C18   C     C_R   0.085135 0.500444 0.329041 0.848682
C19   C     C_R   0.862715 0.508968 0.767434 -0.043460
C20   C     C_R   0.137169 0.509936 0.232359 -0.059366
C21   C     C_R   0.911309 0.515391 0.905360 -0.094062
C22   C     C_R   0.087920 0.516918 0.094621 -0.097587
C23   C     C_R   0.958092 0.494060 0.815188 -0.193855
C24   C     C_R   0.040192 0.496229 0.185169 -0.181028
C25   C     C_R   0.717304 0.535607 0.812340 -0.187142
C26   C     C_R   0.284205 0.535023 0.186570 -0.211508
C27   C     C_R   0.670582 0.562372 0.903442 0.032015
C28   C     C_R   0.331914 0.562444 0.095201 0.036433
C29   C     C_R   0.772835 0.559649 0.948919 0.035020
C30   C     C_R   0.229210 0.560182 0.050025 0.030279
C31   C     C_R   0.523659 0.583081 0.952178 -0.003355
C32   C     C_R   0.479904 0.583087 0.046063 -0.002354
Cu1   Cu    Cu3+1 0.140660 0.500020 0.500000 1.008667
Cu2   Cu    Cu3+1 0.859340 0.499980 0.500000 1.007317
H1    H     H_    0.359968 0.529372 0.222616 0.199796
H2    H     H_    0.642353 0.533670 0.775358 0.181769
H3    H     H_    0.927914 0.467838 0.217803 0.179978
H4    H     H_    0.068419 0.464722 0.783226 0.175063
H5    H     H_    0.981525 0.489974 0.940780 0.190775
H6    H     H_    0.015828 0.491674 0.059823 0.192587
H7    H     H_    0.558365 0.622736 0.156460 0.180863
H8    H     H_    0.446940 0.621788 0.841239 0.157179
H9    H     H_    0.796121 0.116665 0.598898 0.182711
H10   H     H_    0.204047 0.884191 0.400232 0.182122
H11   H     H_    0.324792 0.335054 0.574732 0.150083
H12   H     H_    0.675096 0.665313 0.425781 0.151955
N1    N     N_R   0.352080 0.500030 0.499980 -0.209237
N2    N     N_R   0.647920 0.499970 0.500020 -0.210832
O1    O     O_R   0.118740 0.319660 0.500000 -0.577907
O2    O     O_R   0.881260 0.680340 0.500000 -0.577212
O3    O     O_R   0.881170 0.319630 0.500010 -0.572921
O4    O     O_R   0.118830 0.680370 0.499990 -0.568749
O5    O     O_R   0.055570 0.500030 0.629830 -0.596235
O6    O     O_R   0.944430 0.499970 0.370170 -0.597187
O7    O     O_R   0.818000 0.500000 0.629840 -0.535122
O8    O     O_R   0.182000 0.500000 0.370160 -0.535802
O9    O     O_3   0.835384 0.630036 0.076340 -0.602374
C33   C     C_3   0.836531 0.759334 0.088531 -0.281563
H13   H     H_    0.735984 0.788770 0.140609 0.171829
H14   H     H_    0.851543 0.810703 0.025480 0.155399
H15   H     H_    0.929588 0.784753 0.111283 0.190550
O10   O     O_3   0.170583 0.629102 0.921371 -0.601022
C34   C     C_3   0.175564 0.758487 0.908068 -0.267613
H16   H     H_    0.277911 0.788994 0.856073 0.174623
H17   H     H_    0.162264 0.809361 0.970767 0.149752
H18   H     H_    0.084128 0.783374 0.884674 0.195914
C35   C     C_2   0.753399 0.875553 0.627028 0.851089
O11   O     O_2   0.632492 0.918893 0.643591 -0.557619
O12   O     O_R   0.772280 0.771518 0.673664 -0.773177
H19   H     H_    0.677585 0.741506 0.718661 0.322009
C36   C     C_2   0.242149 0.126168 0.368521 0.853556
O13   O     O_2   0.363408 0.082485 0.347655 -0.561894
O14   O     O_R   0.219071 0.231884 0.324762 -0.775533
H20   H     H_    0.311201 0.264738 0.278588 0.332312
C37   C     C_2   0.582560 0.305719 0.591281 0.856849
O15   O     O_2   0.574161 0.199356 0.566985 -0.565085
O16   O     O_R   0.611602 0.328804 0.669938 -0.767597
H21   H     H_    0.626721 0.250336 0.700376 0.318280
C38   C     C_2   0.415941 0.698370 0.413127 0.859707
O17   O     O_2   0.424897 0.803227 0.439964 -0.563134
O18   O     O_R   0.384943 0.680050 0.334714 -0.789723
H22   H     H_    0.374713 0.760308 0.304591 0.315037

loop_
_geom_bond_atom_site_label_1
_geom_bond_atom_site_label_2
_ccdc_geom_bond_type
C34   H17   S    
C27   C29   A    
O14   H20   S    
C15   N1    A    
C16   N2    A    
O18   H22   S    
O16   H21   S    
Cu1   O4    S    
Cu2   O3    S    
C4    H8    S    
C33   H14   S    
C37   O16   S    
C2    O2    A    
C20   C24   A    
C1    O1    A    
C14   C16   A    
C7    H9    S    
C17   O7    A    
C18   O8    A    
C10   C36   S    
C33   H15   S    
C34   H18   S    
Cu2   O7    S    
C3    C32   A    
C1    C12   S    
C2    C11   S    
C10   C12   A    
C24   H3    S    
C5    C29   A    
C21   C23   A    
Cu1   O5    S    
C7    C12   A    
Cu2   O2    S    
C27   C31   A    
C35   O11   D    
C13   C37   S    
C28   C32   A    
C4    C6    A    
C16   H12   S    
C36   O14   S    
C33   H13   S    
C21   C29   A    
C34   H16   S    
C35   O12   S    
C19   C23   A    
C37   O15   D    
C9    C35   S    
O10   C34   S    
C9    C11   A    
C31   C32   A    
C21   H5    S    
C22   H6    S    
Cu1   Cu2   S    
C14   C38   S    
C1    O3    A    
C2    O4    A    
C6    C30   A    
Cu2   O6    S    
C13   C15   A    
Cu1   N1    S    
C22   C24   A    
Cu2   N2    S    
C15   H11   S    
C17   O5    A    
C38   O18   S    
C7    C9    A    
C3    H7    S    
C22   C30   A    
C8    H10   S    
C3    C5    A    
C13   N2    A    
C14   N1    A    
C25   C27   A    
C23   H4    S    
C26   C28   A    
C5    O9    S    
C6    O10   S    
C28   C30   A    
C36   O13   D    
O9    C33   S    
C20   C26   A    
Cu1   O8    S    
C8    C11   A    
C17   C19   S    
C18   C20   S    
O12   H19   S    
C19   C25   A    
C4    C31   A    
C18   O6    A    
C25   H2    S    
C38   O17   D    
C26   H1    S    
C8    C10   A    
Cu1   O1    S    
