data_mof_unit_57657.cif
_audit_creation_date              2013-03-05T16:02:00-0500
_audit_creation_method            fapswitch 2.2
_symmetry_space_group_name_H-M    P1
_symmetry_Int_Tables_number       1
_space_group_crystal_system       triclinic
_cell_length_a                    14.776748
_cell_length_b                    14.167852
_cell_length_c                    14.143406
_cell_angle_alpha                 90.001001
_cell_angle_beta                  88.459989
_cell_angle_gamma                 90.001169
_cell_volume                      2959.92012647

loop_
_atom_site_label
_atom_site_type_symbol
_atom_site_description
_atom_site_fract_x
_atom_site_fract_y
_atom_site_fract_z
_atom_type_partial_charge
O1    O     O_R   0.367850 0.580280 0.500020 -0.615059
O2    O     O_R   0.632150 0.419720 0.499980 -0.610543
O3    O     O_R   0.632150 0.580280 0.499980 -0.615086
O4    O     O_R   0.367850 0.419720 0.500020 -0.610541
C1    C     C_R   0.326693 0.499694 0.500428 0.907632
C2    C     C_R   0.673306 0.499697 0.499586 0.907611
O5    O     O_R   0.500000 0.580290 0.373720 -0.603658
O6    O     O_R   0.500000 0.419710 0.626280 -0.597683
O7    O     O_R   0.500000 0.580290 0.626280 -0.603676
O8    O     O_R   0.500000 0.419710 0.373720 -0.597678
C3    C     C_R   0.500020 0.500004 0.329293 0.899239
C4    C     C_R   0.499982 0.500005 0.670707 0.899238
Zn1   Zn    Zn3+2 0.500000 0.607200 0.500000 0.952743
Zn2   Zn    Zn3+2 0.500000 0.392800 0.500000 0.961330
C5    C     C_1   0.499895 0.499998 0.227823 -0.170153
C6    C     C_1   0.500113 0.500002 0.772177 -0.170129
C7    C     C_1   0.499897 0.499979 0.142553 0.009122
C8    C     C_1   0.500114 0.499982 0.857447 0.009124
C9    C     C_1   0.499969 0.499963 0.042642 0.021579
C10   C     C_1   0.500043 0.499964 0.957357 0.021579
C11   C     C_R   0.815885 0.476020 0.413236 -0.100911
C12   C     C_R   0.184137 0.476114 0.586875 -0.100801
C13   C     C_R   0.770441 0.495742 0.499280 -0.111660
C14   C     C_R   0.229557 0.495724 0.500787 -0.111690
C15   C     C_R   0.813054 0.489056 0.586614 0.117276
C16   C     C_R   0.186920 0.488906 0.413480 0.117288
C17   C     C_R   0.903875 0.458193 0.587705 0.031917
C18   C     C_R   0.096105 0.458029 0.412463 0.031946
C19   C     C_R   0.952624 0.450811 0.500338 -0.033087
C20   C     C_R   0.047364 0.450811 0.499849 -0.033085
C21   C     C_R   0.907540 0.449504 0.413397 0.056988
C22   C     C_R   0.092456 0.449656 0.586788 0.056896
C23   C     C_R   0.948107 0.431151 0.671397 -0.015425
C24   C     C_R   0.051875 0.430809 0.328829 -0.015534
C25   C     C_R   0.043041 0.421833 0.669688 0.122244
C26   C     C_R   0.956944 0.421497 0.330560 0.122290
C27   C     C_R   0.556512 0.797603 0.438760 0.045939
C28   C     C_R   0.441908 0.202499 0.559630 0.050723
C29   C     C_R   0.443495 0.797606 0.561242 0.045938
C30   C     C_R   0.558093 0.202499 0.440372 0.050736
N1    N     N_R   0.500000 0.750030 0.500000 -0.146107
N2    N     N_R   0.500000 0.249970 0.500000 -0.146124
C31   C     C_R   0.443884 0.898809 0.565607 -0.055453
C32   C     C_R   0.562822 0.101425 0.441537 -0.055413
C33   C     C_R   0.556136 0.898809 0.434405 -0.055457
C34   C     C_R   0.437189 0.101423 0.558475 -0.055409
C35   C     C_R   0.500009 0.949403 0.500006 -0.009036
C36   C     C_R   0.500007 0.050779 0.500006 -0.011122
C37   C     C_R   0.388418 0.951594 0.630672 0.180748
C38   C     C_R   0.625753 0.048936 0.384449 0.185905
C39   C     C_R   0.611614 0.951597 0.369351 0.180745
C40   C     C_R   0.374270 0.048930 0.615576 0.185880
C41   C     C_1   0.769940 0.494920 0.325615 0.203214
N3    N     N_1   0.733295 0.509871 0.255860 -0.189958
C42   C     C_1   0.230163 0.495021 0.674447 0.203188
N4    N     N_1   0.266875 0.509975 0.744163 -0.190092
C43   C     C_3   0.763257 0.524115 0.675279 -0.881454
H1    H     H_    0.713827 0.580336 0.658979 0.239295
H2    H     H_    0.726201 0.465001 0.710299 0.244421
H3    H     H_    0.810621 0.557838 0.724626 0.247157
C44   C     C_3   0.236689 0.523836 0.324748 -0.881453
H4    H     H_    0.189301 0.557398 0.275321 0.247153
H5    H     H_    0.286061 0.580148 0.340953 0.239232
H6    H     H_    0.273807 0.464690 0.289854 0.244437
C45   C     C_1   0.897233 0.402574 0.755878 0.187646
N5    N     N_1   0.857189 0.379414 0.823432 -0.199634
C46   C     C_1   0.102749 0.402009 0.244424 0.187707
N6    N     N_1   0.142795 0.378671 0.176933 -0.199612
C47   C     C_3   0.088672 0.373771 0.751793 -0.847932
H7    H     H_    0.047936 0.312862 0.778033 0.238778
H8    H     H_    0.154781 0.342480 0.729933 0.248528
H9    H     H_    0.097139 0.424621 0.810624 0.253192
C48   C     C_3   0.911325 0.373205 0.248582 -0.848109
H10   H     H_    0.951918 0.312022 0.222807 0.238751
H11   H     H_    0.845053 0.342269 0.270378 0.248581
H12   H     H_    0.903210 0.423768 0.189458 0.253207
C49   C     C_1   0.620298 0.741838 0.384060 0.269449
N7    N     N_1   0.671728 0.697462 0.339801 -0.204379
C50   C     C_1   0.391421 0.258037 0.628217 0.267536
N8    N     N_1   0.350923 0.302353 0.683589 -0.220865
C51   C     C_1   0.379692 0.741852 0.615930 0.269449
N9    N     N_1   0.328244 0.697489 0.660181 -0.204386
C52   C     C_1   0.608563 0.258031 0.371766 0.267528
N10   N     N_1   0.649045 0.302342 0.316377 -0.220895
C53   C     C_3   0.350536 0.909614 0.722190 -0.895832
H13   H     H_    0.339139 0.964658 0.777119 0.252502
H14   H     H_    0.284810 0.874349 0.710111 0.248471
H15   H     H_    0.399955 0.860265 0.753250 0.240629
C54   C     C_3   0.714004 0.091328 0.346966 -0.903360
H16   H     H_    0.767317 0.036574 0.337920 0.252944
H17   H     H_    0.704198 0.125244 0.277277 0.248392
H18   H     H_    0.741617 0.142183 0.398497 0.240333
C55   C     C_3   0.649534 0.909613 0.277851 -0.895830
H19   H     H_    0.660978 0.964654 0.222930 0.252502
H20   H     H_    0.715243 0.874330 0.289966 0.248470
H21   H     H_    0.600118 0.860280 0.246758 0.240629
C56   C     C_3   0.286026 0.091313 0.653086 -0.903324
H22   H     H_    0.232725 0.036551 0.662171 0.252940
H23   H     H_    0.295855 0.125250 0.722763 0.248389
H24   H     H_    0.258385 0.142146 0.601554 0.240330

loop_
_geom_bond_atom_site_label_1
_geom_bond_atom_site_label_2
_geom_bond_distance
_ccdc_geom_bond_type
C11   C41   1.453832 S    
C42   N4    1.157647 T    
C55   H19   1.110423 S    
C17   C19   1.417349 A    
C48   H10   1.110114 S    
C9    C10   1.206184 T    
O3    C2    1.293511 A    
Zn1   N1    2.023594 S    
C56   H22   1.110567 S    
C23   C45   1.452046 S    
C29   N1    1.364882 A    
C53   H13   1.110427 S    
C17   C23   1.420105 A    
O5    C3    1.299484 A    
C11   C21   1.405560 A    
C12   C22   1.405669 A    
O1    C1    1.293534 A    
C16   C44   1.520233 S    
C14   C16   1.404586 A    
C28   N2    1.364396 A    
C47   H7    1.110282 S    
C43   H2    1.109964 S    
C28   C50   1.441463 S    
C33   C39   1.427371 A    
C34   C40   1.424564 A    
C40   C56   1.518274 S    
C44   H5    1.109171 S    
C47   H8    1.109148 S    
O7    Zn1   1.826275 S    
C23   C25   1.408581 A    
C3    C5    1.435181 S    
C4    C6    1.435181 S    
C35   C36   1.436291 A    
C54   H17   1.109542 S    
C24   C26   1.408516 A    
O3    Zn1   1.989644 S    
Zn2   N2    2.023596 S    
C30   N2    1.364393 A    
C18   C24   1.420070 A    
C55   H20   1.109496 S    
O4    Zn2   1.989645 S    
C48   H11   1.108999 S    
C30   C52   1.441462 S    
O2    C2    1.285931 A    
C15   C43   1.520243 S    
C56   H23   1.109540 S    
C51   N9    1.157198 T    
C33   C35   1.421678 A    
C34   C36   1.420933 A    
C53   H14   1.109496 S    
C46   N6    1.157710 T    
C22   C25   1.420309 A    
C37   C53   1.517749 S    
C29   C51   1.439406 S    
O8    Zn2   1.826276 S    
C31   C37   1.427351 A    
C43   H3    1.109710 S    
C29   C31   1.435178 A    
C49   N7    1.157210 T    
C27   C49   1.439425 S    
C47   H9    1.110225 S    
C19   C20   1.399778 A    
C38   C54   1.518281 S    
C52   N10   1.157784 T    
C30   C32   1.433820 A    
O6    C4    1.299593 A    
C37   C40   1.411906 A    
C38   C39   1.411918 A    
C54   H18   1.110286 S    
C39   C55   1.517747 S    
C55   H21   1.110106 S    
C11   C13   1.402167 A    
C48   H12   1.110061 S    
C12   C14   1.402227 A    
O1    Zn1   1.989630 S    
C27   C33   1.435210 A    
C56   H24   1.110286 S    
C53   H15   1.110105 S    
C32   C38   1.424554 A    
C5    C7    1.206007 T    
O6    Zn2   1.826262 S    
O4    C1    1.285906 A    
C24   C46   1.452057 S    
C41   N3    1.157644 T    
C12   C42   1.453823 S    
C15   C17   1.411967 A    
C16   C18   1.411885 A    
C18   C20   1.417360 A    
C19   C21   1.414285 A    
C44   H6    1.109972 S    
C20   C22   1.414299 A    
C43   H1    1.109143 S    
C1    C14   1.436332 S    
C2    C13   1.436320 S    
C7    C9    1.413055 S    
C8    C10   1.413053 S    
C13   C15   1.404637 A    
C27   N1    1.364894 A    
C44   H4    1.109720 S    
O2    Zn2   1.989628 S    
O7    C4    1.299487 A    
C28   C34   1.433830 A    
O8    C3    1.299594 A    
C50   N8    1.157786 T    
O5    Zn1   1.826264 S    
C25   C47   1.519521 S    
C6    C8    1.206009 T    
C45   N5    1.157705 T    
C21   C26   1.420235 A    
C54   H16   1.110571 S    
C31   C35   1.421660 A    
C26   C48   1.519475 S    
C32   C36   1.420914 A    
