data_mof_unit_46973.cif
_audit_creation_date              2012-12-10T21:26:48-0500
_audit_creation_method            fapswitch 2.2
_symmetry_space_group_name_H-M    P1
_symmetry_Int_Tables_number       1
_space_group_crystal_system       triclinic
_cell_length_a                    10.683127
_cell_length_b                    16.0995
_cell_length_c                    16.469961
_cell_angle_alpha                 86.422036
_cell_angle_beta                  90.706868
_cell_angle_gamma                 93.826683
_cell_volume                      2820.79830162

loop_
_atom_site_label
_atom_site_type_symbol
_atom_type_description
_atom_site_fract_x
_atom_site_fract_y
_atom_site_fract_z
_atom_type_partial_charge
C1    C     C_R   0.486363 0.488092 0.653594 0.879944
C2    C     C_R   0.511001 0.519802 0.254298 -0.232741
C3    C     C_R   0.498991 0.597138 0.208143 0.332214
C4    C     C_R   0.738266 0.501701 0.494251 0.974021
C5    C     C_R   0.460259 0.595613 0.125594 -0.153550
C6    C     C_R   0.421045 0.759940 0.474175 0.080844
C7    C     C_R   0.423655 0.847354 0.473824 -0.325286
C8    C     C_R   0.524949 0.892274 0.510251 0.205964
C9    C     C_R   0.621115 0.846073 0.547097 0.334219
C10   C     C_R   0.610917 0.758251 0.548528 -0.032351
C11   C     C_R   0.531844 0.148588 0.553041 0.293878
C12   C     C_R   0.368537 0.540061 0.771714 -0.192850
C13   C     C_R   0.560887 0.235205 0.539212 -0.034674
C14   C     C_R   0.448752 0.107211 0.498771 0.061794
C15   C     C_R   0.392133 0.245201 0.445468 -0.133743
C16   C     C_R   0.507088 0.512148 0.345058 0.891594
C17   C     C_R   0.376136 0.157337 0.445545 0.306892
C18   C     C_R   0.262109 0.499219 0.498286 0.945006
C19   C     C_2   0.078285 0.560722 0.450825 -0.222331
C20   C     C_2   0.129791 0.498176 0.492732 -0.415980
C21   C     C_2   0.947330 0.573120 0.462290 0.509388
C22   C     C_2   0.867444 0.504639 0.469759 -0.505931
C23   C     C_R   0.317985 0.524634 0.850508 0.423180
C24   C     C_R   0.437698 0.478155 0.737640 -0.144150
C25   C     C_R   0.433885 0.673090 0.076723 0.215026
C26   C     C_R   0.329728 0.717310 0.094505 -0.106894
C27   C     C_R   0.307964 0.792171 0.050520 -0.085164
C28   C     C_R   0.389515 0.823011 0.988325 -0.024911
C29   C     C_R   0.492362 0.778632 0.969489 -0.084686
C30   C     C_R   0.514395 0.703713 0.013280 -0.056911
C31   C     C_R   0.351414 0.621789 0.728317 0.184800
C32   C     C_R   0.433710 0.690679 0.744341 -0.074941
C33   C     C_R   0.411106 0.769940 0.710084 -0.136703
C34   C     C_R   0.352396 0.453770 0.898017 0.209330
C35   C     C_R   0.306565 0.780745 0.659687 -0.120159
C36   C     C_R   0.225806 0.712081 0.642354 -0.081977
C37   C     C_R   0.248214 0.632626 0.676204 -0.026838
C38   C     C_R   0.686272 0.268784 0.565543 0.218632
C39   C     C_R   0.704716 0.307034 0.639144 -0.013610
C40   C     C_R   0.825170 0.333720 0.664756 -0.161080
C41   C     C_R   0.928981 0.320542 0.617691 -0.112968
C42   C     C_R   0.912250 0.280531 0.545123 -0.117919
C43   C     C_R   0.791585 0.254191 0.519518 -0.115226
C44   C     C_R   0.569455 0.368910 0.247334 0.166210
C45   C     C_R   0.408238 0.390201 0.861666 -0.239916
C46   C     C_R   0.691245 0.373206 0.280817 -0.093069
C47   C     C_R   0.746004 0.300480 0.309451 -0.139579
C48   C     C_R   0.679771 0.223000 0.305075 -0.141371
C49   C     C_R   0.558649 0.218164 0.272080 -0.109399
C50   C     C_R   0.503454 0.290721 0.243244 -0.139276
C51   C     C_R   0.447128 0.401350 0.781658 -0.208736
C52   C     C_R   0.479283 0.446289 0.130635 -0.223853
C53   C     C_R   0.515198 0.445813 0.211884 -0.064646
C54   C     C_R   0.445577 0.519428 0.088533 0.238078
H1    H     H_    0.136513 0.609700 0.418452 0.211966
H2    H     H_    0.489550 0.350463 0.756160 0.185592
H3    H     H_    0.112304 0.601433 0.002293 0.381388
H4    H     H_    0.266232 0.694080 0.142718 0.131034
H5    H     H_    0.227943 0.826317 0.064691 0.148570
H6    H     H_    0.372485 0.880935 0.954325 0.142464
H7    H     H_    0.554864 0.802221 0.920912 0.140470
H8    H     H_    0.594952 0.670192 0.998681 0.129984
H9    H     H_    0.513364 0.683186 0.784845 0.134880
H10   H     H_    0.473909 0.823069 0.723181 0.196656
H11   H     H_    0.288435 0.842262 0.633769 0.181607
H12   H     H_    0.679803 0.722571 0.580486 0.218162
H13   H     H_    0.144971 0.720635 0.603597 0.218820
H14   H     H_    0.183652 0.580122 0.663682 0.134574
H15   H     H_    0.626734 0.314126 0.677436 0.147658
H16   H     H_    0.838111 0.363474 0.721674 0.153946
H17   H     H_    0.022368 0.340357 0.637979 0.144895
H18   H     H_    0.992773 0.269218 0.509119 0.164133
H19   H     H_    0.780395 0.220660 0.464843 0.129246
H20   H     H_    0.581964 0.139570 0.771865 0.383367
H21   H     H_    0.797251 0.935480 0.713936 0.399706
H22   H     H_    0.137251 0.153381 0.284990 0.391541
H23   H     H_    0.331959 0.283716 0.408272 0.207838
H24   H     H_    0.015744 0.796975 0.475699 0.417070
H25   H     H_    0.744243 0.432724 0.283710 0.123089
H26   H     H_    0.840156 0.304210 0.334595 0.142715
H27   H     H_    0.722370 0.166656 0.327083 0.162332
H28   H     H_    0.507728 0.158121 0.268540 0.197803
H29   H     H_    0.409633 0.286001 0.217545 0.168178
H30   H     H_    0.385855 0.767820 0.259421 0.365937
H31   H     H_    0.347700 0.879277 0.444443 0.227585
H32   H     H_    0.075812 0.449106 0.527446 0.151620
H33   H     H_    0.342820 0.726347 0.445966 0.189632
H34   H     H_    0.899216 0.444938 0.453959 0.143228
H35   H     H_    0.482851 0.389661 0.098613 0.164693
H36   H     H_    0.430494 0.334220 0.897390 0.176193
N1    N     N_2   0.361088 0.453655 0.983401 -0.128049
N2    N     N_2   0.416528 0.519533 0.004650 -0.134442
N3    N     N_R   0.515110 0.716920 0.509720 -0.112068
N4    N     N_2   0.534671 0.981981 0.509697 -0.044730
N5    N     N_2   0.434691 0.017618 0.497122 -0.069832
N6    N     N_R   0.484890 0.283060 0.490290 -0.143734
O1    O     O_R   0.494590 0.422540 0.612660 -0.623155
O2    O     O_2   0.097579 0.593875 0.831647 -0.285249
O3    O     O_3   0.156207 0.554941 0.981435 -0.537959
O4    O     O_2   0.508026 0.017101 0.665898 -0.253054
O5    O     O_2   0.715594 0.092367 0.649935 -0.241101
O6    O     O_3   0.540759 0.162857 0.722092 -0.592120
O7    O     O_2   0.861547 0.840414 0.596078 -0.266966
O8    O     O_2   0.792402 0.976147 0.546244 -0.221949
O9    O     O_3   0.717198 0.914732 0.689061 -0.513707
O10   O     O_2   0.317965 0.047041 0.334002 -0.299042
O11   O     O_2   0.157191 0.069621 0.433579 -0.246384
O12   O     O_R   0.504290 0.561850 0.618900 -0.619260
O13   O     O_3   0.201844 0.184189 0.317164 -0.595386
O14   O     O_2   0.805234 0.704789 0.437403 -0.225560
O15   O     O_2   0.891031 0.674123 0.574820 -0.309512
O16   O     O_3   0.041174 0.741354 0.462569 -0.593648
O17   O     O_2   0.656192 0.684265 0.305713 -0.198420
O18   O     O_2   0.588933 0.759465 0.182890 -0.299607
O19   O     O_3   0.426643 0.728812 0.298625 -0.567554
O20   O     O_R   0.676080 0.430360 0.496880 -0.629998
O21   O     O_R   0.685780 0.569670 0.503120 -0.533546
O22   O     O_R   0.495710 0.438150 0.381100 -0.618352
O23   O     O_R   0.505410 0.577460 0.387340 -0.519835
O24   O     O_R   0.314220 0.430330 0.496880 -0.613315
O25   O     O_R   0.323920 0.569640 0.503120 -0.632404
O26   O     O_2   0.268157 0.677133 0.893795 -0.322167
S1    S     S_3+6 0.208046 0.590641 0.888855 0.022474
S2    S     S_3+6 0.576426 0.100817 0.648460 0.061160
S3    S     S_3+6 0.753738 0.895748 0.593314 0.087689
S4    S     S_3+6 0.260820 0.111337 0.381716 0.017998
S5    S     S_3+6 0.915926 0.675319 0.485206 0.043334
S6    S     S_3+6 0.547289 0.694735 0.248491 0.048358
Zn1   Zn    Zn3+2 0.493520 0.406980 0.495830 0.956650
Zn2   Zn    Zn3+2 0.506480 0.593020 0.504170 1.048280

loop_
_geom_bond_atom_site_label_1
_geom_bond_atom_site_label_2
_ccdc_geom_bond_type
C43   H19   S    
C40   C41   A    
C46   H25   S    
C41   C42   A    
C19   C20   D    
O25   Zn2   S    
C36   H13   S    
C7    C8    A    
O17   S6    D    
C15   H23   S    
C12   C23   A    
C26   C27   A    
C40   H16   S    
C36   C37   A    
C19   C21   S    
C38   C39   A    
C11   C14   A    
C17   S4    S    
C45   C51   A    
C44   C50   A    
H3    O3    S    
C37   H14   S    
O23   Zn2   S    
C4    C22   S    
C48   H27   S    
C51   H2    S    
C34   N1    S    
O16   S5    S    
C44   C53   S    
O20   Zn1   S    
C11   S2    S    
C44   C46   A    
H22   O13   S    
C20   H32   S    
C22   H34   S    
C21   S5    S    
C2    C16   S    
C9    C10   A    
O12   Zn2   S    
O14   S5    D    
C41   H17   S    
C23   C34   A    
C24   C51   A    
C10   H12   S    
C21   C22   D    
C14   C17   A    
C52   H35   S    
C47   H26   S    
O6    S2    S    
C52   C54   A    
C50   H29   S    
C28   H6    S    
O2    S1    D    
C29   H7    S    
O5    S2    D    
O8    S3    D    
C13   N6    A    
O24   Zn1   S    
C5    C54   A    
C8    N4    S    
C32   H9    S    
C16   O23   A    
C1    O1    A    
C15   N6    A    
C3    S6    S    
C8    C9    A    
C23   S1    S    
C1    O12   A    
C10   N3    A    
C25   C26   A    
C9    S3    S    
O19   S6    S    
C31   C37   A    
O4    S2    D    
C35   C36   A    
C49   H28   S    
C54   N2    S    
C29   C30   A    
C45   H36   S    
C16   O22   A    
O18   S6    D    
C47   C48   A    
C6    N3    A    
C42   H18   S    
C39   H15   S    
C34   C45   A    
O21   Zn2   S    
C26   H4    S    
C13   C38   S    
C5    C25   S    
C48   C49   A    
H21   O9    S    
H30   O19   S    
C30   H8    S    
C12   C31   S    
O15   S5    D    
C4    O21   A    
C42   C43   A    
N3    Zn2   S    
C18   O24   A    
C14   N5    S    
N1    N2    D    
C52   C53   A    
O3    S1    S    
C19   H1    S    
C25   C30   A    
C15   C17   A    
O10   S4    D    
C46   C47   A    
C28   C29   A    
C4    O20   A    
C31   C32   A    
O11   S4    D    
C3    C5    A    
C2    C53   A    
C6    C7    A    
C12   C24   A    
O9    S3    S    
H20   O6    S    
C32   C33   A    
C2    C3    A    
O1    Zn1   S    
C38   C43   A    
O22   Zn1   S    
C27   H5    S    
C11   C13   A    
C7    H31   S    
C33   H10   S    
C33   C35   A    
C18   C20   S    
N4    N5    D    
O7    S3    D    
C6    H33   S    
C18   O25   A    
C39   C40   A    
O13   S4    S    
C1    C24   S    
C49   C50   A    
C27   C28   A    
C35   H11   S    
H24   O16   S    
O26   S1    D    
N6    Zn1   S    
