data_mof_unit_22107.cif
_audit_creation_date              2012-12-11T16:29:25-0500
_audit_creation_method            fapswitch 2.2
_symmetry_space_group_name_H-M    P1
_symmetry_Int_Tables_number       1
_space_group_crystal_system       triclinic
_cell_length_a                    6.953701
_cell_length_b                    17.258483
_cell_length_c                    18.857913
_cell_angle_alpha                 106.1665
_cell_angle_beta                  89.573809
_cell_angle_gamma                 90.479907
_cell_volume                      2173.54507853

loop_
_atom_site_label
_atom_site_type_symbol
_atom_type_description
_atom_site_fract_x
_atom_site_fract_y
_atom_site_fract_z
_atom_type_partial_charge
O1    O     O_R   0.494360 0.415680 0.413760 -0.534522
O2    O     O_R   0.818810 0.432910 0.557230 -0.528036
O3    O     O_R   0.994290 0.584320 0.586240 -0.537336
C1    C     C_R   0.649652 0.415492 0.580208 0.705557
O4    O     O_R   0.823740 0.406440 0.412520 -0.536790
O5    O     O_R   0.999250 0.557660 0.440500 -0.528476
C2    C     C_R   0.654981 0.383095 0.385596 0.690273
O6    O     O_R   0.489400 0.442340 0.559500 -0.515894
O7    O     O_3   0.662500 0.549650 0.509350 -0.360012
V1    V     V_3+5 0.935340 0.490790 0.498270 1.419804
O8    O     O_R   0.329270 0.567090 0.442770 -0.523953
C3    C     C_R   0.161243 0.583947 0.419300 0.703150
O9    O     O_R   0.324340 0.593560 0.587480 -0.527029
C4    C     C_R   0.155467 0.614848 0.616296 0.790506
V2    V     V_3+5 0.435970 0.509210 0.501730 1.438416
O10   O     O_3   0.158940 0.450350 0.490650 -0.356780
H1    H     H_    0.979176 0.859156 0.554052 0.165132
C5    C     C_R   0.245614 0.593743 0.765428 0.266274
C6    C     C_R   0.296538 0.586964 0.835227 -0.164826
C7    C     C_R   0.285735 0.652526 0.897075 -0.166065
C8    C     C_R   0.225567 0.726552 0.890607 -0.137699
C9    C     C_R   0.178765 0.737522 0.821179 0.029464
C10   C     C_R   0.189691 0.670274 0.756345 0.030269
C11   C     C_R   0.121500 0.814633 0.816518 -0.154565
C12   C     C_R   0.080990 0.826147 0.746708 0.056163
C13   C     C_R   0.091393 0.760152 0.681785 0.062650
C14   C     C_R   0.144968 0.682188 0.685986 -0.187302
C15   C     C_R   0.035402 0.903658 0.740133 -0.213348
C16   C     C_R   0.000052 0.916570 0.671261 0.020722
C17   C     C_R   0.006064 0.850992 0.608010 -0.139978
C18   C     C_R   0.051302 0.774267 0.612985 -0.162845
H2    H     H_    0.341507 0.529365 0.841671 0.126271
H3    H     H_    0.322732 0.645783 0.950700 0.131863
H4    H     H_    0.217422 0.775255 0.941052 0.104047
H5    H     H_    0.029535 0.955044 0.788537 0.137550
H6    H     H_    0.057224 0.726519 0.561794 0.103233
C19   C     C_1   0.110381 0.863092 0.131942 -0.177942
C20   C     C_1   0.116507 0.820045 0.175125 0.030068
C21   C     C_1   0.125379 0.769661 0.226899 -0.001997
C22   C     C_1   0.134088 0.727589 0.270865 0.011966
C23   C     C_1   0.144768 0.677788 0.323078 0.008878
C24   C     C_1   0.153194 0.635586 0.366939 -0.213314
C25   C     C_1   0.640545 0.362681 0.631480 -0.236482
C26   C     C_1   0.635543 0.319348 0.674400 0.008942
C27   C     C_1   0.631115 0.268175 0.725476 0.014260
C28   C     C_1   0.627960 0.225085 0.768631 0.002579
C29   C     C_1   0.624704 0.174053 0.819844 0.059566
C30   C     C_1   0.621502 0.131281 0.863272 -0.070409
H7    H     H_    0.390430 0.141614 0.436474 0.163814
C31   C     C_R   0.824646 0.399891 0.251989 -0.141104
C32   C     C_R   0.906596 0.412185 0.189013 -0.160172
C33   C     C_R   0.877917 0.356192 0.121784 -0.119847
C34   C     C_R   0.768454 0.286231 0.116562 -0.060513
C35   C     C_R   0.703750 0.266320 0.181687 -0.019845
C36   C     C_R   0.725714 0.327217 0.250389 0.080282
C37   C     C_R   0.621376 0.189331 0.181472 -0.192907
C38   C     C_R   0.559669 0.176481 0.249581 0.066394
C39   C     C_R   0.564643 0.240727 0.315947 0.078698
C40   C     C_R   0.646404 0.316084 0.316188 -0.171904
C41   C     C_R   0.499663 0.099031 0.253534 -0.200834
C42   C     C_R   0.441823 0.085447 0.320452 0.018010
C43   C     C_R   0.435558 0.150377 0.384131 -0.144414
C44   C     C_R   0.496887 0.226652 0.382163 -0.164704
H8    H     H_    0.841919 0.448606 0.301813 0.120050
H9    H     H_    0.984838 0.467485 0.191872 0.125939
H10   H     H_    0.930850 0.370419 0.072610 0.143682
H11   H     H_    0.501717 0.047788 0.205011 0.141434
H12   H     H_    0.496743 0.273658 0.433918 0.114819
O11   O     O_R   0.775690 0.057750 0.940570 -0.513445
O12   O     O_R   0.441200 0.093570 0.087490 -0.529014
O13   O     O_R   0.265840 0.942320 0.059480 -0.525445
C45   C     C_R   0.610958 0.119687 0.112885 0.716163
O14   O     O_R   0.446270 0.067110 0.942790 -0.516346
O15   O     O_R   0.270950 0.915660 0.913750 -0.540056
C46   C     C_R   0.614440 0.080560 0.916516 0.779313
O16   O     O_R   0.770580 0.084400 0.086300 -0.529864
O17   O     O_3   0.602640 0.950400 0.990690 -0.372323
V3    V     V_3+5 0.329740 0.009200 0.001730 1.482349
O18   O     O_R   0.940900 0.906360 0.912450 -0.541520
C47   C     C_R   0.110114 0.883931 0.884633 0.680987
O19   O     O_R   0.935830 0.932820 0.057160 -0.526288
C48   C     C_R   0.103672 0.915683 0.080391 0.700010
V4    V     V_3+5 0.829130 0.990680 0.998180 1.472566
O20   O     O_3   0.106100 0.049590 0.009310 -0.345365
C49   C     C_2   0.703064 0.244954 0.041682 0.721380
O21   O     O_2   0.820818 0.228166 0.991509 -0.540772
O22   O     O_R   0.507064 0.233164 0.025824 -0.653048
H13   H     H_    0.421592 0.255297 0.070540 0.262079
C50   C     C_2   0.397148 0.002582 0.324270 0.770826
O23   O     O_2   0.315195 0.991855 0.378430 -0.542404
O24   O     O_R   0.454174 0.936261 0.266725 -0.671879
H14   H     H_    0.427499 0.883082 0.277956 0.301356
N1    N     N_2   0.251233 0.522356 0.705683 -0.531173
H15   H     H_    0.377431 0.490921 0.703866 0.248854
C51   C     C_3   0.084891 0.470535 0.701842 -0.502170
H16   H     H_    0.095325 0.418662 0.651606 0.207080
H17   H     H_    0.951026 0.504239 0.699031 0.192262
H18   H     H_    0.078134 0.446845 0.750915 0.180482
C52   C     C_2   0.961756 0.999056 0.665481 0.762280
O25   O     O_2   0.912944 0.009290 0.606559 -0.542252
O26   O     O_R   0.984279 0.065640 0.727242 -0.674321
H19   H     H_    0.960144 0.118662 0.715676 0.300817

loop_
_geom_bond_atom_site_label_1
_geom_bond_atom_site_label_2
_ccdc_geom_bond_type
O22   H13   S    
O26   H19   S    
C36   C40   A    
O12   V3    S    
C31   H8    S    
C23   C24   T    
C51   H16   S    
C45   O16   A    
O19   C48   A    
C51   H18   S    
O17   V3    S    
C26   C27   S    
C12   C15   A    
C13   C14   A    
N1    H15   S    
V4    O20   S    
C15   C16   A    
C19   C20   T    
O5    C3    A    
C17   C18   A    
O17   V4    S    
V2    O10   S    
C37   C38   A    
C5    C6    A    
C32   H9    S    
C3    C24   S    
C28   C29   S    
O8    V2    S    
C11   C47   S    
C6    C7    A    
C41   H11   S    
C37   C45   S    
O14   V3    S    
O1    V2    S    
C10   C14   A    
C4    C14   S    
C50   O24   S    
O7    V1    S    
C1    O6    A    
O13   C48   A    
C13   C18   A    
N1    C51   S    
O15   C47   A    
O9    C4    A    
H1    C17   S    
O14   C46   A    
C30   C46   S    
C6    H2    S    
O16   V4    S    
C2    C40   S    
O19   V4    S    
C42   C50   S    
C49   O22   S    
C35   C37   A    
C16   C52   S    
C5    C10   A    
C29   C30   T    
C11   C12   A    
C15   H5    S    
O24   H14   S    
O4    C2    A    
C38   C41   A    
C8    H4    S    
C39   C40   A    
C49   O21   D    
C32   C33   A    
C41   C42   A    
O2    C1    A    
C25   C26   T    
C16   C17   A    
O11   V4    S    
V3    O20   S    
C52   O25   D    
C43   C44   A    
C31   C32   A    
C12   C13   A    
O3    C4    A    
C7    H3    S    
C22   C23   S    
C52   O26   S    
O6    V2    S    
O9    V2    S    
C9    C11   A    
C19   C48   S    
O2    V1    S    
C21   C22   T    
C33   H10   S    
C33   C34   A    
C39   C44   A    
C35   C36   A    
H7    C43   S    
O1    C2    A    
C9    C10   A    
O5    V1    S    
O12   C45   A    
O8    C3    A    
C51   H17   S    
C34   C35   A    
C1    C25   S    
C44   H12   S    
C31   C36   A    
O7    V2    S    
O4    V1    S    
O3    V1    S    
V1    O10   S    
O18   V4    S    
C38   C39   A    
C20   C21   S    
O11   C46   A    
C42   C43   A    
O18   C47   A    
C27   C28   T    
C7    C8    A    
O15   V3    S    
C5    N1    S    
C18   H6    S    
C34   C49   S    
C50   O23   D    
C8    C9    A    
O13   V3    S    
