data_mof_unit_66125.cif
_audit_creation_date              2012-12-10T21:03:05-0500
_audit_creation_method            fapswitch 2.2
_symmetry_space_group_name_H-M    P1
_symmetry_Int_Tables_number       1
_space_group_crystal_system       triclinic
_cell_length_a                    15.849967
_cell_length_b                    15.061379
_cell_length_c                    19.237316
_cell_angle_alpha                 90.000286
_cell_angle_beta                  89.990783
_cell_angle_gamma                 89.999491
_cell_volume                      4592.37741832

loop_
_atom_site_label
_atom_site_type_symbol
_atom_type_description
_atom_site_fract_x
_atom_site_fract_y
_atom_site_fract_z
_atom_type_partial_charge
C1    C     C_R   0.338847 0.500000 0.500029 0.915147
C2    C     C_R   0.486789 0.046891 0.438200 -0.140427
C3    C     C_R   0.500000 0.905045 0.500000 0.061295
C4    C     C_R   0.500000 0.094955 0.500000 0.061295
C5    C     C_1   0.500000 0.807190 0.500000 0.070787
C6    C     C_1   0.500000 0.192810 0.500000 0.070788
C7    C     C_R   0.499981 0.500000 0.365144 0.921347
C8    C     C_R   0.500016 0.500000 0.634856 0.921347
C9    C     C_R   0.500295 0.580597 0.253278 -0.220520
C10   C     C_R   0.499653 0.419401 0.746720 -0.220516
C11   C     C_R   0.500381 0.580600 0.746721 -0.220494
C12   C     C_R   0.661153 0.500000 0.499971 0.915150
C13   C     C_R   0.499576 0.419397 0.253280 -0.220489
C14   C     C_R   0.500266 0.581059 0.181181 0.377217
C15   C     C_R   0.499647 0.418936 0.818817 0.377219
C16   C     C_R   0.500361 0.581063 0.818818 0.377236
C17   C     C_R   0.499561 0.418932 0.181184 0.377239
C18   C     C_R   0.499909 0.499994 0.144915 -0.125756
C19   C     C_R   0.499994 0.500000 0.855085 -0.125755
C20   C     C_R   0.499952 0.499999 0.289548 -0.176368
C21   C     C_R   0.500019 0.500001 0.710452 -0.176368
C22   C     C_R   0.499970 0.499998 0.930234 0.397450
C23   C     C_1   0.824376 0.499998 0.499970 -0.051947
C24   C     C_R   0.499924 0.499990 0.069766 0.397448
C25   C     C_R   0.956256 0.580824 0.499999 -0.162948
C26   C     C_R   0.043744 0.419176 0.500000 -0.162947
C27   C     C_R   0.043741 0.580825 0.500018 -0.163023
C28   C     C_R   0.956258 0.419175 0.499982 -0.163024
C29   C     C_R   0.913153 0.499999 0.499981 0.160789
C30   C     C_R   0.086847 0.500001 0.500019 0.160789
C31   C     C_1   0.175624 0.500001 0.500030 -0.051945
C32   C     C_1   0.250457 0.500001 0.500033 -0.158439
C33   C     C_1   0.749543 0.499999 0.499967 -0.158443
C34   C     C_R   0.486790 0.953109 0.438200 -0.140409
C35   C     C_R   0.513210 0.046891 0.561800 -0.140408
C36   C     C_R   0.513211 0.953109 0.561800 -0.140427
Cl1   Cl    Cl    0.504083 0.684458 0.138288 -0.512174
Cl2   Cl    Cl    0.495802 0.315536 0.861705 -0.512183
Cl3   Cl    Cl    0.504189 0.684462 0.861710 -0.512250
Cl4   Cl    Cl    0.495717 0.315531 0.138297 -0.512258
H1    H     H_    0.501020 0.643354 0.280799 0.201505
H2    H     H_    0.523563 0.918074 0.610226 0.155096
H3    H     H_    0.523562 0.081926 0.610226 0.155059
H4    H     H_    0.476438 0.918073 0.389774 0.155060
H5    H     H_    0.498936 0.356644 0.719197 0.201506
H6    H     H_    0.501108 0.643356 0.719200 0.201486
H7    H     H_    0.498865 0.356642 0.280804 0.201487
H8    H     H_    0.077652 0.643314 0.500030 0.153339
H9    H     H_    0.922347 0.356686 0.499969 0.153339
H10   H     H_    0.922342 0.643313 0.500000 0.153365
H11   H     H_    0.077658 0.356687 0.500000 0.153366
H12   H     H_    0.476437 0.081926 0.389774 0.155097
N1    N     N_R   0.561591 0.457127 0.034477 -0.090373
N2    N     N_R   0.438302 0.542861 0.965522 -0.090364
N3    N     N_R   0.561613 0.457131 0.965532 -0.090544
N4    N     N_R   0.438280 0.542857 0.034468 -0.090532
N5    N     N_1   0.500000 0.270550 0.500000 -0.084630
N6    N     N_1   0.500000 0.729450 0.500000 -0.084630
O1    O     O_R   0.378020 0.573650 0.500020 -0.607334
O2    O     O_R   0.621980 0.426350 0.499980 -0.607334
O3    O     O_R   0.621980 0.573650 0.499980 -0.607318
O4    O     O_R   0.378020 0.426350 0.500020 -0.607318
O5    O     O_R   0.499990 0.573690 0.398140 -0.617158
O6    O     O_R   0.500010 0.426310 0.601860 -0.617160
O7    O     O_R   0.500010 0.573690 0.601860 -0.617157
O8    O     O_R   0.499990 0.426310 0.398140 -0.617159
Zn1   Zn    Zn3+2 0.500000 0.598370 0.500000 0.998141
Zn2   Zn    Zn3+2 0.500000 0.401630 0.500000 0.998140

loop_
_geom_bond_atom_site_label_1
_geom_bond_atom_site_label_2
_ccdc_geom_bond_type
C27   H8    S    
O8    Zn2   S    
C9    C14   A    
C15   Cl2   S    
C26   C30   A    
C22   N3    A    
C27   C30   A    
C26   C28   A    
C24   N4    A    
C35   H3    S    
C11   C16   A    
C14   C18   A    
C9    C20   A    
C9    H1    S    
C31   C32   T    
C13   C20   A    
C13   C17   A    
C3    C5    S    
O4    Zn2   S    
O1    Zn1   S    
C1    O4    A    
C2    C34   A    
C10   H5    S    
C1    O1    A    
C17   C18   A    
C12   C33   S    
C4    C35   A    
C8    O7    A    
C22   N2    A    
C26   H11   S    
C7    O8    A    
C15   C19   A    
C12   O3    A    
C6    N5    T    
C7    O5    A    
C2    H12   S    
C3    C36   A    
C8    O6    A    
C16   C19   A    
C18   C24   S    
C2    C4    A    
C23   C29   S    
C28   C29   A    
C8    C21   S    
N2    N4    A    
C10   C15   A    
N1    N3    A    
C10   C21   A    
C25   C29   A    
C30   C31   S    
O5    Zn1   S    
C25   C27   A    
C16   Cl3   S    
C5    N6    T    
C12   O2    A    
O6    Zn2   S    
N6    Zn1   S    
C19   C22   S    
C34   H4    S    
O2    Zn2   S    
C4    C6    S    
C7    C20   S    
C28   H9    S    
C13   H7    S    
O3    Zn1   S    
C25   H10   S    
C11   H6    S    
N5    Zn2   S    
C3    C34   A    
C23   C33   T    
C24   N1    A    
C36   H2    S    
C11   C21   A    
C1    C32   S    
C35   C36   A    
C14   Cl1   S    
O7    Zn1   S    
C17   Cl4   S    
