data_mof_unit_58096.cif
_audit_creation_date              2012-12-10T18:58:16-0500
_audit_creation_method            fapswitch 2.2
_symmetry_space_group_name_H-M    P1
_symmetry_Int_Tables_number       1
_space_group_crystal_system       triclinic
_cell_length_a                    11.074964
_cell_length_b                    10.940066
_cell_length_c                    9.616332
_cell_angle_alpha                 88.140419
_cell_angle_beta                  101.498328
_cell_angle_gamma                 92.001544
_cell_volume                      1140.65633377

loop_
_atom_site_label
_atom_site_type_symbol
_atom_type_description
_atom_site_fract_x
_atom_site_fract_y
_atom_site_fract_z
_atom_type_partial_charge
C1    C     C_R   0.500773 0.262717 0.501561 0.851464
C2    C     C_R   0.499100 0.129501 0.498716 -0.196419
C3    C     C_R   0.545373 0.070945 0.391454 0.199708
C4    C     C_R   0.537804 0.942613 0.383184 0.174424
C5    C     C_R   0.495265 0.870763 0.490062 -0.179983
C6    C     C_R   0.442226 0.931232 0.586693 0.005882
C7    C     C_3   0.447883 0.912694 0.741884 -0.455978
C8    C     C_3   0.443039 0.052521 0.746477 0.239113
C9    C     C_R   0.607256 0.515601 0.096272 0.222191
C10   C     C_R   0.398108 0.465260 0.053873 -0.113939
C11   C     C_R   0.397673 0.460987 0.904985 0.316073
C12   C     C_R   0.263913 0.498758 0.443429 0.881111
C13   C     C_R   0.607075 0.515293 0.950098 0.207925
C14   C     C_3   0.699484 0.617404 0.957186 -0.473580
C15   C     C_3   0.698689 0.620466 0.114658 -0.512998
C16   C     C_R   0.500372 0.737453 0.497721 0.820881
C17   C     C_R   0.736059 0.500785 0.556620 0.859912
C18   C     C_2   0.131276 0.480558 0.416651 -0.340107
C19   C     C_2   0.065201 0.522602 0.506998 0.263967
C20   C     C_2   0.867758 0.524201 0.583602 -0.421756
C21   C     C_2   0.939987 0.469815 0.508542 0.217057
C22   C     C_R   0.440370 0.056878 0.589027 0.038580
Cu1   Cu    Cu3+1 0.499990 0.499980 0.640670 0.947562
Cu2   Cu    Cu3+1 0.500010 0.500020 0.359330 0.932393
H1    H     H_    0.317805 0.436586 0.095079 0.169938
H2    H     H_    0.788360 0.587229 0.934856 0.195742
H3    H     H_    0.661820 0.700486 0.896699 0.201750
H4    H     H_    0.788351 0.598196 0.183215 0.201163
H5    H     H_    0.659708 0.704669 0.141246 0.216442
H6    H     H_    0.899237 0.602700 0.648223 0.122532
H7    H     H_    0.092884 0.417934 0.333632 0.140289
H8    H     H_    0.364431 0.862334 0.763757 0.179831
H9    H     H_    0.535225 0.871508 0.795969 0.191406
N1    N     N_R   0.500780 0.500930 0.148120 -0.214590
N2    N     N_R   0.500790 0.500890 0.852210 -0.228955
O1    O     O_R   0.500000 0.319640 0.618810 -0.617874
O2    O     O_R   0.500010 0.319680 0.381230 -0.554849
O3    O     O_R   0.320680 0.500000 0.575130 -0.526041
O4    O     O_R   0.320690 0.500040 0.337550 -0.610865
O5    O     O_R   0.499990 0.680320 0.618770 -0.575148
O6    O     O_R   0.500000 0.680360 0.381190 -0.580430
O7    O     O_R   0.679310 0.499960 0.662450 -0.589040
O8    O     O_R   0.679320 0.500000 0.424870 -0.562755
N3    N     N_2   0.903882 0.352775 0.447989 -0.421176
H10   H     H_    0.853964 0.295924 0.504821 0.246655
C23   C     C_3   0.858958 0.349011 0.296077 -0.676362
H11   H     H_    0.757133 0.349267 0.272104 0.258903
H12   H     H_    0.888669 0.263407 0.255812 0.222391
H13   H     H_    0.894521 0.427510 0.239048 0.209716
N4    N     N_2   0.551276 0.113441 0.831711 -0.442783
H14   H     H_    0.542996 0.205790 0.844036 0.262361
C24   C     C_3   0.675079 0.077876 0.825168 -0.700149
H15   H     H_    0.742828 0.148052 0.876695 0.220736
H16   H     H_    0.686624 0.069779 0.714008 0.229145
H17   H     H_    0.696976 0.990330 0.884675 0.226997
N5    N     N_2   0.294622 0.406909 0.812108 -0.369320
H18   H     H_    0.318539 0.339306 0.751752 0.294075
C25   C     C_3   0.179496 0.381861 0.858954 -0.737339
H19   H     H_    0.189658 0.304970 0.938312 0.242931
H20   H     H_    0.106968 0.355467 0.766765 0.240194
H21   H     H_    0.149172 0.464765 0.904540 0.216151
N6    N     N_2   0.118434 0.615632 0.603959 -0.400409
H22   H     H_    0.098459 0.608201 0.703989 0.254186
C26   C     C_3   0.111008 0.738747 0.543982 -0.676667
H23   H     H_    0.157835 0.803866 0.624931 0.234455
H24   H     H_    0.013079 0.764213 0.509802 0.213780
H25   H     H_    0.157545 0.746215 0.451692 0.229741
N7    N     N_2   0.614299 0.139594 0.303704 -0.424952
H26   H     H_    0.700764 0.106696 0.305403 0.251980
C27   C     C_3   0.548423 0.168976 0.161666 -0.538701
H27   H     H_    0.555662 0.093563 0.091056 0.260572
H28   H     H_    0.590762 0.252034 0.120192 0.190638
H29   H     H_    0.449669 0.185845 0.159596 0.252955
N8    N     N_2   0.582545 0.888889 0.272167 -0.434817
H30   H     H_    0.648176 0.824379 0.304997 0.246210
C28   C     C_3   0.491180 0.865567 0.144041 -0.624695
H31   H     H_    0.535243 0.878685 0.050603 0.215615
H32   H     H_    0.413218 0.928939 0.131920 0.257323
H33   H     H_    0.453411 0.770491 0.144263 0.244430
C29   C     C_2   0.323777 0.091142 0.783273 0.772053
O9    O     O_2   0.313035 0.090046 0.907359 -0.637387
O10   O     O_R   0.224163 0.122862 0.675531 -0.783385
H34   H     H_    0.147828 0.141050 0.713470 0.331920

loop_
_geom_bond_atom_site_label_1
_geom_bond_atom_site_label_2
_ccdc_geom_bond_type
C3    N7    S    
C28   H33   S    
Cu2   O4    S    
C7    C8    S    
C20   H6    S    
N3    H10   S    
C23   H13   S    
Cu1   O7    S    
N8    C28   S    
C19   C21   S    
C28   H32   S    
C13   N2    A    
C5    C6    A    
C19   N6    S    
C25   H20   S    
Cu1   O5    S    
C6    C22   A    
C17   C20   S    
N5    H18   S    
C1    C2    S    
C9    C13   A    
C17   O7    A    
C5    C16   S    
N6    C26   S    
N3    C23   S    
N7    H26   S    
C2    C22   A    
N4    C24   S    
Cu1   Cu2   S    
C27   H27   S    
C14   H3    S    
C4    N8    S    
C24   H17   S    
C1    O2    A    
C25   H21   S    
C13   C14   S    
Cu2   O6    S    
C7    H9    S    
C24   H16   S    
C15   H5    S    
C23   H12   S    
N8    H30   S    
C26   H25   S    
C28   H31   S    
C29   O10   S    
C18   C19   D    
C25   H19   S    
Cu2   N1    S    
C26   H24   S    
C17   O8    A    
N6    H22   S    
C21   N3    S    
C8    C22   S    
C27   H29   S    
N4    H14   S    
C10   N1    A    
C14   H2    S    
C16   O5    A    
C10   H1    S    
O10   H34   S    
Cu1   N2    S    
C9    N1    A    
C3    C4    A    
C8    N4    S    
C24   H15   S    
Cu2   O2    S    
C23   H11   S    
C7    H8    S    
C29   O9    D    
C6    C7    S    
Cu1   O3    S    
C26   H23   S    
C12   O4    A    
C11   N2    A    
C2    C3    A    
C9    C15   S    
C15   H4    S    
N5    C25   S    
C12   O3    A    
C10   C11   A    
C4    C5    A    
C20   C21   D    
N7    C27   S    
Cu1   O1    S    
C12   C18   S    
C8    C29   S    
Cu2   O8    S    
C14   C15   S    
C27   H28   S    
C18   H7    S    
C16   O6    A    
C11   N5    S    
C1    O1    A    
