data_mof_unit_11768.cif
_audit_creation_date              2012-12-10T16:56:35-0500
_audit_creation_method            fapswitch 2.2
_symmetry_space_group_name_H-M    P1
_symmetry_Int_Tables_number       1
_space_group_crystal_system       triclinic
_cell_length_a                    7.769118
_cell_length_b                    8.645484
_cell_length_c                    15.699301
_cell_angle_alpha                 90.804369
_cell_angle_beta                  86.808874
_cell_angle_gamma                 93.201581
_cell_volume                      1051.14574324

loop_
_atom_site_label
_atom_site_type_symbol
_atom_type_description
_atom_site_fract_x
_atom_site_fract_y
_atom_site_fract_z
_atom_type_partial_charge
C1    C     C_R   0.544735 0.794052 0.498233 0.905231
C2    C     C_3   0.375043 0.394058 0.027476 -0.200313
C3    C     C_1   0.512034 0.499775 0.750536 -0.160936
C4    C     C_1   0.487966 0.500225 0.249464 -0.160938
C5    C     C_3   0.349983 0.536066 0.972168 0.062987
C6    C     C_3   0.650017 0.463934 0.027832 0.062987
C7    C     C_3   0.510935 0.499944 0.916851 0.137400
C8    C     C_3   0.489065 0.500056 0.083149 0.137400
C9    C     C_1   0.515438 0.499725 0.825778 -0.044637
C10   C     C_1   0.484562 0.500275 0.174222 -0.044638
C11   C     C_1   0.812980 0.422726 0.062107 0.174710
C12   C     C_R   0.455265 0.205948 0.501768 0.905232
C13   C     C_1   0.187020 0.577274 0.937893 0.174710
C14   C     C_1   0.713907 0.009265 0.557267 0.230194
C15   C     C_1   0.286087 0.990734 0.442739 0.230201
C16   C     C_R   0.503638 0.500064 0.661897 0.898422
C17   C     C_R   0.496362 0.499936 0.338103 0.898422
C18   C     C_2   0.565110 0.955376 0.510036 -0.243893
C19   C     C_2   0.434888 0.044624 0.489966 -0.243897
C20   C     C_3   0.461509 0.642584 0.029109 -0.222947
C21   C     C_3   0.538491 0.357416 0.970891 -0.222946
C22   C     C_3   0.624957 0.605942 0.972524 -0.200313
H1    H     H_    0.726763 0.691935 0.948388 0.165594
H2    H     H_    0.273237 0.308065 0.051611 0.165594
H3    H     H_    0.013303 0.382403 0.436812 0.200373
H4    H     H_    0.986697 0.617596 0.563188 0.200373
H5    H     H_    0.427650 0.758006 0.054717 0.150782
H6    H     H_    0.572350 0.241994 0.945283 0.150782
N1    N     N_2   0.950320 0.457950 0.477300 -0.163290
N2    N     N_2   0.049680 0.542050 0.522700 -0.163290
N3    N     N_1   0.940825 0.390032 0.089757 -0.219632
N4    N     N_1   0.059175 0.609968 0.910243 -0.219632
N5    N     N_1   0.832133 0.051568 0.594742 -0.188503
N6    N     N_1   0.167858 0.948432 0.405269 -0.188504
O1    O     O_R   0.389250 0.738570 0.505570 -0.609014
O2    O     O_R   0.610750 0.261430 0.494430 -0.609013
O3    O     O_R   0.678390 0.711630 0.491020 -0.621619
O4    O     O_R   0.321610 0.288370 0.508980 -0.621620
O5    O     O_R   0.355460 0.513480 0.630490 -0.607754
O6    O     O_R   0.644540 0.486520 0.369510 -0.607754
O7    O     O_R   0.644600 0.486540 0.615950 -0.619518
O8    O     O_R   0.355400 0.513460 0.384050 -0.619518
Zn1   Zn    Zn3+2 0.306940 0.517990 0.509710 0.976362
Zn2   Zn    Zn3+2 0.693060 0.482010 0.490290 0.976363

loop_
_geom_bond_atom_site_label_1
_geom_bond_atom_site_label_2
_ccdc_geom_bond_type
C6    C8    S    
C14   N5    T    
N1    N2    D    
C3    C9    T    
C20   H5    S    
C12   O2    A    
C7    C22   S    
O1    Zn1   S    
C14   C18   S    
C15   N6    T    
C5    C13   S    
C1    O3    A    
C2    C21   S    
C11   N3    T    
O4    Zn1   S    
C5    C20   S    
C7    C21   S    
C15   C19   S    
C1    C18   S    
C8    C20   S    
O3    Zn2   S    
C4    C17   S    
C12   C19   S    
C21   H6    S    
C20   C22   S    
H4    N2    S    
C5    C7    S    
N1    Zn2   S    
C12   O4    A    
O7    Zn2   S    
N2    Zn1   S    
O2    Zn2   S    
C2    C5    S    
O8    Zn1   S    
C16   O5    A    
C4    C10   T    
C6    C22   S    
O6    Zn2   S    
C1    O1    A    
H3    N1    S    
C8    C10   S    
C18   C19   D    
C6    C11   S    
C7    C9    S    
C22   H1    S    
O5    Zn1   S    
C2    H2    S    
C13   N4    T    
C17   O8    A    
C6    C21   S    
C16   O7    A    
C2    C8    S    
C3    C16   S    
C17   O6    A    
