data_mof_unit_45055.cif
_audit_creation_date              2012-12-11T16:58:13-0500
_audit_creation_method            fapswitch 2.2
_symmetry_space_group_name_H-M    P1
_symmetry_Int_Tables_number       1
_space_group_crystal_system       triclinic
_cell_length_a                    16.92776
_cell_length_b                    7.257404
_cell_length_c                    16.849246
_cell_angle_alpha                 91.826451
_cell_angle_beta                  100.453881
_cell_angle_gamma                 88.005827
_cell_volume                      2033.67723517

loop_
_atom_site_label
_atom_site_type_symbol
_atom_type_description
_atom_site_fract_x
_atom_site_fract_y
_atom_site_fract_z
_atom_type_partial_charge
O1    O     O_R   0.413450 0.494370 0.415710 -0.533949
O2    O     O_R   0.586550 0.994370 0.584290 -0.534294
O3    O     O_R   0.578420 0.819350 0.429360 -0.539329
O4    O     O_R   0.421580 0.319350 0.570640 -0.543671
C1    C     C_R   0.604262 0.650611 0.413260 0.700777
C2    C     C_R   0.395372 0.160211 0.586841 0.699992
O5    O     O_R   0.413570 0.823780 0.406240 -0.541721
O6    O     O_R   0.586430 0.323780 0.593760 -0.541743
O7    O     O_R   0.420530 0.998740 0.561000 -0.535072
O8    O     O_R   0.579470 0.498740 0.439000 -0.540291
C3    C     C_R   0.386174 0.655510 0.383652 0.686898
C4    C     C_R   0.613896 0.155238 0.616406 0.687604
O9    O     O_3   0.502480 0.662320 0.550800 -0.377538
O10   O     O_3   0.497520 0.162320 0.449200 -0.377350
V1    V     V_3+5 0.499540 0.935370 0.490580 1.385191
V2    V     V_3+5 0.500460 0.435370 0.509420 1.384772
C5    C     C_R   0.695557 0.992232 0.735581 0.115947
C6    C     C_R   0.304697 0.486280 0.264799 0.117454
C7    C     C_R   0.680735 0.147195 0.686930 -0.108667
C8    C     C_R   0.319360 0.646859 0.313020 -0.109164
C9    C     C_R   0.730700 0.298629 0.709472 -0.187363
C10   C     C_R   0.269011 0.802199 0.290134 -0.188428
H1    H     H_    0.721363 0.422592 0.674741 0.142586
H2    H     H_    0.278107 0.930262 0.324533 0.143536
C11   C     C_R   0.796818 0.287137 0.773681 -0.182767
C12   C     C_R   0.202798 0.790395 0.226041 -0.182258
H3    H     H_    0.835673 0.403621 0.786635 0.140124
H4    H     H_    0.163729 0.910848 0.212828 0.140968
C13   C     C_R   0.815328 0.123415 0.817227 -0.106714
C14   C     C_R   0.184529 0.622482 0.182893 -0.107065
C15   C     C_R   0.760823 0.980724 0.798899 0.111748
C16   C     C_R   0.239383 0.474492 0.201555 0.112884
C17   C     C_3   0.774732 0.780318 0.782532 -0.426656
C18   C     C_3   0.225962 0.278856 0.218476 -0.429066
C19   C     C_3   0.703371 0.792940 0.713352 -0.408775
C20   C     C_3   0.297354 0.291722 0.287562 -0.406954
H5    H     H_    0.763415 0.694704 0.832629 0.174442
H6    H     H_    0.237447 0.183493 0.168610 0.174956
H7    H     H_    0.832850 0.750345 0.762114 0.174596
H8    H     H_    0.167930 0.260993 0.239018 0.174335
H9    H     H_    0.651040 0.714511 0.723638 0.177252
H10   H     H_    0.349856 0.203656 0.277450 0.177402
H11   H     H_    0.720223 0.770181 0.652913 0.170097
H12   H     H_    0.280592 0.281172 0.348066 0.169768
C21   C     C_R   0.334240 0.171559 0.640694 -0.067354
C22   C     C_R   0.664632 0.622633 0.359386 -0.067993
C23   C     C_R   0.165192 0.098116 0.859382 -0.064848
C24   C     C_R   0.835835 0.646684 0.140420 -0.065145
C25   C     C_R   0.261523 0.907416 0.797996 -0.201141
C26   C     C_R   0.742115 0.855353 0.196599 -0.201682
C27   C     C_R   0.209391 0.931102 0.853273 -0.160955
C28   C     C_R   0.794167 0.818404 0.142204 -0.160152
C29   C     C_R   0.176042 0.243326 0.809455 -0.239004
C30   C     C_R   0.822624 0.510676 0.193734 -0.239990
C31   C     C_R   0.228305 0.219674 0.753076 0.158679
C32   C     C_R   0.770366 0.547574 0.249033 0.158829
C33   C     C_R   0.271125 0.050000 0.746952 0.159410
C34   C     C_R   0.730058 0.721638 0.250787 0.159563
C35   C     C_R   0.323337 0.026279 0.690532 -0.238848
C36   C     C_R   0.677893 0.758662 0.306145 -0.239826
C37   C     C_R   0.290239 0.338745 0.646914 -0.163428
C38   C     C_R   0.706025 0.450677 0.357467 -0.162615
C39   C     C_R   0.238020 0.362383 0.702118 -0.199850
C40   C     C_R   0.758162 0.413725 0.303131 -0.200428
H13   H     H_    0.357045 0.897368 0.687173 0.124360
H14   H     H_    0.646274 0.891135 0.306311 0.125729
H15   H     H_    0.296726 0.453533 0.609288 0.129631
H16   H     H_    0.697684 0.342683 0.397821 0.131761
H17   H     H_    0.205732 0.493215 0.705351 0.119745
H18   H     H_    0.788498 0.279719 0.303111 0.118855
H19   H     H_    0.203165 0.816381 0.891026 0.132106
H20   H     H_    0.802203 0.926382 0.101728 0.134103
H21   H     H_    0.142300 0.372208 0.812740 0.125102
H22   H     H_    0.854316 0.378285 0.193673 0.126302
O11   O     O_R   0.920630 0.775410 0.061150 -0.538357
O12   O     O_R   0.079370 0.275410 0.938850 -0.532989
O13   O     O_R   0.086500 0.441450 0.093690 -0.537056
O14   O     O_R   0.913500 0.941450 0.906310 -0.536948
C41   C     C_R   0.113962 0.610075 0.116181 0.685954
C42   C     C_R   0.885966 0.110379 0.883770 0.686544
O15   O     O_R   0.921670 0.445960 0.070740 -0.538668
O16   O     O_R   0.078330 0.945960 0.929260 -0.543319
O17   O     O_R   0.913380 0.271130 0.915780 -0.538272
O18   O     O_R   0.086620 0.771130 0.084220 -0.537600
C43   C     C_R   0.896340 0.618910 0.086578 0.690418
C44   C     C_R   0.104022 0.109576 0.913281 0.689827
O19   O     O_3   0.997500 0.603030 0.949220 -0.377357
O20   O     O_3   0.002500 0.103030 0.050780 -0.377112
V3    V     V_3+5 0.000470 0.329940 0.009420 1.389968
V4    V     V_3+5 0.999530 0.829940 0.990580 1.389333
H23   H     H_    0.293888 0.776665 0.794823 0.120564
H24   H     H_    0.711680 0.989256 0.196554 0.119662

loop_
_geom_bond_atom_site_label_1
_geom_bond_atom_site_label_2
_ccdc_geom_bond_type
C2    C21   S    
C29   C31   A    
C20   H10   S    
O1    C3    A    
O2    C4    A    
C2    O7    A    
O14   V4    S    
C24   C30   A    
O13   V3    S    
C17   H7    S    
C27   H19   S    
C22   C38   A    
C18   H8    S    
C7    C9    A    
C41   O18   A    
O14   C42   A    
C33   C35   A    
C34   C36   A    
C25   C33   A    
C37   C39   A    
C38   C40   A    
O11   V4    S    
C17   C19   S    
C30   H22   S    
O11   C43   A    
C39   H17   S    
C25   C27   A    
C31   C39   A    
C26   C28   A    
C32   C40   A    
C40   H18   S    
C19   H11   S    
C18   C20   S    
O12   V3    S    
C23   C29   A    
O15   V3    S    
O5    V1    S    
C36   H14   S    
O6    V2    S    
O18   V4    S    
C25   H23   S    
C42   O17   A    
O13   C41   A    
C11   C13   A    
O17   V3    S    
C30   C32   A    
C3    C8    S    
C26   C34   A    
C23   C44   S    
O4    C2    A    
C23   C27   A    
O16   C44   A    
C17   H5    S    
C16   C18   S    
O4    V2    S    
O5    C3    A    
C28   H20   S    
C37   H15   S    
O6    C4    A    
C15   C17   S    
O1    V2    S    
O2    V1    S    
C14   C41   S    
C26   H24   S    
C8    C10   A    
C12   C14   A    
C31   C33   A    
C5    C15   A    
C10   H2    S    
C20   H12   S    
C6    C16   A    
O12   C44   A    
O3    V1    S    
C9    C11   A    
C21   C35   A    
C22   C36   A    
C18   H6    S    
C24   C43   S    
C29   H21   S    
O3    C1    A    
O9    V2    S    
C11   H3    S    
C1    C22   S    
C12   H4    S    
O16   V4    S    
C38   H16   S    
C9    H1    S    
O7    V1    S    
C1    O8    A    
C13   C15   A    
O8    V2    S    
C35   H13   S    
C14   C16   A    
C13   C42   S    
C4    C7    S    
C21   C37   A    
C5    C7    A    
C32   C34   A    
C6    C8    A    
C19   H9    S    
C24   C28   A    
O20   V3    S    
C10   C12   A    
O19   V4    S    
O10   V1    S    
C5    C19   S    
C6    C20   S    
O15   C43   A    
