data_mof_unit_43512.cif
_audit_creation_date              2012-12-10T19:18:12-0500
_audit_creation_method            fapswitch 2.2
_symmetry_space_group_name_H-M    P1
_symmetry_Int_Tables_number       1
_space_group_crystal_system       triclinic
_cell_length_a                    15.887021
_cell_length_b                    16.002745
_cell_length_c                    14.774723
_cell_angle_alpha                 90.020879
_cell_angle_beta                  88.947285
_cell_angle_gamma                 89.731655
_cell_volume                      3755.59010381

loop_
_atom_site_label
_atom_site_type_symbol
_atom_type_description
_atom_site_fract_x
_atom_site_fract_y
_atom_site_fract_z
_atom_type_partial_charge
C1    C     C_R   0.500209 0.340905 0.499968 0.828056
C2    C     C_R   0.499791 0.659095 0.500031 0.828055
C3    C     C_R   0.498225 0.912669 0.497471 0.089550
C4    C     C_R   0.501775 0.087331 0.502529 0.089549
C5    C     C_R   0.535797 0.957082 0.424975 0.012868
C6    C     C_R   0.464203 0.042917 0.575025 0.012868
C7    C     C_1   0.498513 0.823053 0.499149 -0.057560
C8    C     C_1   0.501487 0.176947 0.500850 -0.057561
C9    C     C_1   0.500908 0.251914 0.500071 -0.173839
C10   C     C_1   0.499091 0.748086 0.499929 -0.173839
C11   C     C_R   0.558613 0.549864 0.950445 0.119085
C12   C     C_R   0.441387 0.450136 0.049555 0.119085
C13   C     C_R   0.501008 0.499078 0.902938 -0.078543
C14   C     C_R   0.498992 0.500922 0.097062 -0.078542
C15   C     C_R   0.443525 0.448012 0.952497 0.112372
C16   C     C_R   0.556475 0.551988 0.047503 0.112372
C17   C     C_1   0.500493 0.499653 0.802484 0.149250
C18   C     C_1   0.499507 0.500347 0.197516 0.149251
C19   C     C_R   0.339452 0.500447 0.500856 0.828759
C20   C     C_R   0.660547 0.499553 0.499144 0.828758
C21   C     C_3   0.971763 0.424321 0.528709 -0.281510
C22   C     C_3   0.028237 0.575680 0.471291 -0.281510
C23   C     C_3   0.032205 0.440180 0.446807 0.019008
C24   C     C_3   0.967795 0.559822 0.553194 0.019006
C25   C     C_1   0.249950 0.501582 0.503189 -0.174288
C26   C     C_1   0.750050 0.498418 0.496811 -0.174289
C27   C     C_3   0.023518 0.486875 0.585269 0.017298
C28   C     C_3   0.976482 0.513127 0.414731 0.017298
C29   C     C_3   0.083036 0.501867 0.503708 0.094596
C30   C     C_3   0.916964 0.498134 0.496292 0.094595
C31   C     C_1   0.174561 0.502272 0.504671 -0.056548
C32   C     C_1   0.825439 0.497729 0.495329 -0.056545
C33   C     C_R   0.462553 0.955511 0.571384 -0.243718
C34   C     C_R   0.537448 0.044489 0.428617 -0.243718
Cu1   Cu    Cu3+1 0.500020 0.500000 0.589220 0.970027
Cu2   Cu    Cu3+1 0.499980 0.500000 0.410780 0.970027
H1    H     H_    0.946207 0.363197 0.551099 0.127454
H2    H     H_    0.053794 0.636804 0.448902 0.127454
H3    H     H_    0.434543 0.920628 0.627121 0.146774
H4    H     H_    0.565457 0.079372 0.372879 0.146774
N1    N     N_1   0.500030 0.499980 0.276710 -0.159629
N2    N     N_1   0.499970 0.500020 0.723290 -0.159628
O1    O     O_R   0.500040 0.380310 0.575320 -0.571050
O2    O     O_R   0.499960 0.619690 0.424680 -0.571049
O3    O     O_R   0.500000 0.380310 0.424640 -0.571595
O4    O     O_R   0.500000 0.619690 0.575360 -0.571595
O5    O     O_R   0.379100 0.499990 0.575330 -0.569752
O6    O     O_R   0.620900 0.500010 0.424670 -0.569751
O7    O     O_R   0.379060 0.499990 0.424640 -0.573887
O8    O     O_R   0.620940 0.500010 0.575360 -0.573887
C35   C     C_R   0.072170 0.375989 0.384790 0.112980
C36   C     C_R   0.057536 0.290301 0.397493 -0.154165
C37   C     C_R   0.095560 0.231700 0.339376 -0.136166
C38   C     C_R   0.148252 0.258187 0.268323 -0.111522
C39   C     C_R   0.162962 0.343356 0.255186 -0.135672
C40   C     C_R   0.125147 0.402093 0.313155 -0.123735
H5    H     H_    0.017071 0.268522 0.452119 0.115482
H6    H     H_    0.084199 0.165693 0.349463 0.122292
H7    H     H_    0.177645 0.212744 0.223451 0.118907
H8    H     H_    0.203620 0.363867 0.200085 0.123245
H9    H     H_    0.137108 0.467941 0.302277 0.127282
C41   C     C_R   0.927830 0.624011 0.615211 0.112981
C42   C     C_R   0.942465 0.709699 0.602510 -0.154164
C43   C     C_R   0.904442 0.768300 0.660629 -0.136165
C44   C     C_R   0.851751 0.741813 0.731682 -0.111524
C45   C     C_R   0.837040 0.656643 0.744818 -0.135671
C46   C     C_R   0.874853 0.597907 0.686845 -0.123733
H10   H     H_    0.982930 0.731479 0.547885 0.115482
H11   H     H_    0.915805 0.834307 0.650544 0.122292
H12   H     H_    0.822359 0.787255 0.776557 0.118906
H13   H     H_    0.796382 0.636132 0.799918 0.123244
H14   H     H_    0.862892 0.532059 0.697722 0.127280
C47   C     C_R   0.949708 0.523152 0.318145 0.114166
C48   C     C_R   0.972939 0.593926 0.267532 -0.155259
C49   C     C_R   0.952159 0.599784 0.176188 -0.141161
C50   C     C_R   0.908289 0.535143 0.134811 -0.124102
C51   C     C_R   0.884033 0.465019 0.185043 -0.136260
C52   C     C_R   0.904521 0.459013 0.276426 -0.123334
H15   H     H_    0.007968 0.644110 0.297906 0.115697
H16   H     H_    0.970623 0.654201 0.137278 0.123924
H17   H     H_    0.892795 0.539565 0.063935 0.122880
H18   H     H_    0.849676 0.415158 0.153047 0.126855
H19   H     H_    0.886381 0.403845 0.314350 0.124634
C53   C     C_R   0.050292 0.476851 0.681855 0.114168
C54   C     C_R   0.027055 0.406082 0.732472 -0.155264
C55   C     C_R   0.047835 0.400227 0.823816 -0.141160
C56   C     C_R   0.091711 0.464866 0.865189 -0.124101
C57   C     C_R   0.115974 0.534984 0.814953 -0.136261
C58   C     C_R   0.095485 0.540988 0.723570 -0.123331
H20   H     H_    0.992021 0.355900 0.702101 0.115698
H21   H     H_    0.029366 0.345814 0.862730 0.123925
H22   H     H_    0.107206 0.460446 0.936065 0.122881
H23   H     H_    0.150336 0.584844 0.846946 0.126856
H24   H     H_    0.113629 0.596152 0.685643 0.124633
C59   C     C_R   0.426705 0.086016 0.655081 0.114112
C60   C     C_R   0.475535 0.139927 0.707610 -0.125148
C61   C     C_R   0.440101 0.179709 0.783572 -0.137753
C62   C     C_R   0.355792 0.166101 0.807620 -0.111216
C63   C     C_R   0.306918 0.112295 0.756030 -0.130686
C64   C     C_R   0.342217 0.072051 0.680251 -0.156734
H25   H     H_    0.541137 0.150543 0.690206 0.123282
H26   H     H_    0.478177 0.220749 0.824011 0.118236
H27   H     H_    0.328393 0.196900 0.866416 0.117326
H28   H     H_    0.241685 0.101654 0.774849 0.122058
H29   H     H_    0.303602 0.030565 0.640817 0.122435
C65   C     C_R   0.573295 0.913984 0.344919 0.114112
C66   C     C_R   0.524465 0.860073 0.292390 -0.125148
C67   C     C_R   0.559900 0.820291 0.216428 -0.137753
C68   C     C_R   0.644209 0.833899 0.192380 -0.111215
C69   C     C_R   0.693083 0.887704 0.243971 -0.130687
C70   C     C_R   0.657784 0.927949 0.319749 -0.156733
H30   H     H_    0.458863 0.849457 0.309793 0.123282
H31   H     H_    0.521823 0.779251 0.175989 0.118236
H32   H     H_    0.671608 0.803099 0.133584 0.117325
H33   H     H_    0.758315 0.898345 0.225152 0.122058
H34   H     H_    0.696399 0.969434 0.359184 0.122435
C71   C     C_3   0.614049 0.609987 0.099552 -0.409294
C72   C     C_3   0.693978 0.564776 0.128175 -0.809726
H35   H     H_    0.678530 0.512506 0.174906 0.259355
H36   H     H_    0.728456 0.539455 0.068110 0.233669
H37   H     H_    0.735459 0.609213 0.163748 0.252644
H38   H     H_    0.630845 0.666467 0.060062 0.199210
H39   H     H_    0.581153 0.635009 0.160777 0.203874
C73   C     C_3   0.385951 0.390013 0.900448 -0.409293
C74   C     C_3   0.306022 0.435224 0.871825 -0.809727
H40   H     H_    0.271543 0.460544 0.931891 0.233668
H41   H     H_    0.321469 0.487495 0.825096 0.259354
H42   H     H_    0.264541 0.390788 0.836252 0.252644
H43   H     H_    0.418846 0.364991 0.839222 0.203874
H44   H     H_    0.369155 0.333533 0.939938 0.199210
C75   C     C_3   0.623543 0.600014 0.896290 -0.405390
C76   C     C_3   0.587695 0.684211 0.866859 -0.828154
H45   H     H_    0.533226 0.675074 0.821945 0.260957
H46   H     H_    0.566952 0.721511 0.926652 0.239750
H47   H     H_    0.636874 0.719685 0.829039 0.238643
H48   H     H_    0.682003 0.609951 0.934468 0.198678
H49   H     H_    0.645090 0.564670 0.835360 0.199727
C77   C     C_3   0.376457 0.399986 0.103710 -0.405390
C78   C     C_3   0.412305 0.315788 0.133140 -0.828156
H50   H     H_    0.433048 0.278489 0.073347 0.239750
H51   H     H_    0.466774 0.324925 0.178056 0.260957
H52   H     H_    0.363126 0.280314 0.170960 0.238643
H53   H     H_    0.354910 0.435329 0.164640 0.199727
H54   H     H_    0.317997 0.390049 0.065532 0.198678

loop_
_geom_bond_atom_site_label_1
_geom_bond_atom_site_label_2
_ccdc_geom_bond_type
C25   C31   T    
C7    C10   T    
C56   C57   A    
C63   C64   A    
C26   C32   T    
C22   C29   S    
C27   C29   S    
C11   C13   A    
C47   C48   A    
C14   C18   S    
C59   C60   A    
C24   C27   S    
C4    C8    S    
Cu1   O5    S    
C61   C62   A    
C77   C78   S    
C60   H25   S    
C51   C52   A    
C2    O4    A    
C71   H38   S    
C64   H29   S    
C33   H3    S    
C41   C46   A    
C34   H4    S    
C23   C29   S    
C27   C53   S    
C35   C40   A    
C3    C7    S    
C77   H53   S    
C78   H52   S    
C19   O5    A    
C39   C40   A    
C65   C66   A    
C3    C33   A    
C62   H27   S    
C22   H2    S    
C67   C68   A    
C46   H14   S    
C66   H30   S    
C58   H24   S    
Cu1   N2    S    
C72   H35   S    
C20   O8    A    
C17   N2    T    
C52   H19   S    
C1    O1    A    
Cu1   Cu2   S    
C2    O2    A    
C76   H45   S    
C74   H42   S    
C66   C67   A    
Cu2   O6    S    
C70   H34   S    
C14   C16   A    
Cu1   O1    S    
C49   H16   S    
C61   H26   S    
C5    C65   S    
C63   H28   S    
C21   C27   S    
C22   C28   S    
C39   H8    S    
C5    C34   A    
Cu2   N1    S    
C28   C47   S    
C24   C30   S    
C65   C70   A    
C54   H20   S    
C4    C34   A    
C48   C49   A    
C35   C36   A    
C1    C9    S    
C53   C54   A    
C4    C6    A    
C75   H48   S    
C15   C73   S    
C18   N1    T    
C55   C56   A    
C8    C9    T    
C54   C55   A    
C47   C52   A    
C69   C70   A    
C72   H37   S    
C67   H31   S    
C49   C50   A    
C41   C42   A    
C75   H49   S    
C11   C16   A    
C19   O7    A    
C23   C35   S    
C45   H13   S    
C12   C15   A    
C37   H6    S    
C60   C61   A    
Cu1   O8    S    
C73   H44   S    
Cu2   O3    S    
C6    C59   S    
C43   H11   S    
C50   C51   A    
C20   O6    A    
C68   H32   S    
C12   C14   A    
C44   C45   A    
C48   H15   S    
C21   C23   S    
C74   H40   S    
C22   C24   S    
Cu2   O2    S    
C23   C28   S    
C53   C58   A    
C75   C76   S    
C2    C10   S    
C36   C37   A    
C38   C39   A    
C57   H23   S    
C24   C41   S    
C59   C64   A    
C3    C5    A    
C11   C75   S    
C50   H17   S    
C38   H7    S    
C78   H50   S    
C37   C38   A    
C21   C30   S    
C42   H10   S    
C71   C72   S    
C6    C33   A    
C13   C17   S    
C55   H21   S    
C43   C44   A    
C13   C15   A    
C71   H39   S    
C29   C31   S    
C77   H54   S    
C16   C71   S    
C30   C32   S    
C78   H51   S    
C1    O3    A    
C20   C26   S    
C51   H18   S    
C76   H47   S    
C28   C30   S    
C73   H43   S    
C45   C46   A    
C12   C77   S    
C19   C25   S    
C72   H36   S    
C36   H5    S    
C42   C43   A    
C21   H1    S    
C57   C58   A    
C76   H46   S    
C62   C63   A    
C68   C69   A    
C74   H41   S    
C40   H9    S    
C56   H22   S    
Cu1   O4    S    
C69   H33   S    
Cu2   O7    S    
C44   H12   S    
C73   C74   S    
