data_mof_unit_13154.cif
_audit_creation_date              2012-12-10T16:54:31-0500
_audit_creation_method            fapswitch 2.2
_symmetry_space_group_name_H-M    P1
_symmetry_Int_Tables_number       1
_space_group_crystal_system       triclinic
_cell_length_a                    15.015403
_cell_length_b                    10.923992
_cell_length_c                    9.693145
_cell_angle_alpha                 90.349126
_cell_angle_beta                  89.997951
_cell_angle_gamma                 89.730319
_cell_volume                      1589.90143505

loop_
_atom_site_label
_atom_site_type_symbol
_atom_type_description
_atom_site_fract_x
_atom_site_fract_y
_atom_site_fract_z
_atom_type_partial_charge
C1    C     C_R   0.497681 0.265118 0.499196 0.890231
C2    C     C_R   0.904788 0.608386 0.500452 0.142836
C3    C     C_R   0.957432 0.274615 0.494274 -0.244803
C4    C     C_R   0.050271 0.276168 0.489594 0.469010
C5    C     C_R   0.095514 0.388863 0.494539 -0.002625
C6    C     C_R   0.046971 0.500034 0.497372 -0.016776
C7    C     C_R   0.092060 0.614036 0.500570 0.104741
C8    C     C_R   0.042005 0.723158 0.503426 -0.176019
C9    C     C_R   0.949487 0.720233 0.502960 -0.207462
C10   C     C_R   0.188335 0.392425 0.497223 -0.267141
C11   C     C_R   0.232725 0.504054 0.499881 -0.088280
C12   C     C_R   0.329055 0.501642 0.500027 0.837771
C13   C     C_R   0.185848 0.615661 0.501065 0.079888
C14   C     C_2   0.490274 0.930764 0.388039 -0.254326
C15   C     C_2   0.508642 0.866480 0.501704 -0.348525
C16   C     C_2   0.499605 0.064726 0.381806 0.481995
C17   C     C_2   0.491434 0.132501 0.498083 -0.358545
C18   C     C_2   0.449651 0.428446 0.921648 -0.060027
C19   C     C_2   0.451058 0.426591 0.077351 -0.036506
C20   C     C_R   0.501912 0.734610 0.500414 0.902874
C21   C     C_R   0.670958 0.498271 0.499941 0.840818
C22   C     C_R   0.812225 0.606305 0.501219 -0.282652
C23   C     C_R   0.767295 0.495066 0.499733 -0.075045
C24   C     C_R   0.813815 0.383011 0.497505 0.100751
C25   C     C_R   0.907733 0.383860 0.496458 -0.000662
C26   C     C_R   0.953149 0.497302 0.497720 0.037469
Cu1   Cu    Cu3+1 0.500020 0.500020 0.638630 0.970862
Cu2   Cu    Cu3+1 0.499980 0.499980 0.361370 0.977854
H1    H     H_    0.774633 0.691433 0.503076 0.136110
H2    H     H_    0.531580 0.909198 0.596348 0.152776
H3    H     H_    0.478687 0.090814 0.597240 0.121672
H4    H     H_    0.404510 0.366042 0.869854 0.156920
H5    H     H_    0.543455 0.556135 0.894316 0.194553
H6    H     H_    0.408651 0.360659 0.128284 0.173189
H7    H     H_    0.538133 0.562984 0.106475 0.191370
H8    H     H_    0.925477 0.186297 0.495365 0.199976
H9    H     H_    0.227033 0.308342 0.496806 0.165483
H10   H     H_    0.073229 0.811898 0.506682 0.187352
H11   H     H_    0.912768 0.805915 0.505211 0.154083
H12   H     H_    0.469368 0.884018 0.294333 0.186064
N1    N     N_2   0.499020 0.498660 0.846910 -0.277335
N2    N     N_2   0.499000 0.498630 0.153040 -0.284456
O1    O     O_R   0.500020 0.321960 0.617040 -0.585535
O2    O     O_R   0.499980 0.321920 0.382900 -0.516488
O3    O     O_R   0.370270 0.499990 0.617090 -0.565730
O4    O     O_R   0.370240 0.499950 0.382940 -0.573187
O5    O     O_R   0.500020 0.678080 0.617100 -0.573356
O6    O     O_R   0.499980 0.678040 0.382960 -0.580559
O7    O     O_R   0.629760 0.500050 0.617060 -0.569403
O8    O     O_R   0.629730 0.500010 0.382910 -0.573242
O9    O     O_3   0.506390 0.121702 0.254239 -0.562611
C27   C     C_3   0.577726 0.071488 0.177112 0.069271
H13   H     H_    0.557696 0.983177 0.128990 0.137682
H14   H     H_    0.638176 0.056975 0.242009 0.165024
C28   C     C_3   0.602016 0.159701 0.062405 -0.723339
H15   H     H_    0.622505 0.249073 0.107239 0.263103
H16   H     H_    0.658049 0.121493 0.000732 0.203467
H17   H     H_    0.543894 0.174198 0.993425 0.239548
I1    I     I_    0.740184 0.215370 0.494835 -0.453747
O10   O     O_3   0.096073 0.165851 0.490583 -0.582773
C29   C     C_3   0.119656 0.132073 0.354044 0.060422
H18   H     H_    0.180244 0.073613 0.359675 0.196375
H19   H     H_    0.137301 0.211553 0.287748 0.131365
C30   C     C_3   0.045995 0.057250 0.285876 -0.799829
H20   H     H_    0.987512 0.116328 0.263393 0.239079
H21   H     H_    0.070666 0.017713 0.187161 0.223886
H22   H     H_    0.025236 0.981627 0.354514 0.255648
I2    I     I_    0.258703 0.784032 0.503041 -0.400534

loop_
_geom_bond_atom_site_label_1
_geom_bond_atom_site_label_2
_ccdc_geom_bond_type
C2    C22   A    
C29   C30   S    
C11   C12   S    
C19   N2    D    
C6    C7    A    
C22   H1    S    
C1    O1    A    
Cu1   N1    S    
C1    O2    A    
C1    C17   S    
C16   O9    S    
C9    H11   S    
C28   H15   S    
H5    N1    S    
C30   H20   S    
Cu1   O3    S    
C21   O7    A    
C6    C26   A    
Cu2   O6    S    
C7    C8    A    
C2    C26   A    
C20   O6    A    
C24   C25   A    
C11   C13   A    
Cu2   O4    S    
C15   C20   S    
C8    H10   S    
C3    H8    S    
O10   C29   S    
C10   H9    S    
C5    C6    A    
C4    C5    A    
Cu2   N2    S    
C21   O8    A    
C27   C28   S    
C27   H14   S    
C28   H16   S    
C21   C23   S    
C29   H18   S    
C17   H3    S    
C13   I2    S    
C14   C16   S    
C28   H17   S    
C20   O5    A    
C18   H4    S    
C10   C11   A    
C23   C24   A    
C14   H12   S    
C3    C4    A    
C30   H22   S    
Cu1   O1    S    
C7    C13   A    
C3    C25   A    
O9    C27   S    
C27   H13   S    
C15   H2    S    
C12   O4    A    
C18   C19   S    
C18   N1    D    
Cu1   O5    S    
Cu1   Cu2   S    
C29   H19   S    
H7    N2    S    
C14   C15   D    
C8    C9    A    
C5    C10   A    
C25   C26   A    
C22   C23   A    
C2    C9    A    
Cu2   O8    S    
Cu2   O2    S    
C24   I1    S    
Cu1   O7    S    
C16   C17   D    
C12   O3    A    
C4    O10   S    
C19   H6    S    
C30   H21   S    
