data_mof_unit_37871.cif
_audit_creation_date              2012-12-10T16:57:46-0500
_audit_creation_method            fapswitch 2.2
_symmetry_space_group_name_H-M    P1
_symmetry_Int_Tables_number       1
_space_group_crystal_system       triclinic
_cell_length_a                    7.749214
_cell_length_b                    8.571619
_cell_length_c                    18.80331
_cell_angle_alpha                 91.189316
_cell_angle_beta                  83.575548
_cell_angle_gamma                 93.891547
_cell_volume                      1238.16401997

loop_
_atom_site_label
_atom_site_type_symbol
_atom_type_description
_atom_site_fract_x
_atom_site_fract_y
_atom_site_fract_z
_atom_type_partial_charge
C1    C     C_R   0.546145 0.795023 0.498103 0.968337
C2    C     C_R   0.453889 0.204968 0.501577 0.963511
C3    C     C_2   0.570502 0.958499 0.496814 -0.385152
C4    C     C_2   0.429531 0.041501 0.502739 -0.393298
C5    C     C_R   0.496013 0.491074 0.635601 0.873772
C6    C     C_R   0.502540 0.500738 0.364230 0.871774
C7    C     C_R   0.330946 0.370794 0.749027 0.113464
C8    C     C_R   0.668654 0.461207 0.242978 0.131850
C9    C     C_R   0.344720 0.295905 0.814761 0.156324
C10   C     C_R   0.668218 0.370674 0.179358 0.135595
C11   C     C_R   0.496316 0.331305 0.849631 0.043867
C12   C     C_R   0.510535 0.349977 0.147445 0.056128
C13   C     C_R   0.641952 0.411447 0.812938 -0.214963
C14   C     C_R   0.353525 0.384448 0.187723 -0.215569
C15   C     C_R   0.637837 0.462840 0.744155 -0.240688
C16   C     C_R   0.351542 0.438063 0.257706 -0.257513
C17   C     C_R   0.484106 0.446971 0.711617 -0.104767
C18   C     C_R   0.507820 0.475322 0.286550 -0.066405
C19   C     C_R   0.507510 0.314683 0.070446 0.301001
C20   C     C_R   0.499905 0.305693 0.926639 0.299478
H1    H     H_    0.760164 0.437362 0.837880 0.156837
H2    H     H_    0.230571 0.367357 0.165646 0.154402
H3    H     H_    0.755178 0.520109 0.716955 0.161448
H4    H     H_    0.227219 0.450900 0.289114 0.161523
H5    H     H_    0.703463 0.009995 0.490995 0.179128
H6    H     H_    0.296559 0.990036 0.508587 0.179633
H7    H     H_    0.014678 0.380918 0.446765 0.185721
H8    H     H_    0.985307 0.618952 0.553296 0.186856
N1    N     N_R   0.653535 0.312847 0.954957 -0.191122
N2    N     N_R   0.353963 0.303450 0.042029 -0.188626
N3    N     N_R   0.656911 0.318344 0.025370 -0.177225
N4    N     N_R   0.350559 0.300362 0.971657 -0.179136
N5    N     N_2   0.950330 0.457950 0.481240 -0.178294
N6    N     N_2   0.049670 0.542050 0.518760 -0.176295
O1    O     O_R   0.389250 0.738570 0.504600 -0.607158
O2    O     O_R   0.610750 0.261430 0.495400 -0.607777
O3    O     O_R   0.678400 0.711620 0.492580 -0.626332
O4    O     O_R   0.321600 0.288380 0.507420 -0.634017
O5    O     O_R   0.355380 0.513500 0.607880 -0.610012
O6    O     O_R   0.644620 0.486500 0.392120 -0.612424
O7    O     O_R   0.644530 0.486550 0.595850 -0.622204
O8    O     O_R   0.355470 0.513450 0.404150 -0.621744
Zn1   Zn    Zn3+2 0.306930 0.517990 0.508030 0.924704
Zn2   Zn    Zn3+2 0.693070 0.482010 0.491970 0.928557
C21   C     C_3   0.151829 0.379346 0.723318 -0.414385
C22   C     C_3   0.113189 0.251174 0.668218 -0.753940
H9    H     H_    0.025967 0.294058 0.630959 0.253118
H10   H     H_    0.234535 0.215768 0.637119 0.258754
H11   H     H_    0.046753 0.145697 0.694717 0.221502
H12   H     H_    0.047470 0.373080 0.768853 0.179024
H13   H     H_    0.137456 0.496954 0.702207 0.216072
C23   C     C_3   0.836986 0.551497 0.259679 -0.414849
C24   C     C_3   0.813278 0.726122 0.272237 -0.835620
H14   H     H_    0.725970 0.747847 0.321759 0.256038
H15   H     H_    0.941491 0.788623 0.277770 0.247834
H16   H     H_    0.758578 0.775142 0.226011 0.253917
H17   H     H_    0.890874 0.500621 0.305529 0.224347
H18   H     H_    0.939455 0.546104 0.213631 0.195823
C25   C     C_3   0.205236 0.171596 0.844625 -0.414994
C26   C     C_3   0.280878 0.013265 0.852442 -0.842390
H19   H     H_    0.348920 0.975481 0.800412 0.256583
H20   H     H_    0.373287 0.018111 0.893476 0.264754
H21   H     H_    0.173936 0.924207 0.869111 0.248173
H22   H     H_    0.135610 0.210049 0.895920 0.225876
H23   H     H_    0.101976 0.148068 0.809293 0.217488
C27   C     C_3   0.828739 0.283330 0.152252 -0.428262
C28   C     C_3   0.786718 0.106672 0.146941 -0.835013
H24   H     H_    0.724572 0.061958 0.199345 0.252325
H25   H     H_    0.698623 0.076260 0.105505 0.266417
H26   H     H_    0.908919 0.047067 0.132526 0.253067
H27   H     H_    0.892583 0.330309 0.100713 0.231749
H28   H     H_    0.927924 0.296533 0.190444 0.193405

loop_
_geom_bond_atom_site_label_1
_geom_bond_atom_site_label_2
_ccdc_geom_bond_type
C21   C22   S    
C4    H6    S    
C28   H24   S    
C15   C17   A    
C8    C18   A    
O1    Zn1   S    
C6    O6    A    
C2    O4    A    
C2    C4    S    
C27   H27   S    
C1    O3    A    
N1    N3    A    
C28   H26   S    
C19   N3    A    
C14   H2    S    
O3    Zn2   S    
C13   C15   A    
N5    N6    D    
H8    N6    S    
C25   C26   S    
C16   H4    S    
C16   C18   A    
C24   H14   S    
C25   H23   S    
N2    N4    A    
C9    C11   A    
C22   H11   S    
N5    Zn2   S    
C25   H22   S    
C10   C27   S    
C23   H18   S    
C21   H12   S    
C26   H21   S    
C10   C12   A    
C12   C19   S    
C15   H3    S    
C12   C14   A    
C27   C28   S    
C22   H10   S    
C20   N1    A    
C24   H15   S    
C6    O8    A    
C6    C18   S    
O7    Zn2   S    
C14   C16   A    
C11   C20   S    
O2    Zn2   S    
C11   C13   A    
C5    C17   S    
O8    Zn1   S    
C21   H13   S    
C13   H1    S    
C23   H17   S    
C7    C21   S    
O6    Zn2   S    
C3    H5    S    
C23   C24   S    
C1    O1    A    
C26   H20   S    
C20   N4    A    
C24   H16   S    
C2    O2    A    
C1    C3    S    
C7    C9    A    
C5    O5    A    
C8    C23   S    
C22   H9    S    
C5    O7    A    
C9    C25   S    
O5    Zn1   S    
C19   N2    A    
N6    Zn1   S    
C8    C10   A    
H7    N5    S    
O4    Zn1   S    
C3    C4    D    
C27   H28   S    
C26   H19   S    
C28   H25   S    
C7    C17   A    
