data_mof_unit_53202.cif
_audit_creation_date              2013-03-05T15:52:20-0500
_audit_creation_method            fapswitch 2.2
_symmetry_space_group_name_H-M    P1
_symmetry_Int_Tables_number       1
_space_group_crystal_system       triclinic
_cell_length_a                    10.652979
_cell_length_b                    10.747195
_cell_length_c                    17.046422
_cell_angle_alpha                 80.470441
_cell_angle_beta                  99.313663
_cell_angle_gamma                 118.711397
_cell_volume                      1680.40523643

loop_
_atom_site_label
_atom_site_type_symbol
_atom_site_description
_atom_site_fract_x
_atom_site_fract_y
_atom_site_fract_z
_atom_type_partial_charge
O1    O     O_R   0.754020 0.497590 0.609930 -0.523354
O2    O     O_R   0.481420 0.271390 0.600630 -0.512589
C1    C     C_R   0.357837 0.222522 0.626030 0.565276
O3    O     O_R   0.263810 0.254550 0.589590 -0.449597
O4    O     O_R   0.300820 0.531200 0.560890 -0.469119
C2    C     C_R   0.369278 0.654970 0.585918 0.571903
O5    O     O_R   0.491480 0.744020 0.564270 -0.523516
O6    O     O_R   0.726290 0.693800 0.583010 -0.486754
C3    C     C_R   0.776912 0.618791 0.626827 0.548257
O7    O     O_R   0.747830 0.500190 0.434090 -0.517470
O8    O     O_R   0.475680 0.273800 0.437630 -0.462633
C4    C     C_R   0.349268 0.222629 0.401564 0.568363
O9    O     O_R   0.257620 0.257160 0.413750 -0.547230
O10   O     O_R   0.295080 0.533620 0.397890 -0.521840
C5    C     C_R   0.365174 0.654202 0.360859 0.536923
O11   O     O_R   0.485280 0.746620 0.388440 -0.524297
O12   O     O_R   0.720550 0.696220 0.420010 -0.509573
C6    C     C_R   0.776738 0.625287 0.401741 0.553366
Cr1   Cr    Cr6+3 0.608440 0.389080 0.519680 1.037320
Cr2   Cr    Cr6+3 0.288640 0.400090 0.490760 1.047453
Cr3   Cr    Cr6+3 0.602940 0.710800 0.489510 1.032907
O13   O     O_3   0.500010 0.499990 0.499980 -0.253107
C7    C     C_R   0.283841 0.746943 0.797612 0.044490
C8    C     C_R   0.171626 0.639089 0.755020 -0.067360
C9    C     C_R   0.190367 0.611902 0.682532 -0.008476
C10   C     C_R   0.413241 0.827528 0.678843 -0.136176
C11   C     C_R   0.399911 0.851506 0.754573 0.057284
C12   C     C_3   0.069059 0.486606 0.777180 -0.208305
C13   C     C_3   0.089492 0.455890 0.697146 0.096834
C14   C     C_R   0.318596 0.697237 0.646895 0.015956
H1    H     H_    0.508548 0.904761 0.650227 0.149743
H2    H     H_    0.958639 0.470274 0.779844 0.129032
H3    H     H_    0.111149 0.437388 0.830242 0.196743
H4    H     H_    0.990865 0.419154 0.654496 0.120438
C15   C     C_1   0.823147 0.656789 0.705962 -0.031537
C16   C     C_1   0.850975 0.685028 0.773634 -0.028736
C17   C     C_1   0.328794 0.155943 0.705251 0.020847
C18   C     C_1   0.293443 0.110074 0.771819 0.045629
C19   C     C_1   0.335637 0.664430 0.277866 -0.060781
C20   C     C_1   0.322985 0.673859 0.207129 -0.048637
C21   C     C_R   0.881603 0.692164 0.170381 0.059345
C22   C     C_R   0.936749 0.618423 0.228621 0.013395
C23   C     C_R   0.924963 0.612918 0.308169 -0.030570
C24   C     C_R   0.831869 0.782104 0.275972 -0.148015
C25   C     C_R   0.844499 0.787377 0.195163 -0.152417
C26   C     C_3   0.921509 0.470913 0.237087 0.098096
C27   C     C_3   0.909641 0.465090 0.325458 -0.253041
C28   C     C_R   0.854781 0.680116 0.331522 0.027895
H5    H     H_    0.787098 0.844606 0.292589 0.146167
H6    H     H_    0.816427 0.858438 0.152136 0.137967
H7    H     H_    0.019088 0.467583 0.224706 0.127969
H8    H     H_    0.803837 0.384085 0.345043 0.186476
H9    H     H_    0.003277 0.463026 0.364176 0.112622
C29   C     C_R   0.300441 0.121939 0.170679 0.009986
C30   C     C_R   0.189150 0.125349 0.201335 -0.000980
C31   C     C_R   0.193634 0.135155 0.280305 -0.040226
C32   C     C_R   0.411596 0.111710 0.306418 0.074758
C33   C     C_R   0.403230 0.097996 0.224942 -0.093439
C34   C     C_3   0.109445 0.210186 0.174700 -0.019631
C35   C     C_3   0.113996 0.222415 0.262588 -0.201410
C36   C     C_R   0.314403 0.147027 0.332214 0.056230
H10   H     H_    0.479975 0.074654 0.204331 0.183509
H11   H     H_    0.999281 0.147996 0.145642 0.178975
H12   H     H_    0.179076 0.333652 0.278735 0.174894
H13   H     H_    0.005849 0.164397 0.285041 0.129631
O14   O     O_R   0.163320 0.092900 0.874450 -0.449500
O15   O     O_R   0.934650 0.822080 0.882840 -0.502421
C37   C     C_R   0.892047 0.702221 0.855820 0.546850
O16   O     O_R   0.915520 0.604140 0.893670 -0.515466
O17   O     O_R   0.191760 0.638110 0.923230 -0.508309
C38   C     C_R   0.282185 0.752369 0.882896 0.561878
O18   O     O_R   0.406180 0.826930 0.920660 -0.464015
O19   O     O_R   0.358620 0.062870 0.901950 -0.487694
C39   C     C_R   0.252669 0.058909 0.851330 0.545721
O20   O     O_R   0.163910 0.085460 0.050210 -0.525040
O21   O     O_R   0.935200 0.815170 0.045770 -0.516546
C40   C     C_R   0.898725 0.695994 0.087894 0.570679
O22   O     O_R   0.916120 0.596690 0.069430 -0.458869
O23   O     O_R   0.192310 0.631200 0.086170 -0.479688
C41   C     C_R   0.312744 0.701205 0.123970 0.563203
O24   O     O_R   0.406770 0.819480 0.096420 -0.508419
O25   O     O_R   0.359170 0.055960 0.064880 -0.483036
C42   C     C_R   0.281357 0.099845 0.087825 0.568819
Cr4   Cr    Cr6+3 0.052530 0.947560 0.964210 1.039117
Cr5   Cr    Cr6+3 0.059970 0.626800 0.992920 1.058766
Cr6   Cr    Cr6+3 0.373320 0.938440 0.995370 1.072019
O26   O     O_3   0.161940 0.837600 0.984160 -0.328514
N1    N     N_R   0.788353 0.369404 0.195707 0.086697
O27   O     O_R   0.668423 0.374441 0.194756 -0.360347
O28   O     O_R   0.790252 0.274851 0.157829 -0.354073
N2    N     N_3   0.521294 0.096312 0.361182 -0.604863
H14   H     H_    0.620120 0.163418 0.338416 0.247635
H15   H     H_    0.503892 0.991980 0.361820 0.245788
N3    N     N_3   0.193421 0.348385 0.130349 -0.598973
H16   H     H_    0.301272 0.393469 0.153909 0.243424
H17   H     H_    0.190220 0.331820 0.071225 0.264348
N4    N     N_3   0.513126 0.974208 0.790019 -0.586745
H18   H     H_    0.531017 0.064657 0.750008 0.220014
H19   H     H_    0.607190 0.963902 0.797250 0.252528
N5    N     N_R   0.158185 0.364245 0.708168 0.100013
O29   O     O_R   0.288052 0.407217 0.743360 -0.337302
O30   O     O_R   0.078175 0.229636 0.699010 -0.343539

loop_
_geom_bond_atom_site_label_1
_geom_bond_atom_site_label_2
_geom_bond_distance
_ccdc_geom_bond_type
C24   H5    1.083267 S    
C33   H10   1.083511 S    
C30   C31   1.358990 A    
O11   Cr3   2.057332 S    
C30   C34   1.496787 S    
C21   C22   1.398866 A    
C15   C16   1.195615 T    
Cr4   O26   1.983111 S    
O21   Cr4   1.928330 S    
N4    H18   1.044498 S    
O4    Cr2   1.939928 S    
C40   O22   1.261954 A    
O8    Cr1   1.934270 S    
C10   C11   1.399178 A    
C12   C13   1.527074 S    
C21   C40   1.438310 S    
O4    C2    1.280002 A    
O20   Cr4   2.054324 S    
C5    O11   1.258391 A    
O14   C39   1.303049 A    
O19   C39   1.292708 A    
C26   C27   1.520523 S    
C37   O16   1.251306 A    
C7    C8    1.402199 A    
C20   C41   1.396617 S    
O17   C38   1.306469 A    
C34   N3    1.465718 S    
C7    C11   1.419720 A    
C23   C28   1.396173 A    
O24   Cr6   2.058763 S    
C13   N5    1.458631 S    
C27   H9    1.111057 S    
N1    O27   1.301899 A    
C34   C35   1.516496 S    
Cr3   O13   1.977317 S    
C29   C42   1.436735 S    
N4    H19   1.045806 S    
O6    Cr3   1.938238 S    
C26   N1    1.464228 S    
Cr5   O26   1.977580 S    
C9    C13   1.498447 S    
O1    Cr1   2.053302 S    
O15   C37   1.282394 A    
O10   Cr2   1.938726 S    
C12   H2    1.110328 S    
Cr1   O13   1.983081 S    
O1    C3    1.278833 A    
O21   C40   1.270703 A    
C19   C20   1.184264 T    
Cr6   O26   1.966291 S    
O6    C3    1.259564 A    
O25   Cr6   1.938596 S    
C26   H7    1.111600 S    
O12   Cr3   1.930910 S    
C31   C35   1.509350 S    
C17   C18   1.203010 T    
C7    C38   1.467836 S    
N2    H15   1.043376 S    
O7    Cr1   2.044581 S    
N5    O30   1.300271 A    
O12   C6    1.270345 A    
C8    C9    1.381136 A    
N3    H17   1.044544 S    
C5    C19   1.396511 S    
C27   H8    1.105692 S    
O22   Cr5   2.045672 S    
C2    C14   1.466946 S    
Cr2   O13   1.966269 S    
C12   H3    1.112288 S    
C10   C14   1.411456 A    
C22   C26   1.498327 S    
C29   C33   1.408876 A    
C22   C23   1.370916 A    
C1    O3    1.251699 A    
O23   Cr5   1.937021 S    
O16   Cr5   2.055077 S    
C24   C25   1.394864 A    
C18   C39   1.429119 S    
C9    C14   1.398782 A    
C29   C30   1.388765 A    
C11   N4    1.434756 S    
C32   N2    1.430398 S    
O9    Cr2   2.057099 S    
O2    Cr1   1.927957 S    
C31   C36   1.402017 A    
C8    C12   1.493438 S    
N1    O28   1.300455 A    
C41   O24   1.253361 A    
C6    C28   1.445363 S    
C35   H13   1.111804 S    
O18   Cr6   2.057516 S    
O8    C4    1.275282 A    
C16   C37   1.413494 S    
C32   C36   1.410570 A    
C2    O5    1.260290 A    
C34   H11   1.112287 S    
C35   H12   1.111965 S    
O2    C1    1.281180 A    
C38   O18   1.296124 A    
O5    Cr3   2.051621 S    
C4    C36   1.442770 S    
O20   C42   1.260064 A    
C32   C33   1.404897 A    
O15   Cr4   1.935978 S    
C25   H6    1.083331 S    
O7    C6    1.272064 A    
C13   H4    1.112482 S    
N5    O29   1.302447 A    
N3    H16   1.047055 S    
O19   Cr6   1.940145 S    
O14   Cr4   2.048385 S    
O23   C41   1.262062 A    
O3    Cr2   2.056437 S    
C10   H1    1.083656 S    
C4    O9    1.254341 A    
C1    C17   1.426174 S    
O25   C42   1.266577 A    
C3    C15   1.415335 S    
C21   C25   1.402702 A    
O10   C5    1.259926 A    
O17   Cr5   1.930078 S    
C23   C27   1.499655 S    
N2    H14   1.043640 S    
C24   C28   1.412882 A    
