data_mof_unit_7350.cif
_audit_creation_date              2012-10-26T19:28:49-0400
_audit_creation_method            fapswitch 2.2
_symmetry_space_group_name_H-M    P1
_symmetry_Int_Tables_number       1
_space_group_crystal_system       triclinic
_cell_length_a                    9.440137
_cell_length_b                    10.724458
_cell_length_c                    17.172269
_cell_angle_alpha                 89.451269
_cell_angle_beta                  86.539747
_cell_angle_gamma                 89.691903
_cell_volume                      1735.25743478

loop_
_atom_site_label
_atom_site_type_symbol
_atom_type_description
_atom_site_fract_x
_atom_site_fract_y
_atom_site_fract_z
_atom_type_partial_charge
C1    C     C_R   0.500018 0.740154 0.500021 0.553671
C2    C     C_R   0.525387 0.522141 0.265133 -0.005671
C3    C     C_3   0.431495 0.929571 0.426610 -0.235394
C4    C     C_R   0.481836 0.498068 0.649800 0.547266
C5    C     C_3   0.431820 0.073501 0.426636 -0.231108
C6    C     C_3   0.416494 0.927364 0.573884 -0.232442
C7    C     C_3   0.655184 0.927920 0.499691 -0.230835
C8    C     C_3   0.500674 0.878175 0.500053 0.050725
C9    C     C_3   0.501218 0.121897 0.500106 0.052514
C10   C     C_3   0.416939 0.071323 0.573962 -0.233258
C11   C     C_3   0.655479 0.070621 0.499727 -0.233659
C12   C     C_R   0.538825 0.391943 0.771657 -0.134188
C13   C     C_3   0.922677 0.405445 0.443683 -0.098884
C14   C     C_3   0.088959 0.396752 0.449265 -0.106946
C15   C     C_3   0.919719 0.621298 0.472688 -0.119946
C16   C     C_R   0.500387 0.259870 0.500092 0.545817
C17   C     C_3   0.910369 0.471835 0.578308 0.033650
C18   C     C_3   0.087276 0.617086 0.468767 -0.111903
C19   C     C_3   0.077500 0.480212 0.578201 -0.074553
C20   C     C_R   0.517840 0.504063 0.349829 0.550625
C21   C     C_R   0.472168 0.490573 0.734197 0.021653
C22   C     C_R   0.397081 0.581617 0.777707 -0.116288
C23   C     C_R   0.411384 0.591802 0.148754 0.008138
C24   C     C_R   0.396079 0.577918 0.858778 -0.043842
C25   C     C_R   0.470028 0.483107 0.896082 0.074271
C26   C     C_R   0.537480 0.387950 0.852656 -0.088858
C27   C     C_3   0.864762 0.342478 0.613830 -0.276944
C28   C     C_3   0.889017 0.332730 0.701237 -0.481779
C29   C     C_3   0.280742 0.646203 0.113653 -0.272646
C30   C     C_3   0.259937 0.782749 0.136048 -0.413335
C31   C     C_R   0.406295 0.568597 0.229065 -0.122207
C32   C     C_R   0.651842 0.499889 0.220506 -0.148573
C33   C     C_R   0.657737 0.520230 0.140261 -0.097251
C34   C     C_R   0.538199 0.564681 0.103981 0.064853
C35   C     C_2   0.477955 0.483073 0.980603 -0.161961
C36   C     C_2   0.544741 0.572171 0.018793 0.252407
Cu1   Cu    Cu3+1 0.357600 0.500140 0.499960 0.863608
Cu2   Cu    Cu3+1 0.642400 0.499860 0.500040 0.868719
H1    H     H_    0.342914 0.656824 0.748939 0.105632
H2    H     H_    0.718455 0.894259 0.447130 0.115728
H3    H     H_    0.718786 0.105248 0.447182 0.114878
H4    H     H_    0.309086 0.588717 0.263605 0.117789
H5    H     H_    0.708039 0.103470 0.552056 0.111005
H6    H     H_    0.464677 0.891245 0.627278 0.119061
H7    H     H_    0.465519 0.104968 0.627339 0.108171
H8    H     H_    0.899050 0.429351 0.382609 0.107424
H9    H     H_    0.875435 0.312183 0.455163 0.114738
H10   H     H_    0.116703 0.303557 0.473061 0.105709
H11   H     H_    0.141392 0.402614 0.389646 0.119159
H12   H     H_    0.754895 0.499045 0.106021 0.141381
H13   H     H_    0.882362 0.648444 0.414661 0.119256
H14   H     H_    0.129477 0.633097 0.407597 0.109292
H15   H     H_    0.865855 0.544283 0.618993 0.145978
H16   H     H_    0.745283 0.465122 0.247420 0.113965
H17   H     H_    0.125500 0.396060 0.604314 0.140922
H18   H     H_    0.105818 0.559553 0.615529 0.108235
H19   H     H_    0.882633 0.695654 0.513880 0.105517
H20   H     H_    0.124433 0.696225 0.503334 0.116990
H21   H     H_    0.591943 0.312848 0.881329 0.117647
H22   H     H_    0.591422 0.318359 0.738118 0.097365
H23   H     H_    0.320306 0.895923 0.425340 0.113208
H24   H     H_    0.428353 0.405681 0.013056 0.080223
H25   H     H_    0.339816 0.649617 0.892363 0.141624
H26   H     H_    0.003500 0.332269 0.712265 0.143954
H27   H     H_    0.837046 0.411806 0.733165 0.179509
H28   H     H_    0.843121 0.244197 0.725157 0.140537
H29   H     H_    0.752037 0.323625 0.608263 0.211952
H30   H     H_    0.924461 0.265689 0.583528 0.110369
H31   H     H_    0.803763 0.823646 0.004283 0.364165
H32   H     H_    0.243836 0.792133 0.200321 0.132622
H33   H     H_    0.354006 0.838025 0.114915 0.192143
H34   H     H_    0.490640 0.895155 0.372949 0.114192
H35   H     H_    0.164903 0.820873 0.108838 0.149514
H36   H     H_    0.286725 0.641168 0.049133 0.155698
H37   H     H_    0.185766 0.591950 0.134712 0.135701
H38   H     H_    0.491107 0.108820 0.372978 0.111294
H39   H     H_    0.320748 0.108514 0.425347 0.115196
H40   H     H_    0.304974 0.893746 0.575629 0.116777
H41   H     H_    0.305588 0.106408 0.575876 0.119956
H42   H     H_    0.707696 0.892719 0.552002 0.121917
N1    N     N_3   0.856560 0.499750 0.498270 -0.223470
N2    N     N_3   0.143860 0.496700 0.498910 -0.236107
O1    O     O_R   0.379740 0.682430 0.499960 -0.517235
O2    O     O_2   0.543526 0.794181 0.946664 -0.307582
O3    O     O_3   0.754746 0.755198 0.033980 -0.535993
O4    O     O_R   0.620260 0.682190 0.500020 -0.513353
O5    O     O_R   0.365800 0.500150 0.613560 -0.517579
O6    O     O_R   0.606310 0.499910 0.613620 -0.512571
O7    O     O_R   0.379740 0.317810 0.499980 -0.511650
O8    O     O_R   0.620260 0.317570 0.500040 -0.533511
O9    O     O_R   0.393690 0.500090 0.386380 -0.512224
O10   O     O_R   0.634200 0.499850 0.386440 -0.505903
O11   O     O_2   0.727896 0.645120 0.901291 -0.285542
S1    S     S_3+6 0.643667 0.694118 0.971681 -0.009119

loop_
_geom_bond_atom_site_label_1
_geom_bond_atom_site_label_2
_ccdc_geom_bond_type
C19   H18   S    
C15   C18   S    
C16   O8    A    
O11   S1    D    
C31   H4    S    
C13   N1    S    
C1    C8    S    
C35   C36   D    
C30   H33   S    
C18   H14   S    
C7    C8    S    
C15   N1    S    
C4    O5    A    
C7    C11   S    
C20   O10   A    
Cu1   Cu2   S    
Cu2   O4    S    
C23   C29   S    
C9    C16   S    
C13   H8    S    
C6    H40   S    
C14   H11   S    
Cu2   O10   S    
C2    C32   A    
C27   H30   S    
C17   C19   S    
C18   H20   S    
C7    H2    S    
C11   H5    S    
C15   H13   S    
C19   N2    S    
C9    C10   S    
C17   N1    S    
C16   O7    A    
C6    H6    S    
C13   C14   S    
C15   H19   S    
C32   H16   S    
C30   H32   S    
C3    H23   S    
C20   O9    A    
Cu1   O9    S    
C2    C20   S    
C17   C27   S    
C24   C25   A    
C3    C8    S    
C13   H9    S    
C30   H35   S    
C14   H10   S    
C29   H36   S    
C33   H12   S    
C12   C21   A    
C12   C26   A    
C2    C31   A    
C23   C31   A    
C28   H28   S    
C5    C9    S    
C29   C30   S    
O3    S1    S    
C23   C34   A    
C10   H7    S    
C33   C34   A    
O2    S1    D    
C9    C11   S    
C25   C35   S    
C4    O6    A    
C28   H26   S    
C24   H25   S    
Cu2   N1    S    
C22   C24   A    
Cu1   N2    S    
C14   N2    S    
C5    H39   S    
C17   H15   S    
H31   O3    S    
C26   H21   S    
C19   H17   S    
C1    O4    A    
Cu1   O5    S    
C3    C5    S    
C6    C10   S    
C6    C8    S    
C10   H41   S    
C29   H37   S    
C1    O1    A    
Cu2   O8    S    
Cu1   O7    S    
C32   C33   A    
C5    H38   S    
C28   H27   S    
C25   C26   A    
C4    C21   S    
C22   H1    S    
C18   N2    S    
C3    H34   S    
C35   H24   S    
C34   C36   S    
C27   H29   S    
C12   H22   S    
C36   S1    S    
C11   H3    S    
Cu2   O6    S    
C27   C28   S    
Cu1   O1    S    
C21   C22   A    
C7    H42   S    
