data_mof_unit_65596.cif
_audit_creation_date              2012-12-10T19:39:55-0500
_audit_creation_method            fapswitch 2.2
_symmetry_space_group_name_H-M    P1
_symmetry_Int_Tables_number       1
_space_group_crystal_system       triclinic
_cell_length_a                    15.85375
_cell_length_b                    16.996823
_cell_length_c                    19.310097
_cell_angle_alpha                 91.64686
_cell_angle_beta                  91.25265
_cell_angle_gamma                 94.63146
_cell_volume                      5182.70402827

loop_
_atom_site_label
_atom_site_type_symbol
_atom_type_description
_atom_site_fract_x
_atom_site_fract_y
_atom_site_fract_z
_atom_type_partial_charge
C1    C     C_R   0.490732 0.348601 0.499907 0.889583
C2    C     C_R   0.507472 0.900253 0.477354 0.184152
C3    C     C_R   0.430386 0.128204 0.478224 0.341131
C4    C     C_R   0.569613 0.871795 0.521778 0.341131
C5    C     C_R   0.429422 0.210498 0.469102 0.252707
C6    C     C_R   0.570577 0.789502 0.530900 0.252707
C7    C     C_R   0.757020 0.472145 0.458366 0.556047
C8    C     C_R   0.242980 0.527855 0.541634 0.556048
C9    C     C_R   0.845586 0.476655 0.461122 -0.263877
C10   C     C_R   0.154415 0.523344 0.538878 -0.263877
C11   C     C_R   0.891183 0.516883 0.516176 0.222666
C12   C     C_R   0.509268 0.651399 0.500093 0.889584
C13   C     C_R   0.108817 0.483117 0.483824 0.222665
C14   C     C_R   0.844552 0.555218 0.566480 0.285728
C15   C     C_R   0.155448 0.444782 0.433520 0.285727
C16   C     C_R   0.500929 0.501199 0.367510 0.807451
C17   C     C_R   0.499071 0.498801 0.632490 0.807454
C18   C     C_R   0.755307 0.551191 0.561330 -0.029988
C19   C     C_R   0.244692 0.448809 0.438670 -0.029987
C20   C     C_R   0.439490 0.453014 0.254423 -0.170687
C21   C     C_R   0.560513 0.546982 0.745577 -0.170687
C22   C     C_R   0.439837 0.445893 0.182329 0.454724
C23   C     C_R   0.488428 0.262795 0.506498 -0.238170
C24   C     C_R   0.560167 0.554104 0.817671 0.454722
C25   C     C_R   0.503290 0.489841 0.145796 -0.155344
C26   C     C_R   0.496710 0.510162 0.854204 -0.155344
C27   C     C_R   0.567019 0.536464 0.182902 -0.149999
C28   C     C_R   0.432978 0.463542 0.817099 -0.150002
C29   C     C_R   0.566669 0.543654 0.255026 0.437753
C30   C     C_R   0.433327 0.456352 0.744974 0.437752
C31   C     C_R   0.502510 0.500525 0.291466 -0.236360
C32   C     C_R   0.497490 0.499475 0.708534 -0.236363
C33   C     C_R   0.498618 0.506782 0.930276 0.410584
C34   C     C_R   0.511572 0.737205 0.493503 -0.238168
C35   C     C_R   0.501382 0.493221 0.069725 0.410581
C36   C     C_R   0.546616 0.233532 0.552682 -0.259115
C37   C     C_R   0.453385 0.766468 0.447318 -0.259116
C38   C     C_R   0.548796 0.153034 0.561875 0.368651
C39   C     C_R   0.451206 0.846966 0.438125 0.368652
C40   C     C_R   0.492528 0.099747 0.522647 0.184150
Cl1   Cl    Cl    0.896472 0.608390 0.636613 -0.470200
Cl2   Cl    Cl    0.103528 0.391610 0.363387 -0.470200
Cl3   Cl    Cl    0.359631 0.247649 0.407402 -0.561436
Cl4   Cl    Cl    0.640367 0.752350 0.592600 -0.561439
Cu1   Cu    Cu3+1 0.415220 0.496180 0.496660 0.997483
Cu2   Cu    Cu3+1 0.584780 0.503820 0.503340 0.997483
H1    H     H_    0.390932 0.418764 0.281879 0.211398
H2    H     H_    0.590842 0.273861 0.582546 0.211762
H3    H     H_    0.399502 0.376183 0.105117 0.345935
H4    H     H_    0.600505 0.623815 0.894881 0.345934
H5    H     H_    0.606560 0.614711 0.331572 0.332789
H6    H     H_    0.393434 0.385294 0.668430 0.332789
H7    H     H_    0.399397 0.928611 0.386483 0.383511
H8    H     H_    0.600606 0.071390 0.613517 0.383510
H9    H     H_    0.326786 0.100614 0.422553 0.390793
H10   H     H_    0.673207 0.899386 0.577457 0.390795
H11   H     H_    0.335254 0.596185 0.580385 0.366382
H12   H     H_    0.609074 0.581229 0.718121 0.211398
H13   H     H_    0.664746 0.403814 0.419615 0.366382
H14   H     H_    0.122000 0.553265 0.579437 0.231350
H15   H     H_    0.877999 0.446735 0.420563 0.231350
H16   H     H_    0.720528 0.581289 0.600166 0.212526
H17   H     H_    0.279471 0.418711 0.399834 0.212526
H18   H     H_    0.615307 0.571043 0.155470 0.202893
H19   H     H_    0.384687 0.428968 0.844531 0.202895
H20   H     H_    0.409160 0.726140 0.417452 0.211761
N1    N     N_R   0.574551 0.498644 0.034382 -0.196640
N2    N     N_2   0.017885 0.480291 0.477450 -0.149075
N3    N     N_R   0.425450 0.501358 0.965618 -0.196642
N4    N     N_R   0.573147 0.504714 0.965852 -0.182701
N5    N     N_R   0.426854 0.495288 0.034148 -0.182703
N6    N     N_2   0.498986 0.017651 0.528668 -0.143030
N7    N     N_2   0.501015 0.982349 0.471333 -0.143030
N8    N     N_R   0.712130 0.509560 0.508360 -0.256057
N9    N     N_R   0.287870 0.490440 0.491640 -0.256058
N10   N     N_2   0.982115 0.519709 0.522550 -0.149075
O1    O     O_R   0.420530 0.382500 0.496880 -0.529939
O2    O     O_3   0.621478 0.605826 0.849695 -0.658787
O3    O     O_3   0.627996 0.595457 0.286974 -0.669662
O4    O     O_3   0.371997 0.404552 0.713027 -0.669658
O5    O     O_3   0.391683 0.870758 0.391502 -0.659435
O6    O     O_3   0.608321 0.129243 0.608497 -0.659435
O7    O     O_3   0.372201 0.073639 0.445446 -0.675481
O8    O     O_3   0.627797 0.926361 0.554558 -0.675485
O9    O     O_3   0.281733 0.570796 0.596468 -0.677625
O10   O     O_3   0.718267 0.429204 0.403532 -0.677627
O11   O     O_R   0.579470 0.617500 0.503120 -0.529938
O12   O     O_R   0.563720 0.388950 0.502520 -0.620659
O13   O     O_R   0.436280 0.611050 0.497480 -0.620659
O14   O     O_R   0.428380 0.496760 0.397320 -0.583777
O15   O     O_R   0.571620 0.503240 0.602680 -0.583778
O16   O     O_R   0.571570 0.503220 0.402960 -0.559947
O17   O     O_R   0.428430 0.496780 0.597040 -0.559947
O18   O     O_3   0.378529 0.394167 0.150305 -0.658789

loop_
_geom_bond_atom_site_label_1
_geom_bond_atom_site_label_2
_ccdc_geom_bond_type
C30   C32   A    
C16   O14   A    
C27   C29   A    
C34   C37   A    
C1    O1    A    
C14   C18   A    
C10   H14   S    
C5    C23   A    
C17   O15   A    
H8    O6    S    
Cu1   O17   S    
C19   N9    A    
Cu1   Cu2   S    
C16   C31   S    
C15   C19   A    
C9    H15   S    
C24   C26   A    
C11   N10   S    
C11   C14   A    
C7    O10   S    
Cu2   O16   S    
H7    O5    S    
C8    O9    S    
N3    N5    A    
C2    C39   A    
C19   H17   S    
C22   C25   A    
C4    O8    S    
H3    O18   S    
Cu1   O13   S    
C33   N3    A    
C30   O4    S    
C1    O12   A    
C5    Cl3   S    
C35   N5    A    
C18   N8    A    
C6    Cl4   S    
C38   O6    S    
C22   O18   S    
H4    O2    S    
H10   O8    S    
C7    N8    A    
Cu2   O12   S    
C21   C32   A    
C12   O13   A    
C39   O5    S    
C4    C6    A    
C18   H16   S    
Cu2   O15   S    
C8    N9    A    
C6    C34   A    
C2    C4    A    
C26   C33   S    
C29   O3    S    
C35   N1    A    
C37   H20   S    
Cu1   O14   S    
C9    C11   A    
C2    N7    S    
C33   N4    A    
C25   C35   S    
C14   Cl1   S    
C24   O2    S    
C20   C22   A    
C3    C40   A    
C1    C23   S    
C13   C15   A    
C3    O7    S    
C25   C27   A    
C12   C34   S    
Cu2   N8    S    
Cu2   O11   S    
C7    C9    A    
C40   N6    S    
C12   O11   A    
C8    C10   A    
C15   Cl2   S    
N6    N7    D    
C3    C5    A    
C10   C13   A    
C16   O16   A    
N2    N10   D    
C26   C28   A    
Cu1   N9    S    
N1    N4    A    
C28   C30   A    
C28   H19   S    
H13   O10   S    
C21   H12   S    
C37   C39   A    
C38   C40   A    
C36   C38   A    
H11   O9    S    
C36   H2    S    
H5    O3    S    
C20   H1    S    
C27   H18   S    
C17   O17   A    
C29   C31   A    
C23   C36   A    
C21   C24   A    
C17   C32   S    
Cu1   O1    S    
H6    O4    S    
H9    O7    S    
C13   N2    S    
C20   C31   A    
