data_mof_unit_50661.cif
_audit_creation_date              2012-12-10T17:05:22-0500
_audit_creation_method            fapswitch 2.2
_symmetry_space_group_name_H-M    P1
_symmetry_Int_Tables_number       1
_space_group_crystal_system       triclinic
_cell_length_a                    10.116446
_cell_length_b                    10.598235
_cell_length_c                    15.451333
_cell_angle_alpha                 89.341128
_cell_angle_beta                  66.709142
_cell_angle_gamma                 91.050058
_cell_volume                      1521.06466868

loop_
_atom_site_label
_atom_site_type_symbol
_atom_type_description
_atom_site_fract_x
_atom_site_fract_y
_atom_site_fract_z
_atom_type_partial_charge
C1    C     C_R   0.504282 0.737576 0.495604 0.856500
C2    C     C_R   0.722141 0.590992 0.033321 -0.410102
C3    C     C_R   0.585212 0.535762 0.087130 -0.164458
C4    C     C_R   0.409141 0.501252 0.676201 0.907705
C5    C     C_R   0.819626 0.614740 0.076363 0.624810
C6    C     C_R   0.780853 0.582783 0.171363 0.500671
C7    C     C_R   0.562134 0.482547 0.175305 0.648226
C8    C     C_2   0.536134 0.062204 0.573802 0.306125
C9    C     C_2   0.461058 0.132001 0.537356 0.366219
C10   C     C_2   0.509024 0.925357 0.574150 0.443771
C11   C     C_2   0.512886 0.871969 0.494893 0.252133
C12   C     C_R   0.411588 0.530984 0.914501 0.010568
C13   C     C_2   0.086791 0.404758 0.475177 0.572401
C14   C     C_2   0.925652 0.400363 0.500501 0.566173
C15   C     C_R   0.491549 0.262916 0.510167 0.845997
C16   C     C_R   0.591461 0.500453 0.323638 0.945987
C17   C     C_R   0.351522 0.503323 0.778875 -0.176151
C18   C     C_R   0.650811 0.516414 0.221109 -0.448800
C19   C     C_R   0.180579 0.434445 0.932412 -0.090149
C20   C     C_R   0.224271 0.438769 0.834921 0.618183
C21   C     C_R   0.436830 0.558803 0.820558 -0.181888
C22   C     C_3   0.697138 0.036890 0.648865 0.193262
C23   C     C_R   0.274113 0.479489 0.972812 -0.164453
C24   C     C_3   0.601376 0.033645 0.754700 -0.385432
C25   C     C_3   0.653555 0.937279 0.807579 -0.805232
C26   C     C_3   0.474796 0.925985 0.360919 0.123177
C27   C     C_3   0.549275 0.852790 0.270703 -0.372995
C28   C     C_3   0.453395 0.838598 0.215859 -0.872512
C29   C     C_3   0.140227 0.242060 0.366143 0.166147
C30   C     C_3   0.097428 0.103001 0.391874 -0.351528
C31   C     C_3   0.068957 0.036011 0.313835 -0.833284
C32   C     C_3   0.743266 0.441190 0.772293 0.045530
C33   C     C_3   0.885322 0.393271 0.771414 -0.236544
C34   C     C_R   0.518691 0.549777 0.951703 -0.196303
C35   C     C_3   0.913470 0.259176 0.735061 -0.852713
C36   C     C_R   0.477836 0.530447 0.050023 -0.154275
C37   C     C_R   0.330362 0.508383 0.108650 0.638190
C38   C     C_R   0.232489 0.474686 0.070087 0.576776
C39   C     C_R   0.666904 0.579083 0.894711 0.378226
C40   C     C_R   0.760953 0.613735 0.937038 0.670196
F1    F     F_    0.095821 0.440067 0.128280 -0.604538
F2    F     F_    0.896393 0.654900 0.881138 -0.571801
F3    F     F_    0.147780 0.374006 0.795134 -0.704468
F4    F     F_    0.277943 0.525358 0.203218 -0.588965
F5    F     F_    0.949410 0.672875 0.028236 -0.558485
F6    F     F_    0.340566 0.081023 0.530377 -0.680607
F7    F     F_    0.471898 0.855396 0.655313 -0.699738
F8    F     F_    0.061142 0.580888 0.558788 -0.548849
F9    F     F_    0.856614 0.286658 0.521209 -0.696974
F10   F     F_    0.930678 0.601114 0.454944 -0.515564
F11   F     F_    0.459427 0.390744 0.214950 -0.637626
F12   F     F_    0.868587 0.618664 0.214662 -0.542412
H1    H     H_    0.078287 0.389012 0.975343 0.193719
H2    H     H_    0.453720 0.022356 0.341097 0.195972
H3    H     H_    0.367322 0.881515 0.403820 0.174501
H4    H     H_    0.651341 0.902783 0.225532 0.259703
H5    H     H_    0.575483 0.758106 0.289334 0.210539
H6    H     H_    0.354436 0.782353 0.257873 0.308613
H7    H     H_    0.512507 0.789415 0.149066 0.267429
H8    H     H_    0.422899 0.932769 0.198501 0.260247
H9    H     H_    0.241260 0.246168 0.301676 0.225694
H10   H     H_    0.057983 0.289672 0.346901 0.158795
H11   H     H_    0.185372 0.054921 0.404039 0.247923
H12   H     H_    0.525174 0.619722 0.777162 0.239848
H13   H     H_    0.999178 0.095120 0.458037 0.279309
H14   H     H_    0.978107 0.080095 0.302532 0.287988
H15   H     H_    0.040344 0.935207 0.334238 0.302965
H16   H     H_    0.166582 0.041027 0.247054 0.254825
H17   H     H_    0.745755 0.434472 0.700102 0.209074
H18   H     H_    0.651927 0.378727 0.818258 0.121525
H19   H     H_    0.974780 0.456949 0.725742 0.316096
H20   H     H_    0.881423 0.393801 0.844241 0.243618
H21   H     H_    0.827431 0.193908 0.781800 0.243156
H22   H     H_    0.017682 0.226810 0.733921 0.330266
H23   H     H_    0.804561 0.075100 0.639682 0.178938
H24   H     H_    0.918838 0.255816 0.662258 0.274656
H25   H     H_    0.719387 0.941025 0.618720 0.173455
H26   H     H_    0.601913 0.128803 0.783944 0.204190
H27   H     H_    0.488171 0.009709 0.766741 0.283139
H28   H     H_    0.647553 0.840865 0.781716 0.300828
H29   H     H_    0.584302 0.938983 0.884025 0.256874
H30   H     H_    0.766395 0.959680 0.797601 0.271431
N1    N     N_2   0.148330 0.498670 0.499030 0.138118
N2    N     N_2   0.852680 0.498640 0.499000 0.141986
O1    O     O_R   0.386950 0.680940 0.500010 -0.594769
O2    O     O_3   0.567310 0.938829 0.409393 -0.679518
O3    O     O_3   0.169173 0.299220 0.439492 -0.624493
O4    O     O_3   0.726088 0.569937 0.797562 -0.607935
O5    O     O_R   0.613110 0.680900 0.499990 -0.558792
O6    O     O_R   0.322330 0.500030 0.632270 -0.544577
O7    O     O_R   0.548480 0.499990 0.632240 -0.634298
O8    O     O_R   0.386890 0.319100 0.500010 -0.547066
O9    O     O_R   0.613050 0.319060 0.499990 -0.560016
O10   O     O_R   0.451520 0.500010 0.367760 -0.556247
O11   O     O_R   0.677670 0.499970 0.367730 -0.542850
O12   O     O_3   0.640769 0.118813 0.599583 -0.618935
Zn1   Zn    Zn3+2 0.349000 0.500030 0.500020 1.154850
Zn2   Zn    Zn3+2 0.651000 0.499970 0.499980 1.149103

loop_
_geom_bond_atom_site_label_1
_geom_bond_atom_site_label_2
_ccdc_geom_bond_type
C31   H14   S    
C35   H22   S    
C25   H28   S    
C19   C20   A    
C8    O12   S    
C14   N2    D    
C26   H3    S    
O11   Zn2   S    
F10   N2    S    
C31   H15   S    
C12   C23   A    
C26   C27   S    
C29   C30   S    
C22   H23   S    
C36   C37   A    
C3    C7    A    
C30   C31   S    
C14   F9    S    
C11   O2    S    
C32   O4    S    
C17   C20   A    
C21   H12   S    
C33   H20   S    
C15   O8    A    
C8    C9    D    
C1    C11   S    
O6    Zn1   S    
C4    O7    A    
C19   H1    S    
C40   F2    S    
C9    F6    S    
C30   H11   S    
C25   H29   S    
C39   O4    S    
C26   H2    S    
O8    Zn1   S    
C4    O6    A    
C28   H8    S    
C1    O1    A    
C31   H16   S    
C6    C18   A    
C29   H9    S    
C35   H24   S    
C34   C39   A    
C24   C25   S    
C38   F1    S    
C27   H5    S    
C39   C40   A    
C27   H4    S    
C32   H18   S    
O10   Zn1   S    
C5    F5    S    
C12   C21   A    
C17   C21   A    
C19   C23   A    
C37   C38   A    
C24   H27   S    
C26   O2    S    
C7    C18   A    
C13   O3    S    
C4    C17   S    
C24   H26   S    
C25   H30   S    
C22   C24   S    
C2    C5    A    
C12   C34   A    
C27   C28   S    
C20   F3    S    
C28   H7    S    
C29   H10   S    
C35   H21   S    
C16   O11   A    
C1    O5    A    
C22   O12   S    
C8    C10   S    
C22   H25   S    
C15   O9    A    
C32   H17   S    
C28   H6    S    
C23   C38   A    
C13   N1    D    
C16   O10   A    
F8    N1    S    
O5    Zn2   S    
N2    Zn2   S    
C32   C33   S    
C37   F4    S    
C2    C3    A    
C9    C15   S    
C7    F11   S    
C5    C6    A    
C3    C36   A    
C33   C35   S    
C34   C36   A    
O7    Zn2   S    
C29   O3    S    
C30   H13   S    
O1    Zn1   S    
C10   C11   D    
C33   H19   S    
C2    C40   A    
C16   C18   S    
N1    Zn1   S    
C10   F7    S    
C6    F12   S    
C13   C14   S    
O9    Zn2   S    
