data_mof_unit_59431.cif
_audit_creation_date              2012-12-10T20:27:16-0500
_audit_creation_method            fapswitch 2.2
_symmetry_space_group_name_H-M    P1
_symmetry_Int_Tables_number       1
_space_group_crystal_system       triclinic
_cell_length_a                    10.866183
_cell_length_b                    10.680517
_cell_length_c                    9.863778
_cell_angle_alpha                 89.882812
_cell_angle_beta                  104.161225
_cell_angle_gamma                 90.078117
_cell_volume                      1109.96451732

loop_
_atom_site_label
_atom_site_type_symbol
_atom_type_description
_atom_site_fract_x
_atom_site_fract_y
_atom_site_fract_z
_atom_type_partial_charge
C1    C     C_R   0.504144 0.259917 0.501252 0.857628
C2    C     C_R   0.525317 0.128655 0.506721 -0.133184
C3    C     C_R   0.539361 0.065046 0.387124 -0.197960
C4    C     C_R   0.539789 0.935703 0.386938 -0.222721
C5    C     C_R   0.524885 0.871384 0.506003 -0.074090
C6    C     C_R   0.534817 0.935709 0.630786 0.029143
C7    C     C_3   0.456835 0.926534 0.736214 -0.509664
C8    C     C_3   0.458138 0.068840 0.738503 0.344645
C9    C     C_R   0.441765 0.405817 0.056051 0.220646
C10   C     C_R   0.567929 0.586035 0.090097 -0.136522
C11   C     C_R   0.568127 0.585893 0.946134 -0.149886
C12   C     C_R   0.259396 0.497741 0.441200 0.949418
C13   C     C_R   0.440714 0.406549 0.913215 0.287653
C14   C     C_3   0.302730 0.376145 0.872833 -0.482469
C15   C     C_3   0.305111 0.372158 0.027117 -0.503126
C16   C     C_R   0.503985 0.740070 0.500868 0.890631
C17   C     C_R   0.740922 0.495023 0.558631 0.778268
C18   C     C_2   0.123169 0.496524 0.405951 -0.413444
C19   C     C_2   0.066040 0.461648 0.504247 -0.109163
C20   C     C_2   0.877317 0.473209 0.591617 0.306406
C21   C     C_2   0.933668 0.487428 0.486465 -0.239529
C22   C     C_R   0.536781 0.063666 0.631719 -0.028242
H1    H     H_    0.881525 0.520003 0.383826 0.155438
H2    H     H_    0.620680 0.657034 0.158467 0.146223
H3    H     H_    0.621178 0.656637 0.905923 0.151501
H4    H     H_    0.245121 0.455208 0.817937 0.229076
H5    H     H_    0.283643 0.283709 0.820586 0.203388
H6    H     H_    0.246586 0.446570 0.059113 0.222206
H7    H     H_    0.290732 0.276561 0.065326 0.210316
H8    H     H_    0.119127 0.420870 0.601741 0.210583
H9    H     H_    0.070608 0.531989 0.304944 0.157417
H10   H     H_    0.540136 0.114055 0.291163 0.179562
H11   H     H_    0.541824 0.887351 0.291054 0.167807
H12   H     H_    0.360927 0.886513 0.691789 0.176531
H13   H     H_    0.510058 0.882334 0.835359 0.209459
H14   H     H_    0.362561 0.109741 0.694858 0.091453
N1    N     N_R   0.499160 0.499140 0.142600 -0.111768
N2    N     N_R   0.499160 0.499180 0.856960 -0.120101
O1    O     O_R   0.500020 0.316790 0.614700 -0.623191
O2    O     O_R   0.500000 0.316760 0.385350 -0.615014
O3    O     O_R   0.317820 0.500020 0.571850 -0.614958
O4    O     O_R   0.317800 0.499980 0.342510 -0.612865
O5    O     O_R   0.500000 0.683240 0.614650 -0.610934
O6    O     O_R   0.499980 0.683210 0.385300 -0.624083
O7    O     O_R   0.682200 0.500020 0.657490 -0.616838
O8    O     O_R   0.682180 0.499980 0.428150 -0.635432
Zn1   Zn    Zn3+2 0.500010 0.500020 0.653140 0.942025
Zn2   Zn    Zn3+2 0.499990 0.499980 0.346860 0.938009
O9    O     O_3   0.514951 0.118117 0.873966 -0.598813
C23   C     C_3   0.649142 0.123340 0.906149 0.140210
H15   H     H_    0.680240 0.195759 0.840776 0.142119
H16   H     H_    0.690799 0.031108 0.889919 0.137933
C24   C     C_3   0.699420 0.158878 0.058891 -0.864135
H17   H     H_    0.672096 0.086326 0.126780 0.250716
H18   H     H_    0.804531 0.165586 0.084165 0.210656
H19   H     H_    0.660455 0.250755 0.080002 0.254122
O10   O     O_3   0.947405 0.437296 0.724067 -0.615533
C25   C     C_3   0.889794 0.334477 0.775340 0.123824
H20   H     H_    0.838146 0.270927 0.690467 0.109687
H21   H     H_    0.823374 0.369280 0.836238 0.175043
C26   C     C_3   0.991091 0.257239 0.873525 -0.863342
H22   H     H_    0.039523 0.314869 0.964480 0.265828
H23   H     H_    0.946739 0.175127 0.912000 0.202315
H24   H     H_    0.061495 0.223198 0.817469 0.259120

loop_
_geom_bond_atom_site_label_1
_geom_bond_atom_site_label_2
_ccdc_geom_bond_type
C2    C22   A    
C11   N2    A    
C8    C22   S    
C24   H17   S    
C6    C7    S    
C20   O10   S    
C14   H5    S    
C26   H24   S    
C16   O6    A    
C23   H16   S    
C10   H2    S    
C17   C20   S    
C25   C26   S    
C9    N1    A    
C2    C3    A    
O3    Zn1   S    
C7    C8    S    
O4    Zn2   S    
C13   C14   S    
C14   H4    S    
N1    Zn2   S    
C19   H8    S    
C16   O5    A    
N2    Zn1   S    
C3    H10   S    
C12   O4    A    
C7    H13   S    
C10   N1    A    
C5    C6    A    
C19   C21   S    
C17   O7    A    
C15   H7    S    
C25   H21   S    
O10   C25   S    
C24   H18   S    
C21   H1    S    
C9    C15   S    
C26   H22   S    
O9    C23   S    
O8    Zn2   S    
C24   H19   S    
C23   C24   S    
C10   C11   A    
C1    O1    A    
C15   H6    S    
C3    C4    A    
C6    C22   A    
C7    H12   S    
C17   O8    A    
C12   O3    A    
O1    Zn1   S    
C1    C2    S    
C8    H14   S    
O7    Zn1   S    
C12   C18   S    
O2    Zn2   S    
C11   H3    S    
C4    H11   S    
C18   C19   D    
C5    C16   S    
C9    C13   A    
C18   H9    S    
C1    O2    A    
C23   H15   S    
C20   C21   D    
C14   C15   S    
C25   H20   S    
O5    Zn1   S    
C8    O9    S    
C26   H23   S    
C13   N2    A    
O6    Zn2   S    
C4    C5    A    
