data_mof_unit_62367.cif
_audit_creation_date              2012-12-10T18:16:56-0500
_audit_creation_method            fapswitch 2.2
_symmetry_space_group_name_H-M    P1
_symmetry_Int_Tables_number       1
_space_group_crystal_system       triclinic
_cell_length_a                    15.901711
_cell_length_b                    15.93239
_cell_length_c                    14.693167
_cell_angle_alpha                 90.277824
_cell_angle_beta                  90.427884
_cell_angle_gamma                 90.009766
_cell_volume                      3722.39944025

loop_
_atom_site_label
_atom_site_type_symbol
_atom_type_description
_atom_site_fract_x
_atom_site_fract_y
_atom_site_fract_z
_atom_type_partial_charge
C1    C     C_R   0.500006 0.339976 0.499821 0.819252
C2    C     C_3   0.083360 0.499762 0.499141 -0.201191
C3    C     C_3   0.972856 0.567439 0.540779 0.329382
C4    C     C_3   0.916632 0.498566 0.500241 -0.162085
C5    C     C_3   0.027600 0.568068 0.454422 -0.314740
C6    C     C_3   0.971229 0.497315 0.414123 0.332440
C7    C     C_1   0.174768 0.499947 0.498800 0.183022
C8    C     C_1   0.825214 0.499214 0.500950 0.224399
C9    C     C_3   0.523980 0.051335 0.601607 0.478919
C10   C     C_3   0.567619 0.048583 0.431225 0.607217
C11   C     C_3   0.559054 0.950437 0.424520 0.023212
C12   C     C_R   0.339544 0.500006 0.499641 0.802200
C13   C     C_1   0.500205 0.749309 0.500772 -0.066197
C14   C     C_3   0.500410 0.083212 0.501961 -0.320345
C15   C     C_3   0.530551 0.951318 0.599000 0.678376
C16   C     C_3   0.500892 0.916772 0.502367 -0.310223
C17   C     C_3   0.410444 0.949508 0.477255 0.057652
C18   C     C_3   0.409255 0.048663 0.475083 0.681146
C19   C     C_1   0.500489 0.824564 0.501361 0.208608
C20   C     C_1   0.500235 0.175490 0.500258 0.180086
C21   C     C_1   0.500106 0.250726 0.499565 -0.050748
C22   C     C_3   0.514409 0.589778 0.055264 0.099891
C23   C     C_R   0.500004 0.660035 0.500201 0.807427
C24   C     C_3   0.411680 0.469461 0.052024 0.530371
C25   C     C_3   0.412584 0.474496 0.944149 0.104295
C26   C     C_3   0.500092 0.498124 0.092236 -0.422280
C27   C     C_3   0.524040 0.590810 0.948129 0.657884
C28   C     C_3   0.501996 0.500696 0.907765 -0.413929
C29   C     C_3   0.567216 0.433618 0.945273 0.510213
C30   C     C_3   0.572007 0.437900 0.054253 0.552126
C31   C     C_1   0.501894 0.501239 0.804606 0.430167
C32   C     C_1   0.498782 0.498361 0.195399 0.433598
C33   C     C_R   0.660453 0.499979 0.500355 0.826872
C34   C     C_3   0.973052 0.431202 0.544244 0.246291
C35   C     C_3   0.027920 0.429802 0.457939 0.311750
C36   C     C_1   0.250103 0.499998 0.498942 -0.072881
C37   C     C_1   0.749886 0.499636 0.501000 -0.044212
C38   C     C_3   0.029153 0.500926 0.585628 0.300487
Cu1   Cu    Cu3+1 0.499890 0.499910 0.589920 1.104797
Cu2   Cu    Cu3+1 0.500110 0.500090 0.410080 1.103653
H1    H     H_    0.527007 0.935195 0.358910 0.197111
H2    H     H_    0.395471 0.926971 0.406702 0.190724
H3    H     H_    0.457253 0.626662 0.071598 0.233089
H4    H     H_    0.396986 0.411577 0.916303 0.216601
H5    H     H_    0.050155 0.624660 0.418207 0.233112
N1    N     N_1   0.501700 0.501390 0.724970 -0.130656
N2    N     N_1   0.498280 0.498620 0.275030 -0.127778
O1    O     O_R   0.499910 0.379360 0.575970 -0.556679
O2    O     O_R   0.500090 0.379510 0.424100 -0.561533
O3    O     O_R   0.378990 0.499920 0.575920 -0.558928
O4    O     O_R   0.379170 0.500070 0.424050 -0.558424
O5    O     O_R   0.499910 0.620490 0.575900 -0.561868
O6    O     O_R   0.500090 0.620640 0.424030 -0.558319
O7    O     O_R   0.620830 0.499930 0.575950 -0.547715
O8    O     O_R   0.621010 0.500080 0.424080 -0.551607
Cl1   Cl    Cl    0.065774 0.337870 0.402181 -0.332996
O9    O     O_3   0.649480 0.075068 0.455406 -0.570398
H6    H     H_    0.675804 0.034167 0.497020 0.401556
Cl2   Cl    Cl    0.657058 0.895120 0.409460 -0.366714
O10   O     O_3   0.346483 0.084245 0.531597 -0.637840
H7    H     H_    0.336780 0.049662 0.586105 0.410209
O11   O     O_3   0.388682 0.071992 0.385236 -0.637477
H8    H     H_    0.376269 0.133080 0.384886 0.386267
O12   O     O_3   0.347824 0.915831 0.533750 -0.690879
H9    H     H_    0.334677 0.858345 0.511430 0.355469
O13   O     O_3   0.461381 0.075167 0.664015 -0.671574
H10   H     H_    0.459978 0.137360 0.667904 0.384123
O14   O     O_3   0.483172 0.914377 0.669286 -0.588623
H11   H     H_    0.424415 0.934190 0.666778 0.395459
O15   O     O_3   0.466809 0.650793 0.914260 -0.596557
H12   H     H_    0.480799 0.661865 0.849671 0.379623
Cl3   Cl    Cl    0.936413 0.340937 0.603069 -0.312640
Cl4   Cl    Cl    0.385072 0.364374 0.085499 -0.363654
Cl5   Cl    Cl    0.327920 0.531026 0.101319 -0.385782
Cl6   Cl    Cl    0.328748 0.536233 0.895157 -0.355342
Cl7   Cl    Cl    0.674260 0.472682 0.094742 -0.376188
O16   O     O_3   0.562115 0.356237 0.089226 -0.564105
H13   H     H_    0.573962 0.357629 0.155612 0.370006
Cl8   Cl    Cl    0.668490 0.444140 0.891514 -0.345917
Cl9   Cl    Cl    0.591994 0.650955 0.116351 -0.384539
O17   O     O_3   0.605213 0.616385 0.921035 -0.611270
H14   H     H_    0.647852 0.592795 0.962839 0.404967
Cl10  Cl    Cl    0.931946 0.494418 0.300315 -0.328582
Cl11  Cl    Cl    0.537060 0.329668 0.906842 -0.349297
O18   O     O_3   0.942133 0.639074 0.584616 -0.597105
H15   H     H_    0.992597 0.672360 0.601506 0.372838
Cl12  Cl    Cl    0.067902 0.505010 0.699645 -0.344025
Cl13  Cl    Cl    0.635815 0.914727 0.622725 -0.336355
Cl14  Cl    Cl    0.618597 0.101453 0.646107 -0.357207
Cl15  Cl    Cl    0.552323 0.091651 0.319071 -0.359480

loop_
_geom_bond_atom_site_label_1
_geom_bond_atom_site_label_2
_ccdc_geom_bond_type
C2    C35   S    
C33   O8    A    
Cu2   N2    S    
C1    C21   S    
C3    O18   S    
C7    C36   T    
C14   C18   S    
C2    C7    S    
C4    C8    S    
O17   H14   S    
C23   O5    A    
O16   H13   S    
C25   C28   S    
C26   C32   S    
O11   H8    S    
C28   C29   S    
C24   C26   S    
C17   O12   S    
C5    C6    S    
C24   Cl4   S    
Cu1   O7    S    
Cu2   O2    S    
C6    C35   S    
C13   C23   S    
C34   C35   S    
C9    O13   S    
C17   H2    S    
C30   O16   S    
C3    C38   S    
O14   H11   S    
C31   N1    T    
C11   H1    S    
O15   H12   S    
C12   C36   S    
O13   H10   S    
C11   Cl2   S    
C25   H4    S    
C23   O6    A    
C4    C34   S    
C13   C19   T    
C14   C20   S    
C27   O17   S    
C10   O9    S    
C24   C25   S    
C29   Cl11  S    
C4    C6    S    
C10   C14   S    
C9    Cl14  S    
Cu1   Cu2   S    
C18   O11   S    
O18   H15   S    
C5    H5    S    
C33   C37   S    
O10   H7    S    
C25   Cl6   S    
C9    C14   S    
C29   C30   S    
C30   Cl7   S    
C11   C16   S    
C2    C38   S    
C22   H3    S    
C29   Cl8   S    
Cu2   O8    S    
C17   C18   S    
C27   O15   S    
Cu1   N1    S    
C18   O10   S    
C26   C30   S    
C22   C27   S    
C32   N2    T    
C2    C5    S    
C8    C37   T    
C3    C4    S    
C34   Cl3   S    
C12   O4    A    
C33   O7    A    
C6    Cl10  S    
C35   Cl1   S    
C34   C38   S    
C28   C31   S    
C3    C5    S    
C12   O3    A    
C1    O1    A    
Cu2   O4    S    
C38   Cl12  S    
O12   H9    S    
C9    C15   S    
C22   Cl9   S    
C24   Cl5   S    
O9    H6    S    
C16   C17   S    
C16   C19   S    
C15   O14   S    
Cu1   O5    S    
C10   C11   S    
Cu1   O3    S    
C20   C21   T    
C10   Cl15  S    
Cu2   O6    S    
C22   C26   S    
C27   C28   S    
C15   Cl13  S    
C1    O2    A    
C15   C16   S    
Cu1   O1    S    
