data_mof_unit_37852.cif
_audit_creation_date              2012-12-11T17:45:31-0500
_audit_creation_method            fapswitch 2.2
_symmetry_space_group_name_H-M    P1
_symmetry_Int_Tables_number       1
_space_group_crystal_system       triclinic
_cell_length_a                    14.999958
_cell_length_b                    14.903262
_cell_length_c                    15.111958
_cell_angle_alpha                 110.249984
_cell_angle_beta                  109.15655
_cell_angle_gamma                 109.156493
_cell_volume                      2595.5382428

loop_
_atom_site_label
_atom_site_type_symbol
_atom_type_description
_atom_site_fract_x
_atom_site_fract_y
_atom_site_fract_z
_atom_type_partial_charge
C1    C     C_R   0.904983 0.192419 0.989248 -0.156424
C2    C     C_R   0.294969 0.872430 0.297384 0.064255
C3    C     C_R   0.324802 0.500456 0.052103 0.017232
C4    C     C_R   0.037511 0.495906 0.321297 0.056448
C5    C     C_R   0.699516 0.407949 0.002201 -0.018398
C6    C     C_R   0.089638 0.590897 0.789114 -0.140900
C7    C     C_R   0.779640 0.248278 0.686760 -0.116930
C8    C     C_R   0.932793 0.748651 0.026821 -0.135536
C9    C     C_R   0.026627 0.751507 0.938001 -0.123134
C10   C     C_R   0.684950 0.240348 0.774858 -0.112357
C11   C     C_R   0.789055 0.591345 0.092804 -0.165314
C12   C     C_R   0.294515 0.806679 0.205645 -0.131891
C13   C     C_R   0.004891 0.407642 0.702144 -0.152755
C14   C     C_R   0.696114 0.499215 0.061184 0.007506
C15   C     C_R   0.060991 0.498114 0.697849 0.059530
C16   C     C_R   0.675536 0.210649 0.672209 0.055678
C17   C     C_R   0.948876 0.777432 0.952632 0.061007
C18   C     C_R   0.671383 0.277124 0.221513 -0.222340
C19   C     C_R   0.778971 0.353650 0.304586 -0.127903
C20   C     C_R   0.859793 0.323643 0.316680 0.056116
C21   C     C_R   0.830917 0.215473 0.245692 -0.393214
C22   C     C_R   0.724176 0.140999 0.159459 0.808751
C23   C     C_R   0.222575 0.407955 0.975907 -0.129168
C24   C     C_R   0.644392 0.171761 0.147747 -0.274742
C25   C     C_R   0.985330 0.403356 0.505990 -0.242531
C26   C     C_R   0.074684 0.490813 0.605974 0.065173
C27   C     C_R   0.161025 0.573669 0.612264 0.032800
C28   C     C_R   0.150079 0.569172 0.515288 -0.249260
C29   C     C_R   0.054561 0.486972 0.416506 0.065030
C30   C     C_R   0.971359 0.402107 0.411623 0.061552
C31   C     C_R   0.293090 0.776749 0.738334 -0.170940
C32   C     C_R   0.375520 0.866235 0.841707 -0.115321
C33   C     C_R   0.422099 0.848094 0.925637 -0.040305
C34   C     C_R   0.056650 0.590726 0.314661 -0.139462
C35   C     C_R   0.388719 0.740662 0.905595 -0.131598
C36   C     C_R   0.310188 0.650822 0.801291 -0.142775
C37   C     C_R   0.258076 0.667923 0.717571 0.116763
C38   C     C_R   0.086797 0.977077 0.395217 -0.119733
C39   C     C_R   0.188878 0.023360 0.403854 -0.108410
C40   C     C_R   0.277043 0.026975 0.479281 0.131109
C41   C     C_R   0.263141 0.989210 0.549784 -0.073308
C42   C     C_R   0.160187 0.940785 0.538973 -0.069129
C43   C     C_R   0.071916 0.934043 0.461208 -0.108170
C44   C     C_R   0.477122 0.134594 0.565926 -0.197338
C45   C     C_R   0.313512 0.592608 0.067801 -0.139457
C46   C     C_R   0.574676 0.147861 0.567125 0.047092
C47   C     C_R   0.571675 0.093588 0.467542 0.022025
C48   C     C_R   0.472836 0.028303 0.372342 -0.216536
C49   C     C_R   0.377264 0.989920 0.377234 0.045231
C50   C     C_R   0.377372 0.052503 0.472387 -0.003371
C51   C     C_R   0.722826 0.125180 0.424081 -0.191526
C52   C     C_R   0.803734 0.101850 0.416065 -0.109114
C53   C     C_R   0.815991 0.020611 0.436038 -0.115859
C54   C     C_R   0.747967 0.962974 0.464871 -0.129801
C55   C     C_R   0.670855 0.989845 0.478587 -0.129388
C56   C     C_R   0.974134 0.406382 0.218019 -0.111973
C57   C     C_R   0.658708 0.071978 0.459437 0.108384
C58   C     C_3   0.525324 0.487100 0.955622 0.367069
C59   C     C_3   0.424526 0.489508 0.955732 -0.452267
C60   C     C_3   0.533672 0.400962 0.074968 -0.377425
C61   C     C_3   0.630549 0.605997 0.162689 -0.491464
C62   C     C_3   0.598494 0.497610 0.063649 0.252837
C63   C     C_3   0.425441 0.500085 0.061892 0.324611
C64   C     C_3   0.430516 0.401799 0.072859 -0.386843
C65   C     C_3   0.528618 0.607977 0.161237 -0.406493
C66   C     C_R   0.047736 0.059068 0.672429 -0.321850
C67   C     C_R   0.206541 0.804678 0.298452 -0.149181
C68   C     C_R   0.976438 0.000800 0.698514 -0.277441
C69   C     C_R   0.018231 0.999752 0.795622 0.142861
C70   C     C_R   0.131197 0.046308 0.859521 -0.260541
C71   C     C_R   0.201796 0.099925 0.830306 -0.338054
C72   C     C_R   0.160307 0.109918 0.739098 0.853133
C73   C     C_R   0.937590 0.860878 0.837386 -0.238906
C74   C     C_R   0.902033 0.833313 0.904145 0.056475
C75   C     C_R   0.838566 0.876319 0.934451 0.016624
C76   C     C_R   0.828050 0.955842 0.911301 -0.212753
C77   C     C_R   0.897852 0.010000 0.881963 0.030966
C78   C     C_R   0.998809 0.197433 0.902500 -0.138182
C79   C     C_R   0.945423 0.954943 0.833849 0.053576
C80   C     C_R   0.696892 0.783972 0.972924 -0.099457
C81   C     C_R   0.658169 0.786186 0.045550 -0.102664
C82   C     C_R   0.723707 0.868278 0.155219 -0.046169
C83   C     C_R   0.829143 0.948109 0.192970 -0.068544
C84   C     C_R   0.868583 0.946532 0.121261 -0.132144
C85   C     C_R   0.802558 0.864387 0.010835 0.108805
C86   C     C_R   0.934621 0.128852 0.924509 0.075960
H1    H     H_    0.844890 0.163389 0.011861 0.119142
H2    H     H_    0.141226 0.675999 0.816057 0.112353
H3    H     H_    0.805333 0.248537 0.628642 0.119926
H4    H     H_    0.878069 0.753839 0.056708 0.113885
H5    H     H_    0.061162 0.763768 0.888208 0.092681
H6    H     H_    0.620357 0.224414 0.794310 0.123656
H7    H     H_    0.818653 0.676550 0.148871 0.098153
H8    H     H_    0.982548 0.323204 0.651156 0.112727
H9    H     H_    0.561388 0.113936 0.082177 0.125860
H10   H     H_    0.608470 0.298760 0.215007 0.139458
H11   H     H_    0.798891 0.435247 0.361169 0.121510
H12   H     H_    0.341182 0.833190 0.169463 0.085747
H13   H     H_    0.891804 0.190217 0.255717 0.147582
H14   H     H_    0.917410 0.342417 0.501635 0.130797
H15   H     H_    0.213670 0.632320 0.516903 0.131462
H16   H     H_    0.254035 0.792706 0.675936 0.106957
H17   H     H_    0.400974 0.949676 0.857540 0.112466
H18   H     H_    0.482870 0.917008 0.006666 0.142690
H19   H     H_    0.421318 0.727154 0.971789 0.098548
H20   H     H_    0.285242 0.568084 0.787609 0.128711
H21   H     H_    0.991932 0.895267 0.451921 0.098459
H22   H     H_    0.202178 0.322680 0.938632 0.105481
H23   H     H_    0.018539 0.971089 0.334763 0.101587
H24   H     H_    0.197922 0.050993 0.348201 0.108198
H25   H     H_    0.329834 0.989998 0.607448 0.096904
H26   H     H_    0.148546 0.907240 0.589962 0.096324
H27   H     H_    0.477729 0.180376 0.639726 0.185477
H28   H     H_    0.474269 0.988578 0.298414 0.123119
H29   H     H_    0.712409 0.186685 0.406337 0.130144
H30   H     H_    0.856540 0.146040 0.393684 0.120306
H31   H     H_    0.876709 0.000617 0.427037 0.095365
H32   H     H_    0.754475 0.897023 0.475876 0.105030
H33   H     H_    0.102048 0.675304 0.380756 0.098935
H34   H     H_    0.619021 0.945286 0.501945 0.112820
H35   H     H_    0.572010 0.557549 0.949340 0.065634
H36   H     H_    0.421613 0.559581 0.946972 0.119887
H37   H     H_    0.349353 0.413609 0.883820 0.235827
H38   H     H_    0.509293 0.319741 0.008596 0.186429
H39   H     H_    0.358685 0.322286 0.003547 0.168092
H40   H     H_    0.682284 0.613625 0.240150 0.181846
H41   H     H_    0.678300 0.679228 0.161162 0.160577
H42   H     H_    0.530825 0.681687 0.157461 0.149162
H43   H     H_    0.375841 0.678409 0.116874 0.094229
H44   H     H_    0.530038 0.617135 0.238036 0.171083
H45   H     H_    0.585764 0.410819 0.153232 0.151083
H46   H     H_    0.430645 0.408154 0.148470 0.156179
H47   H     H_    0.016097 0.066786 0.601873 0.159970
H48   H     H_    0.889698 0.964392 0.648676 0.152362
H49   H     H_    0.164504 0.043752 0.933395 0.151098
H50   H     H_    0.288707 0.135845 0.879769 0.156949
H51   H     H_    0.974643 0.820548 0.800820 0.128069
H52   H     H_    0.780345 0.988429 0.936311 0.174718
H53   H     H_    0.950569 0.321605 0.192770 0.115030
H54   H     H_    0.644051 0.721911 0.887414 0.120725
H55   H     H_    0.577135 0.724830 0.016981 0.089712
H56   H     H_    0.692297 0.869964 0.210396 0.106683
H57   H     H_    0.879991 0.013022 0.277005 0.085493
H58   H     H_    0.949308 0.011116 0.150882 0.105678
H59   H     H_    0.174017 0.825872 0.350681 0.116545
H60   H     H_    0.024533 0.177659 0.844215 0.127540
H61   H     H_    0.644959 0.322601 0.972206 0.099401
N1    N     N_R   0.947080 0.293830 0.002870 -0.043591
N2    N     N_R   0.054040 0.556820 0.847890 -0.038884
N3    N     N_R   0.848290 0.293830 0.791110 -0.044490
N4    N     N_R   0.995680 0.706170 0.053910 -0.040871
N5    N     N_R   0.052920 0.706170 0.997130 -0.041798
N6    N     N_R   0.791050 0.293830 0.847890 -0.045745
N7    N     N_R   0.846330 0.556820 0.053910 -0.035778
N8    N     N_R   0.997640 0.443180 0.791110 -0.039893
N9    N     N_R   0.208950 0.706170 0.152110 -0.039125
N10   N     N_R   0.153670 0.443180 0.946090 -0.038475
N11   N     N_R   0.002360 0.556820 0.208890 -0.041013
N12   N     N_R   0.210070 0.556820 0.002870 -0.038117
N13   N     N_R   0.945960 0.443180 0.152110 -0.046744
N14   N     N_R   0.151710 0.706170 0.208890 -0.039687
N15   N     N_R   0.004320 0.293830 0.946090 -0.042765
N16   N     N_R   0.789930 0.443180 0.997130 -0.044304
Ni1   Ni    Ni4+2 0.869690 0.369690 0.000000 0.218946
Ni2   Ni    Ni4+2 0.130310 0.630310 0.000000 0.211482
Ni3   Ni    Ni4+2 0.000970 0.369690 0.869780 0.220347
Ni4   Ni    Ni4+2 0.999030 0.630310 0.130220 0.213943
F1    F     F_    0.697897 0.038973 0.087248 -0.740765
Cl1   Cl    Cl    0.483548 0.364922 0.834575 -0.665435
F2    F     F_    0.229145 0.168354 0.714885 -0.677608

loop_
_geom_bond_atom_site_label_1
_geom_bond_atom_site_label_2
_ccdc_geom_bond_type
C58   C62   S    
C66   C68   A    
C63   C65   S    
C9    N5    A    
C1    H1    S    
C5    H61   S    
C33   H18   S    
C18   H10   S    
C73   C74   A    
C54   C55   A    
C3    C23   A    
C35   C36   A    
C45   N12   A    
C82   H56   S    
C2    C12   A    
C9    H5    S    
C65   H44   S    
C19   H11   S    
C20   C30   S    
C53   C54   A    
C45   H43   S    
C26   C27   A    
C80   C85   A    
C83   C84   A    
C18   C24   A    
N13   Ni1   S    
C28   C29   A    
C77   C86   S    
C38   C39   A    
C21   H13   S    
C11   C14   A    
C53   H31   S    
C84   H58   S    
N8    Ni3   S    
C14   C62   S    
C25   C30   A    
C6    H2    S    
C10   N6    A    
C60   C62   S    
C18   C19   A    
C41   C42   A    
C60   H38   S    
C42   H26   S    
C13   N8    A    
C11   N7    A    
C6    C15   A    
N15   Ni3   S    
C6    N2    A    
C28   H15   S    
C75   C85   S    
C39   H24   S    
C66   C72   A    
C64   H46   S    
C68   C69   A    
N3    N6    A    
C67   H59   S    
N4    N5    A    
C61   H40   S    
C51   C57   A    
C12   H12   S    
C4    C29   S    
C22   F1    S    
C78   C86   A    
C59   H36   S    
C81   H55   S    
C10   H6    S    
N10   N12   A    
C21   C22   A    
C4    C56   A    
N11   N13   A    
C61   C62   S    
C12   N9    A    
C60   H45   S    
C44   C46   A    
N11   Ni4   S    
C81   C82   A    
C7    N3    A    
C55   H34   S    
C52   H30   S    
C59   H37   S    
C4    C34   A    
C32   H17   S    
N3    Ni3   S    
C74   C75   A    
N6    Ni1   S    
C36   H20   S    
C51   C52   A    
N1    Ni1   S    
C65   H42   S    
N7    N16   A    
C58   Cl1   S    
N2    Ni2   S    
C76   C77   A    
C2    C67   A    
C24   H9    S    
C16   C46   S    
C71   H50   S    
C56   H53   S    
C15   C26   S    
C25   C26   A    
C80   H54   S    
C3    C45   A    
C51   H29   S    
N12   Ni2   S    
C31   C37   A    
C72   F2    S    
C75   C76   A    
C31   H16   S    
C29   C30   A    
C35   H19   S    
C2    C49   S    
C47   C57   S    
C66   H47   S    
C67   N14   A    
C25   H14   S    
C47   C48   A    
C48   C49   A    
C8    N4    A    
C73   C79   A    
C77   C79   A    
C61   H41   S    
C43   H21   S    
C84   C85   A    
C38   H23   S    
C5    C14   A    
N14   Ni4   S    
C34   N11   A    
C9    C17   A    
C40   C41   A    
N9    N14   A    
C78   N15   A    
C76   H52   S    
C55   C57   A    
C70   H49   S    
C49   C50   A    
C22   C24   A    
N7    Ni4   S    
C69   C79   S    
C8    H4    S    
C42   C43   A    
C54   H32   S    
C5    N16   A    
C39   C40   A    
C70   C71   A    
C52   C53   A    
C48   H28   S    
C44   C50   A    
C34   H33   S    
C46   C47   A    
C36   C37   A    
C58   H35   S    
N5    Ni2   S    
C31   C32   A    
C7    C16   A    
C80   C81   A    
N10   Ni3   S    
C44   H27   S    
N4    Ni4   S    
C3    C63   S    
C59   C63   S    
C8    C17   A    
C13   H8    S    
C60   C64   S    
N1    N15   A    
C32   C33   A    
C19   C20   A    
C13   C15   A    
C58   C59   S    
C38   C43   A    
C56   N13   A    
C10   C16   A    
C83   H57   S    
C11   H7    S    
C17   C74   S    
C73   H51   S    
N9    Ni2   S    
C27   C37   S    
C40   C50   S    
C23   H22   S    
C23   N10   A    
C68   H48   S    
C33   C35   A    
N2    N8    A    
C69   C70   A    
N16   Ni1   S    
C78   H60   S    
C63   C64   S    
C61   C65   S    
C1    C86   A    
C71   C72   A    
C20   C21   A    
C64   H39   S    
C41   H25   S    
C27   C28   A    
C1    N1    A    
C82   C83   A    
C7    H3    S    
