data_mof_unit_32037.cif
_audit_creation_date              2012-12-10T17:50:38-0500
_audit_creation_method            fapswitch 2.2
_symmetry_space_group_name_H-M    P1
_symmetry_Int_Tables_number       1
_space_group_crystal_system       triclinic
_cell_length_a                    15.700145
_cell_length_b                    10.689648
_cell_length_c                    9.919854
_cell_angle_alpha                 90.057104
_cell_angle_beta                  91.325375
_cell_angle_gamma                 89.883237
_cell_volume                      1664.38979904

loop_
_atom_site_label
_atom_site_type_symbol
_atom_type_description
_atom_site_fract_x
_atom_site_fract_y
_atom_site_fract_z
_atom_type_partial_charge
C1    C     C_R   0.511261 0.261172 0.500629 0.887615
C2    C     C_R   0.536770 0.061419 0.871801 -0.156767
C3    C     C_R   0.488989 0.952139 0.873413 -0.090341
C4    C     C_R   0.338116 0.498646 0.498935 0.916760
C5    C     C_R   0.467562 0.892506 0.752194 -0.090682
C6    C     C_R   0.494813 0.941814 0.627520 0.075551
C7    C     C_R   0.526911 0.063448 0.626695 0.067282
C8    C     C_R   0.527488 0.127864 0.502649 -0.162055
C9    C     C_R   0.526104 0.061498 0.380234 0.206443
C10   C     C_R   0.509344 0.935431 0.382242 -0.238922
C11   C     C_R   0.493385 0.874960 0.503788 -0.152420
C12   C     C_3   0.083360 0.488843 0.501942 0.038839
C13   C     C_R   0.345575 0.463456 0.116116 0.412549
C14   C     C_R   0.288103 0.376381 0.060138 -0.329161
C15   C     C_R   0.304878 0.321610 0.935034 0.429127
C16   C     C_R   0.494377 0.740370 0.500716 0.908469
C17   C     C_R   0.375694 0.362208 0.863915 -0.233407
C18   C     C_R   0.435472 0.442324 0.926326 0.087389
C19   C     C_R   0.428634 0.463880 0.066554 0.050941
C20   C     C_R   0.567920 0.541847 0.074170 -0.091321
C21   C     C_R   0.565990 0.547832 0.930814 -0.104086
C22   C     C_R   0.661966 0.499684 0.501394 0.879835
C23   C     C_3   0.974279 0.573033 0.597841 -0.298780
C24   C     C_3   0.972721 0.377040 0.533466 0.535197
C25   C     C_3   0.026249 0.407639 0.409398 -0.222260
C26   C     C_1   0.249329 0.494096 0.497888 -0.068011
C27   C     C_1   0.750916 0.496842 0.504372 -0.150682
C28   C     C_3   0.031232 0.456384 0.626526 -0.205729
C29   C     C_3   0.997038 0.819064 0.412042 -0.662252
C30   C     C_3   0.630143 0.153121 0.234960 -0.695641
C31   C     C_3   0.917128 0.491783 0.504911 0.010984
C32   C     C_3   0.027298 0.602568 0.473764 0.280777
C33   C     C_3   0.969324 0.524177 0.380043 -0.213757
C34   C     C_1   0.174099 0.490749 0.499407 0.086126
C35   C     C_1   0.826251 0.494176 0.505479 0.044013
C36   C     C_R   0.555474 0.117310 0.749756 -0.107220
H1    H     H_    0.049165 0.339072 0.334250 0.194667
H2    H     H_    0.951647 0.641795 0.672991 0.179657
H3    H     H_    0.057918 0.427118 0.726221 0.224687
H4    H     H_    0.593119 0.202014 0.752530 0.166109
H5    H     H_    0.557739 0.105465 0.964241 0.137688
H6    H     H_    0.250670 0.757445 0.009630 0.393018
H7    H     H_    0.243207 0.025818 0.783666 0.388689
H8    H     H_    0.993552 0.049712 0.632157 0.377762
H9    H     H_    0.106728 0.754596 0.510592 0.236245
H10   H     H_    0.028775 0.907655 0.383719 0.269817
H11   H     H_    0.957673 0.836592 0.501813 0.223689
H12   H     H_    0.470166 0.912071 0.968377 0.155295
H13   H     H_    0.955379 0.788923 0.326079 0.239925
H14   H     H_    0.513964 0.076248 0.172841 0.213723
H15   H     H_    0.635308 0.210523 0.142359 0.226481
H16   H     H_    0.669099 0.066945 0.224046 0.234443
H17   H     H_    0.655676 0.209209 0.321141 0.253461
H18   H     H_    0.428385 0.809814 0.758018 0.179114
H19   H     H_    0.510636 0.884631 0.287657 0.185431
H20   H     H_    0.623054 0.576590 0.129634 0.147123
H21   H     H_    0.225763 0.365763 0.103080 0.217071
H22   H     H_    0.384402 0.326830 0.763877 0.231560
H23   H     H_    0.619216 0.588275 0.879155 0.150493
H24   H     H_    0.942622 0.553261 0.280297 0.171681
N1    N     N_R   0.499210 0.498800 0.142780 -0.102231
N2    N     N_R   0.499180 0.498720 0.857170 -0.100544
N3    N     N_2   0.060796 0.724785 0.441958 -0.274712
N4    N     N_2   0.541850 0.120552 0.254765 -0.288548
O1    O     O_R   0.500000 0.316780 0.614690 -0.653224
O2    O     O_2   0.360859 0.699699 0.212379 -0.295594
O3    O     O_3   0.272917 0.672612 0.990627 -0.557259
O4    O     O_2   0.158309 0.192752 0.947837 -0.268754
O5    O     O_2   0.202566 0.266033 0.725569 -0.301745
O6    O     O_3   0.284655 0.079137 0.833751 -0.557686
O7    O     O_2   0.882508 0.232682 0.698753 -0.297144
O8    O     O_2   0.880935 0.175892 0.458675 -0.319322
O9    O     O_3   0.018580 0.129553 0.601781 -0.511465
O10   O     O_R   0.499990 0.316750 0.385360 -0.587830
O11   O     O_R   0.376780 0.500000 0.614650 -0.626015
O12   O     O_R   0.376770 0.499980 0.385310 -0.578929
O13   O     O_R   0.500010 0.683250 0.614640 -0.637882
O14   O     O_R   0.500000 0.683220 0.385310 -0.578954
O15   O     O_R   0.623230 0.500020 0.614690 -0.619227
O16   O     O_R   0.623220 0.500000 0.385350 -0.630931
O17   O     O_2   0.219770 0.600824 0.223023 -0.313855
S1    S     S_3+6 0.299234 0.612517 0.142621 0.033152
S2    S     S_3+6 0.233169 0.214901 0.859201 0.037606
S3    S     S_3+6 0.934830 0.225097 0.574041 0.029325
Zn1   Zn    Zn3+2 0.500010 0.500020 0.653130 0.953372
Zn2   Zn    Zn3+2 0.499990 0.499980 0.346870 1.006163

loop_
_geom_bond_atom_site_label_1
_geom_bond_atom_site_label_2
_ccdc_geom_bond_type
C30   H15   S    
C29   N3    S    
C30   N4    S    
C9    N4    S    
H14   N4    S    
C7    C36   A    
C20   H20   S    
O17   S1    D    
C7    C8    A    
C29   H13   S    
C29   H11   S    
C1    O10   A    
C22   O15   A    
C21   H23   S    
C5    C6    A    
C2    H5    S    
C1    C8    S    
C3    H12   S    
C16   O13   A    
C20   N1    A    
C4    O11   A    
O16   Zn2   S    
C25   H1    S    
O11   Zn1   S    
C8    C9    A    
C1    O1    A    
C31   C33   S    
C9    C10   A    
O9    S3    S    
C17   H22   S    
O14   Zn2   S    
O13   Zn1   S    
C13   C14   A    
C12   C32   S    
C30   H17   S    
C26   C34   T    
N2    Zn1   S    
C13   C19   A    
C5    H18   S    
C36   H4    S    
C24   C25   S    
C10   C11   A    
C6    C11   A    
C18   C19   A    
C15   S2    S    
C28   H3    S    
C27   C35   T    
C13   S1    S    
H9    N3    S    
C23   C31   S    
O5    S2    D    
O2    S1    D    
C11   C16   S    
C17   C18   A    
C23   C28   S    
O10   Zn2   S    
O6    S2    S    
C21   N2    A    
O8    S3    D    
C12   C28   S    
H7    O6    S    
C22   C27   S    
H6    O3    S    
C31   C35   S    
C12   C34   S    
O12   Zn2   S    
O15   Zn1   S    
O7    S3    D    
C2    C36   A    
C15   C17   A    
C14   H21   S    
C30   H16   S    
O4    S2    D    
C18   N2    A    
C24   C28   S    
C32   N3    S    
C3    C5    A    
C4    C26   S    
O1    Zn1   S    
C6    C7    A    
C33   H24   S    
C23   H2    S    
C29   H10   S    
C12   C25   S    
C23   C32   S    
C2    C3    A    
C24   S3    S    
C24   C31   S    
C22   O16   A    
C32   C33   S    
C19   N1    A    
C16   O14   A    
C10   H19   S    
H8    O9    S    
C4    O12   A    
N1    Zn2   S    
C20   C21   A    
O3    S1    S    
C14   C15   A    
C25   C33   S    
