data_mof_unit_7031.cif
_audit_creation_date              2012-10-26T19:41:52-0400
_audit_creation_method            fapswitch 2.2
_symmetry_space_group_name_H-M    P1
_symmetry_Int_Tables_number       1
_space_group_crystal_system       triclinic
_cell_length_a                    10.631031
_cell_length_b                    10.822522
_cell_length_c                    9.588323
_cell_angle_alpha                 89.656378
_cell_angle_beta                  90.042548
_cell_angle_gamma                 92.126961
_cell_volume                      1102.40032775

loop_
_atom_site_label
_atom_site_type_symbol
_atom_type_description
_atom_site_fract_x
_atom_site_fract_y
_atom_site_fract_z
_atom_type_partial_charge
C1    C     C_R   0.511919 0.263077 0.501479 0.565644
C2    C     C_R   0.519316 0.061297 0.634544 0.034518
C3    C     C_R   0.526675 0.128928 0.506609 0.000892
C4    C     C_R   0.259415 0.500265 0.500028 0.550285
C5    C     C_R   0.525615 0.065211 0.379812 -0.163675
C6    C     C_R   0.511898 0.937747 0.378258 -0.167540
C7    C     C_R   0.486024 0.872390 0.502001 -0.007668
C8    C     C_R   0.665281 0.665376 0.143169 -0.098411
C9    C     C_R   0.745247 0.746929 0.070504 -0.177288
C10   C     C_R   0.745474 0.746825 0.926859 -0.161529
C11   C     C_R   0.665763 0.665145 0.855041 -0.072398
C12   C     C_3   0.959610 0.513894 0.367679 -0.115344
C13   C     C_R   0.581290 0.581318 0.924709 0.166559
C14   C     C_R   0.581169 0.581347 0.074353 0.158593
C15   C     C_R   0.422913 0.422517 0.074369 -0.000681
C16   C     C_R   0.491688 0.737476 0.500132 0.529397
C17   C     C_R   0.422849 0.422638 0.926418 0.008260
C18   C     C_R   0.740658 0.500702 0.499864 0.549563
C19   C     C_3   0.040539 0.488724 0.631509 -0.102888
C20   C     C_3   0.954356 0.394052 0.553486 -0.108561
C21   C     C_3   0.877694 0.501269 0.499072 0.048724
C22   C     C_3   0.961799 0.596086 0.576738 -0.126997
C23   C     C_3   0.038405 0.406628 0.422397 -0.125131
C24   C     C_3   0.046076 0.608572 0.445537 -0.132208
C25   C     C_3   0.122488 0.501190 0.500255 0.039596
C26   C     C_R   0.552275 0.109814 0.768074 0.117334
C27   C     C_R   0.505673 0.051289 0.888748 -0.104674
C28   C     C_R   0.433448 0.942064 0.879209 -0.149773
C29   C     C_R   0.419684 0.883711 0.750817 -0.103770
C30   C     C_R   0.473761 0.937564 0.628943 0.006766
Cu1   Cu    Cu3+1 0.499990 0.499990 0.640660 0.940497
Cu2   Cu    Cu3+1 0.500010 0.500010 0.359340 0.923688
H1    H     H_    0.915608 0.305125 0.595862 0.148756
H2    H     H_    0.927322 0.673511 0.639931 0.102554
H3    H     H_    0.086805 0.696281 0.401408 0.110160
H4    H     H_    0.923892 0.524342 0.259551 0.131731
H5    H     H_    0.072740 0.329110 0.359270 0.114374
H6    H     H_    0.535376 0.113880 0.281115 0.140062
H7    H     H_    0.528822 0.088406 0.990584 0.127096
H8    H     H_    0.364800 0.797654 0.748018 0.147648
H9    H     H_    0.675129 0.672097 0.745215 0.181816
H10   H     H_    0.394811 0.898511 0.972503 0.115759
H11   H     H_    0.519735 0.890691 0.279393 0.138159
H12   H     H_    0.359782 0.358938 0.129988 0.113999
H13   H     H_    0.674114 0.672496 0.252962 0.183192
H14   H     H_    0.808035 0.810281 0.126425 0.122664
H15   H     H_    0.808402 0.810128 0.870292 0.126424
H16   H     H_    0.359801 0.359049 0.871448 0.120393
H17   H     H_    0.075959 0.478321 0.739748 0.127783
I1    I     I_    0.707812 0.235252 0.802871 -0.418910
N1    N     N_R   0.501210 0.501210 0.147910 -0.242591
N2    N     N_R   0.501250 0.501290 0.852040 -0.234479
O1    O     O_R   0.499990 0.319640 0.618810 -0.473802
O2    O     O_R   0.500000 0.319660 0.381240 -0.506718
O3    O     O_R   0.316850 0.499960 0.618770 -0.513823
O4    O     O_R   0.316860 0.499980 0.381190 -0.501330
O5    O     O_R   0.500000 0.680340 0.618760 -0.535283
O6    O     O_R   0.500010 0.680360 0.381190 -0.527916
O7    O     O_R   0.683140 0.500020 0.618810 -0.495699
O8    O     O_R   0.683150 0.500040 0.381230 -0.523803

loop_
_geom_bond_atom_site_label_1
_geom_bond_atom_site_label_2
_ccdc_geom_bond_type
C1    O2    A    
C17   H16   S    
Cu2   N1    S    
C6    C7    A    
C15   N1    A    
C12   H4    S    
C13   N2    A    
C9    C10   A    
C19   H17   S    
C14   N1    A    
C20   C23   S    
Cu2   O6    S    
Cu1   N2    S    
C2    C30   A    
Cu1   O5    S    
C19   C20   S    
C23   C25   S    
C2    C3    A    
C3    C5    A    
C9    H14   S    
C2    C26   A    
C7    C30   A    
C16   O6    A    
C21   C22   S    
Cu1   O1    S    
C1    O1    A    
C11   C13   A    
C12   C23   S    
C26   C27   A    
C29   C30   A    
C6    H11   S    
C19   C25   S    
C20   H1    S    
C17   N2    A    
Cu2   O2    S    
C7    C16   S    
C23   H5    S    
C15   H12   S    
C11   H9    S    
C16   O5    A    
C26   I1    S    
C4    O3    A    
C5    C6    A    
C22   H2    S    
C22   C24   S    
C24   H3    S    
C10   C11   A    
Cu2   O8    S    
Cu1   O7    S    
C18   C21   S    
C4    C25   S    
C18   O7    A    
C10   H15   S    
C19   C22   S    
C24   C25   S    
C29   H8    S    
C18   O8    A    
C28   H10   S    
C27   C28   A    
C15   C17   A    
C12   C24   S    
C8    H13   S    
C28   C29   A    
C8    C14   A    
C13   C14   A    
Cu1   O3    S    
C20   C21   S    
C5    H6    S    
C12   C21   S    
Cu2   O4    S    
C4    O4    A    
Cu1   Cu2   S    
C27   H7    S    
C8    C9    A    
C1    C3    S    
