data_mof_unit_63537.cif
_audit_creation_date              2012-12-10T18:39:03-0500
_audit_creation_method            fapswitch 2.2
_symmetry_space_group_name_H-M    P1
_symmetry_Int_Tables_number       1
_space_group_crystal_system       triclinic
_cell_length_a                    13.808476
_cell_length_b                    15.105348
_cell_length_c                    17.250008
_cell_angle_alpha                 90.043521
_cell_angle_beta                  85.613156
_cell_angle_gamma                 89.994065
_cell_volume                      3587.49622357

loop_
_atom_site_label
_atom_site_type_symbol
_atom_type_description
_atom_site_fract_x
_atom_site_fract_y
_atom_site_fract_z
_atom_type_partial_charge
C1    C     C_R   0.500306 0.670188 0.497216 0.818706
C2    C     C_R   0.499765 0.329812 0.502763 0.799134
C3    C     C_R   0.579585 0.907261 0.456848 0.478814
C4    C     C_R   0.570890 0.092720 0.543591 0.477510
C5    C     C_R   0.578039 0.813975 0.452360 0.287545
C6    C     C_R   0.568478 0.186012 0.548042 0.282335
C7    C     C_R   0.500701 0.766899 0.492714 -0.175857
C8    C     C_R   0.499283 0.233102 0.507243 -0.170951
C9    C     C_R   0.423390 0.813046 0.531359 -0.216573
C10   C     C_R   0.429763 0.186977 0.468154 -0.228645
C11   C     C_R   0.423739 0.904717 0.533293 -0.247702
C12   C     C_R   0.430486 0.095304 0.466224 -0.249353
C13   C     C_R   0.501953 0.951668 0.497522 0.054265
C14   C     C_R   0.501463 0.048332 0.502464 0.055874
C15   C     C_R   0.898932 0.449096 0.449560 -0.241025
C16   C     C_R   0.100998 0.451213 0.552111 -0.245441
C17   C     C_R   0.797120 0.448062 0.449810 0.148764
C18   C     C_R   0.202825 0.450187 0.551795 0.120118
C19   C     C_R   0.783964 0.553204 0.551452 0.059125
C20   C     C_R   0.216054 0.551232 0.447118 0.033145
C21   C     C_R   0.886303 0.557008 0.554038 -0.079582
C22   C     C_R   0.113710 0.554906 0.444528 -0.079008
C23   C     C_R   0.487017 0.500641 0.650470 0.805141
C24   C     C_R   0.513003 0.498396 0.349458 0.811305
C25   C     C_R   0.945364 0.503730 0.501380 0.079374
C26   C     C_R   0.054607 0.503726 0.498752 0.084833
C27   C     C_R   0.479593 0.512614 0.735189 -0.231832
C28   C     C_R   0.520230 0.500694 0.263957 -0.234106
C29   C     C_R   0.556899 0.554817 0.768301 -0.223109
C30   C     C_R   0.438766 0.528646 0.226967 -0.233627
C31   C     C_R   0.550499 0.575883 0.846561 -0.179984
C32   C     C_R   0.442814 0.536964 0.146931 -0.169889
C33   C     C_R   0.466208 0.556548 0.893425 -0.037658
C34   C     C_R   0.529692 0.520843 0.101504 -0.022548
C35   C     C_R   0.386393 0.515132 0.861230 0.447222
C36   C     C_R   0.613489 0.494375 0.138135 0.425393
C37   C     C_R   0.394496 0.490483 0.782647 0.401879
C38   C     C_R   0.607265 0.479845 0.218523 0.407569
C39   C     C_2   0.468485 0.569697 0.977240 -0.206071
C40   C     C_2   0.529720 0.520867 0.016036 -0.176869
Cu1   Cu    Cu3+1 0.403570 0.500010 0.500000 0.958666
Cu2   Cu    Cu3+1 0.596430 0.499990 0.500000 0.979940
H1    H     H_    0.622435 0.572930 0.733352 0.195891
H2    H     H_    0.370902 0.544000 0.259966 0.195839
H3    H     H_    0.941554 0.407467 0.408759 0.151674
H4    H     H_    0.058333 0.411253 0.594166 0.154276
H5    H     H_    0.762727 0.405575 0.409584 0.134743
H6    H     H_    0.237193 0.409439 0.593309 0.135988
H7    H     H_    0.737681 0.593960 0.590320 0.160022
H8    H     H_    0.262333 0.590547 0.407105 0.158839
H9    H     H_    0.578973 0.475875 0.983348 0.177491
H10   H     H_    0.417111 0.615281 0.006475 0.161810
H11   H     H_    0.376455 0.554007 0.120964 0.167306
H12   H     H_    0.612039 0.606910 0.871062 0.183871
H13   H     H_    0.363456 0.777986 0.561748 0.189838
H14   H     H_    0.375971 0.222061 0.437418 0.183650
H15   H     H_    0.363857 0.939320 0.564270 0.176304
H16   H     H_    0.376852 0.060717 0.434898 0.176455
N1    N     N_R   0.741310 0.499980 0.500000 -0.190980
N2    N     N_R   0.258690 0.500020 0.500000 -0.189368
O1    O     O_R   0.418570 0.628550 0.499990 -0.580677
O2    O     O_R   0.581430 0.371450 0.500010 -0.571361
O3    O     O_R   0.581440 0.628540 0.499990 -0.561998
O4    O     O_R   0.418560 0.371460 0.500010 -0.591207
O5    O     O_R   0.409120 0.500020 0.613600 -0.570641
O6    O     O_R   0.590880 0.499980 0.386400 -0.573624
O7    O     O_R   0.571990 0.500010 0.613600 -0.590750
O8    O     O_R   0.428010 0.499990 0.386400 -0.589132
C41   C     C_2   0.927840 0.617819 0.611073 0.861830
O9    O     O_2   0.875387 0.648332 0.664951 -0.595973
O10   O     O_R   0.025916 0.641721 0.603337 -0.741797
H17   H     H_    0.044366 0.683470 0.645833 0.347659
C42   C     C_2   0.072197 0.613422 0.385812 0.851402
O11   O     O_2   0.124567 0.641603 0.330906 -0.601161
O12   O     O_R   0.974245 0.637823 0.393100 -0.730195
H18   H     H_    0.955791 0.677841 0.349428 0.356819
O13   O     O_3   0.687576 0.444877 0.250216 -0.661633
H19   H     H_    0.664319 0.402339 0.291159 0.315157
O14   O     O_3   0.318722 0.443235 0.755144 -0.666309
H20   H     H_    0.345609 0.402253 0.714143 0.310644
O15   O     O_3   0.301688 0.492661 0.904816 -0.665019
H21   H     H_    0.302412 0.516727 0.958066 0.322363
O16   O     O_3   0.702072 0.479232 0.097444 -0.667624
H22   H     H_    0.705666 0.513973 0.048698 0.320002
O17   O     O_3   0.653508 0.957267 0.420131 -0.699697
H23   H     H_    0.704618 0.917957 0.395960 0.378100
O18   O     O_3   0.637378 0.042690 0.580758 -0.697680
H24   H     H_    0.683591 0.081983 0.605256 0.376896
O19   O     O_3   0.650973 0.771614 0.407215 -0.717800
H25   H     H_    0.624335 0.716766 0.385672 0.339165
O20   O     O_3   0.632339 0.228358 0.593585 -0.729627
H26   H     H_    0.601576 0.283388 0.614731 0.333387

loop_
_geom_bond_atom_site_label_1
_geom_bond_atom_site_label_2
_ccdc_geom_bond_type
O18   H24   S    
C3    O17   S    
Cu1   Cu2   S    
Cu1   O1    S    
O15   H21   S    
C35   O15   S    
C4    O18   S    
O17   H23   S    
C37   O14   S    
C33   C39   S    
C34   C40   S    
C19   C21   A    
C15   C25   A    
C27   C29   A    
C36   O16   S    
C6    O20   S    
C7    C9    A    
C42   O11   D    
C23   O7    A    
C41   O10   S    
C20   H8    S    
C31   C33   A    
C9    H13   S    
C23   C27   S    
C20   N2    A    
C10   H14   S    
Cu2   O2    S    
C3    C13   A    
C24   O6    A    
C12   H16   S    
C39   H10   S    
C18   H6    S    
C13   C14   S    
C29   H1    S    
C42   O12   S    
C30   H2    S    
C1    O3    A    
C2    O4    A    
Cu1   O8    S    
C16   C26   A    
C17   H5    S    
C4    C6    A    
C16   H4    S    
O20   H26   S    
C5    C7    A    
Cu1   O5    S    
C19   N1    A    
C25   C26   S    
O13   H19   S    
C21   C41   S    
C32   C34   A    
O12   H18   S    
C19   H7    S    
O16   H22   S    
C28   C38   A    
C16   C18   A    
C9    C11   A    
C10   C12   A    
C17   N1    A    
C18   N2    A    
C20   C22   A    
Cu2   O7    S    
C15   H3    S    
C32   H11   S    
C39   C40   D    
C15   C17   A    
C21   C25   A    
C35   C37   A    
C1    C7    S    
C2    C8    S    
C24   C28   S    
Cu1   N2    S    
C12   C14   A    
C3    C5    A    
C1    O1    A    
Cu2   N1    S    
C6    C8    A    
C38   O13   S    
C40   H9    S    
Cu1   O4    S    
C23   O5    A    
C28   C30   A    
O10   H17   S    
C29   C31   A    
C30   C32   A    
C11   C13   A    
C27   C37   A    
C36   C38   A    
C33   C35   A    
C34   C36   A    
C31   H12   S    
C4    C14   A    
C41   O9    D    
C24   O8    A    
O14   H20   S    
C8    C10   A    
C22   C26   A    
Cu2   O6    S    
C22   C42   S    
O19   H25   S    
C11   H15   S    
Cu2   O3    S    
C5    O19   S    
C2    O2    A    
