data_mof_unit_39049.cif
_audit_creation_date              2012-12-10T17:33:52-0500
_audit_creation_method            fapswitch 2.2
_symmetry_space_group_name_H-M    P1
_symmetry_Int_Tables_number       1
_space_group_crystal_system       triclinic
_cell_length_a                    10.81523
_cell_length_b                    12.129836
_cell_length_c                    12.99746
_cell_angle_alpha                 93.565768
_cell_angle_beta                  91.911539
_cell_angle_gamma                 85.911309
_cell_volume                      1696.74860672

loop_
_atom_site_label
_atom_site_type_symbol
_atom_type_description
_atom_site_fract_x
_atom_site_fract_y
_atom_site_fract_z
_atom_type_partial_charge
C1    C     C_R   0.493759 0.522072 0.699875 0.834528
C2    C     C_3   0.120692 0.500791 0.514420 -0.030791
C3    C     C_3   0.070618 0.495100 0.397496 -0.057173
C4    C     C_3   0.056814 0.609996 0.576774 0.506294
C5    C     C_R   0.511639 0.464986 0.187149 -0.384448
C6    C     C_R   0.486526 0.536009 0.810936 -0.144058
C7    C     C_R   0.535443 0.640246 0.966917 -0.284457
C8    C     C_R   0.502617 0.638539 0.863267 0.444007
C9    C     C_R   0.468504 0.443433 0.866143 -0.260416
C10   C     C_R   0.481731 0.449139 0.972944 -0.084847
C11   C     C_R   0.517340 0.548895 0.023807 -0.062035
C12   C     C_R   0.741821 0.499957 0.500541 0.905983
C13   C     C_R   0.526543 0.558823 0.131033 0.357242
C14   C     C_R   0.494220 0.361295 0.134859 0.341266
C15   C     C_R   0.467026 0.355733 0.028977 0.390445
C16   C     C_R   0.355495 0.958696 0.443627 -0.412493
C17   C     C_R   0.371492 0.842219 0.437946 0.531508
C18   C     C_R   0.572474 0.855284 0.518356 0.505177
C19   C     C_R   0.563279 0.973654 0.514042 -0.130910
C20   C     C_R   0.451557 0.024691 0.477269 -0.062073
C21   C     C_R   0.441218 0.140960 0.467162 0.202633
C22   C     C_R   0.628328 0.159603 0.563652 0.507414
C23   C     C_R   0.507034 0.478044 0.299595 0.958103
C24   C     C_R   0.659412 0.044412 0.545308 0.033221
C25   C     C_R   0.258741 0.501610 0.512404 0.836820
C26   C     C_3   0.933723 0.410548 0.574835 -0.445975
C27   C     C_3   0.076536 0.400440 0.574005 0.032528
C28   C     C_3   0.927139 0.480243 0.388150 0.615988
C29   C     C_3   0.916911 0.613899 0.546431 -0.411349
C30   C     C_3   0.878241 0.499537 0.501193 -0.056471
H1    H     H_    0.895072 0.329073 0.556990 0.254395
H2    H     H_    0.083082 0.578497 0.372195 0.187314
H3    H     H_    0.568369 0.715917 0.002344 0.180287
H4    H     H_    0.445446 0.366961 0.825337 0.186562
H5    H     H_    0.904652 0.435962 0.654526 0.197292
H6    H     H_    0.267031 0.997802 0.421787 0.163460
H7    H     H_    0.111121 0.410302 0.655223 0.199297
H8    H     H_    0.890453 0.678314 0.490760 0.229504
H9    H     H_    0.861754 0.639329 0.615762 0.217255
N1    N     N_R   0.523380 0.207800 0.519350 -0.167897
N2    N     N_R   0.476620 0.792180 0.480650 -0.177237
O1    O     O_R   0.506240 0.421700 0.658830 -0.623078
O2    O     O_R   0.491240 0.609310 0.646410 -0.611508
O3    O     O_R   0.692710 0.406190 0.506230 -0.593653
O4    O     O_R   0.677700 0.593810 0.493810 -0.567212
O5    O     O_R   0.508760 0.390690 0.353590 -0.607995
O6    O     O_R   0.493760 0.578300 0.341170 -0.567071
O7    O     O_R   0.322300 0.406190 0.506190 -0.628538
O8    O     O_R   0.307290 0.593810 0.493770 -0.584233
Zn1   Zn    Zn3+2 0.510020 0.374730 0.508290 0.950015
Zn2   Zn    Zn3+2 0.489980 0.625270 0.491710 1.012673
C31   C     C_3   0.099959 0.725246 0.553198 -0.867822
H10   H     H_    0.087831 0.738705 0.470269 0.257702
H11   H     H_    0.041969 0.791827 0.594517 0.217678
H12   H     H_    0.196222 0.738695 0.579517 0.256393
O9    O     O_3   0.869172 0.568256 0.329971 -0.638612
C32   C     C_3   0.857652 0.545408 0.221754 0.147522
H13   H     H_    0.775517 0.496905 0.204342 0.158460
H14   H     H_    0.939996 0.499226 0.188725 0.122666
C33   C     C_3   0.838947 0.653025 0.166667 -0.763424
H15   H     H_    0.929070 0.682241 0.146621 0.203423
H16   H     H_    0.786098 0.638687 0.092932 0.227060
H17   H     H_    0.788534 0.718597 0.215585 0.303708
O10   O     O_3   0.569036 0.654532 0.180115 -0.588268
C34   C     C_3   0.474533 0.741378 0.183857 0.139760
H18   H     H_    0.416636 0.731596 0.249348 0.227276
H19   H     H_    0.411590 0.743716 0.114456 0.103062
C35   C     C_3   0.533321 0.851749 0.200308 -0.908115
H20   H     H_    0.594822 0.863505 0.135766 0.250346
H21   H     H_    0.460215 0.920782 0.203860 0.210526
H22   H     H_    0.588812 0.854147 0.273779 0.267932
O11   O     O_3   0.507040 0.264560 0.186411 -0.571596
C36   C     C_3   0.633984 0.225276 0.185670 0.112812
H23   H     H_    0.698530 0.292961 0.192549 0.101148
H24   H     H_    0.654980 0.176481 0.112860 0.136110
C37   C     C_3   0.663746 0.150332 0.273955 -0.813289
H25   H     H_    0.600363 0.082134 0.270446 0.253635
H26   H     H_    0.760715 0.114061 0.268861 0.199935
H27   H     H_    0.654529 0.199100 0.348474 0.276401
O12   O     O_3   0.407214 0.266098 0.985251 -0.587737
C38   C     C_3   0.492200 0.185321 0.939409 0.127184
H28   H     H_    0.591368 0.204867 0.947900 0.087086
H29   H     H_    0.469033 0.176713 0.855689 0.128714
C39   C     C_3   0.475374 0.073922 0.982726 -0.851198
H30   H     H_    0.380935 0.048198 0.961829 0.257290
H31   H     H_    0.545897 0.011408 0.950418 0.200402
H32   H     H_    0.485374 0.078382 0.067906 0.280913
O13   O     O_3   0.487640 0.735725 0.812629 -0.641723
C40   C     C_3   0.395197 0.808622 0.859827 0.071060
H33   H     H_    0.434427 0.851930 0.929678 0.152855
H34   H     H_    0.315038 0.764647 0.883517 0.134994
C41   C     C_3   0.346530 0.894014 0.784478 -0.887598
H35   H     H_    0.321973 0.852394 0.708801 0.255803
H36   H     H_    0.262537 0.940962 0.815368 0.220178
H37   H     H_    0.417541 0.953516 0.773305 0.240297
C42   C     C_3   0.356089 0.184497 0.382699 -0.767687
H38   H     H_    0.381712 0.140951 0.308015 0.247846
H39   H     H_    0.259048 0.169756 0.395464 0.184997
H40   H     H_    0.360546 0.272362 0.373819 0.309728
O14   O     O_3   0.711969 0.225844 0.614710 -0.591051
C43   C     C_3   0.696532 0.219638 0.721572 0.107234
H41   H     H_    0.724719 0.135152 0.746310 0.113897
H42   H     H_    0.598573 0.241382 0.741976 0.129790
C44   C     C_3   0.776249 0.301122 0.781583 -0.837340
H43   H     H_    0.746891 0.386924 0.761615 0.256482
H44   H     H_    0.765123 0.295097 0.865616 0.194978
H45   H     H_    0.875391 0.281899 0.763595 0.248028
C45   C     C_3   0.796067 0.008815 0.539134 -0.789971
H46   H     H_    0.839535 0.063586 0.487441 0.218583
H47   H     H_    0.843811 0.018461 0.615425 0.236548
H48   H     H_    0.815089 0.924018 0.504477 0.272367
O15   O     O_3   0.282046 0.775980 0.392299 -0.592307
C46   C     C_3   0.207438 0.829410 0.315333 0.025007
H49   H     H_    0.262769 0.878919 0.266825 0.140264
H50   H     H_    0.132315 0.884409 0.351684 0.154717
C47   C     C_3   0.146768 0.744113 0.243805 -0.900411
H51   H     H_    0.061046 0.721884 0.278990 0.263023
H52   H     H_    0.121015 0.780060 0.168885 0.213169
H53   H     H_    0.209912 0.668793 0.229653 0.265595
O16   O     O_3   0.677821 0.803722 0.562246 -0.627740
C48   C     C_3   0.665745 0.801540 0.670190 0.193666
H54   H     H_    0.664427 0.714029 0.688770 0.209689
H55   H     H_    0.581654 0.849254 0.699862 0.177923
C49   C     C_3   0.776885 0.846356 0.729832 -0.936649
H56   H     H_    0.761630 0.937019 0.745236 0.232657
H57   H     H_    0.787611 0.808927 0.805776 0.236125
H58   H     H_    0.863327 0.826629 0.687235 0.276970
C50   C     C_3   0.122376 0.279570 0.545623 -0.907599
H59   H     H_    0.098605 0.254012 0.465700 0.248998
H60   H     H_    0.222070 0.262213 0.563960 0.278957
H61   H     H_    0.075896 0.223671 0.594335 0.228840
C51   C     C_3   0.892466 0.363077 0.342557 -0.946439
H62   H     H_    0.923298 0.295040 0.391352 0.237954
H63   H     H_    0.790600 0.362260 0.334115 0.236573
H64   H     H_    0.931063 0.340446 0.265645 0.215427
C52   C     C_3   0.149519 0.420701 0.319115 -0.882533
H65   H     H_    0.246998 0.443177 0.320839 0.246542
H66   H     H_    0.147243 0.331996 0.331260 0.260126
H67   H     H_    0.117241 0.433059 0.239003 0.223646
O17   O     O_3   0.057185 0.598535 0.685840 -0.626463
C53   C     C_3   0.168521 0.618833 0.740435 0.104954
H68   H     H_    0.175920 0.709350 0.753032 0.174261
H69   H     H_    0.250358 0.580288 0.700358 0.127734
C54   C     C_3   0.163636 0.570108 0.845380 -0.853281
H70   H     H_    0.160028 0.478783 0.835641 0.254587
H71   H     H_    0.246506 0.589060 0.893722 0.216716
H72   H     H_    0.079955 0.605628 0.886186 0.258637

loop_
_geom_bond_atom_site_label_1
_geom_bond_atom_site_label_2
_ccdc_geom_bond_type
C17   O15   S    
C43   H41   S    
C36   H24   S    
C36   H23   S    
C19   C20   A    
C39   H32   S    
C50   H59   S    
C6    C9    A    
C44   H44   S    
C38   H28   S    
C28   O9    S    
C7    C8    A    
O9    C32   S    
C7    C11   A    
C13   O10   S    
C26   C27   S    
C4    C31   S    
C33   H17   S    
C3    C28   S    
C39   H31   S    
C18   C19   A    
C10   C15   A    
C53   H69   S    
O12   C38   S    
C32   H14   S    
O4    Zn2   S    
C42   H40   S    
C45   H46   S    
C33   H16   S    
C3    C52   S    
C44   H43   S    
C48   C49   S    
C35   H20   S    
C39   H30   S    
C1    O2    A    
C47   H52   S    
C51   H62   S    
O8    Zn2   S    
C42   H39   S    
C29   H8    S    
C37   H27   S    
C2    C27   S    
C24   C45   S    
C40   H34   S    
C9    C10   A    
C5    C13   A    
C4    C29   S    
C31   H12   S    
C46   C47   S    
O7    Zn1   S    
C26   H1    S    
C43   H42   S    
C23   O5    A    
C7    H3    S    
C54   H72   S    
O15   C46   S    
C38   H29   S    
C31   H11   S    
C17   N2    A    
C22   O14   S    
C1    C6    S    
C51   H64   S    
C23   O6    A    
C37   H25   S    
C54   H71   S    
C53   C54   S    
C16   C17   A    
C32   C33   S    
O6    Zn2   S    
C34   H19   S    
C41   H37   S    
C33   H15   S    
C8    O13   S    
C52   H67   S    
C2    C4    S    
C29   C30   S    
C4    O17   S    
C27   C50   S    
C1    O1    A    
C15   O12   S    
C5    C23   S    
C16   C20   A    
C34   C35   S    
C22   N1    A    
C42   H38   S    
C29   H9    S    
C41   H36   S    
C48   H54   S    
C31   H10   S    
O17   C53   S    
C40   C41   S    
C25   O7    A    
C5    C14   A    
O1    Zn1   S    
C49   H58   S    
C52   H66   S    
C26   C30   S    
C43   C44   S    
C9    H4    S    
C36   C37   S    
C22   C24   A    
C18   N2    A    
C50   H61   S    
C18   O16   S    
C38   C39   S    
O16   C48   S    
C49   H57   S    
C46   H49   S    
O3    Zn1   S    
C12   C30   S    
C20   C21   A    
C14   O11   S    
C37   H26   S    
O11   C36   S    
C50   H60   S    
C6    C8    A    
C45   H48   S    
C12   O4    A    
C21   C42   S    
O5    Zn1   S    
C47   H53   S    
C54   H70   S    
O10   C34   S    
C28   C30   S    
C2    C3    S    
C12   O3    A    
C53   H68   S    
C16   H6    S    
C11   C13   A    
O2    Zn2   S    
C32   H13   S    
C21   N1    A    
C27   H7    S    
C35   H22   S    
N1    Zn1   S    
C41   H35   S    
C45   H47   S    
C47   H51   S    
C19   C24   A    
C2    C25   S    
C3    H2    S    
C25   O8    A    
C48   H55   S    
C10   C11   A    
C26   H5    S    
O13   C40   S    
C51   H63   S    
C34   H18   S    
C35   H21   S    
C14   C15   A    
C52   H65   S    
O14   C43   S    
C28   C51   S    
C40   H33   S    
N2    Zn2   S    
C44   H45   S    
C49   H56   S    
C46   H50   S    
