data_mof_unit_56246.cif
_audit_creation_date              2012-12-10T18:46:20-0500
_audit_creation_method            fapswitch 2.2
_symmetry_space_group_name_H-M    P1
_symmetry_Int_Tables_number       1
_space_group_crystal_system       triclinic
_cell_length_a                    9.908509
_cell_length_b                    10.648933
_cell_length_c                    13.102242
_cell_angle_alpha                 91.617598
_cell_angle_beta                  70.458958
_cell_angle_gamma                 91.381301
_cell_volume                      1302.1785997

loop_
_atom_site_label
_atom_site_type_symbol
_atom_type_description
_atom_site_fract_x
_atom_site_fract_y
_atom_site_fract_z
_atom_type_partial_charge
C1    C     C_R   0.502629 0.739688 0.497968 0.834505
C2    C     C_R   0.366204 0.510377 0.823219 -0.240559
C3    C     C_R   0.619167 0.935224 0.413948 -0.070213
C4    C     C_R   0.420044 0.503679 0.704439 0.896900
C5    C     C_R   0.614054 0.065878 0.410030 -0.090911
C6    C     C_R   0.500424 0.127955 0.488692 -0.091030
C7    C     C_R   0.390181 0.063939 0.565134 -0.154025
C8    C     C_R   0.393823 0.935860 0.567555 -0.161004
C9    C     C_R   0.507966 0.872416 0.493839 -0.098929
C10   C     C_R   0.953371 0.422510 0.431957 -0.052068
C11   C     C_R   0.097574 0.421818 0.429266 0.015048
C12   C     C_R   0.425849 0.533584 0.987127 0.078963
C13   C     C_R   0.044180 0.579114 0.567461 -0.098302
C14   C     C_R   0.900953 0.579176 0.567274 -0.004021
C15   C     C_R   0.499680 0.260433 0.497339 0.947258
C16   C     C_R   0.579293 0.502298 0.295808 0.958845
C17   C     C_R   0.757482 0.659251 0.032141 -0.174740
C18   C     C_R   0.625435 0.527004 0.180442 -0.047580
C19   C     C_R   0.233527 0.452101 0.881459 0.435603
C20   C     C_R   0.193517 0.441974 0.994608 -0.077958
C21   C     C_R   0.290404 0.481884 0.046144 -0.323986
C22   C     C_2   0.723881 0.136422 0.323111 0.942052
C23   C     C_R   0.453082 0.564914 0.879153 0.049655
C24   C     C_2   0.190960 0.334909 0.344377 0.893695
C25   C     C_2   0.778731 0.780153 0.823569 0.925943
C26   C     C_3   0.041701 0.485511 0.828123 -0.156701
C27   C     C_2   0.053687 0.385430 0.059531 0.944612
C28   C     C_2   0.732731 0.865164 0.329906 0.943001
C29   C     C_R   0.535169 0.555173 0.032477 0.107008
C30   C     C_R   0.654975 0.634261 0.980443 0.098659
C31   C     C_R   0.665278 0.687630 0.880346 -0.159117
C32   C     C_R   0.566235 0.649809 0.830000 -0.270782
C33   C     C_R   0.529063 0.495998 0.127434 -0.228241
C34   C     C_R   0.742672 0.605561 0.131323 -0.137150
H1    H     H_    0.818118 0.630971 0.172244 0.188444
H2    H     H_    0.576995 0.688904 0.752222 0.157700
H3    H     H_    0.931546 0.158129 0.232170 0.378476
H4    H     H_    0.216146 0.231980 0.207181 0.352314
H5    H     H_    0.637950 0.901033 0.799835 0.308072
H6    H     H_    0.984184 0.449217 0.773647 0.189680
H7    H     H_    0.088715 0.579083 0.798619 0.163898
H8    H     H_    0.961576 0.495766 0.910317 0.160111
H9    H     H_    0.893519 0.261734 0.066303 0.363665
H10   H     H_    0.910680 0.760796 0.293401 0.340160
H11   H     H_    0.303578 0.113584 0.624784 0.178254
H12   H     H_    0.308474 0.885972 0.627863 0.166741
H13   H     H_    0.916340 0.361054 0.379339 0.215001
H14   H     H_    0.076127 0.643107 0.621004 0.169682
H15   H     H_    0.825194 0.643222 0.620812 0.147335
H16   H     H_    0.847342 0.722527 0.998944 0.198112
H17   H     H_    0.446164 0.427399 0.164057 0.174237
H18   H     H_    0.257536 0.474321 0.132991 0.204666
N1    N     N_R   0.142790 0.500030 0.500030 -0.116615
N2    N     N_R   0.857180 0.499940 0.500010 -0.103266
O1    O     O_R   0.385370 0.683250 0.500010 -0.619633
O2    O     O_R   0.868698 0.106991 0.294875 -0.764674
O3    O     O_2   0.302829 0.296135 0.348566 -0.571269
O4    O     O_R   0.145710 0.291165 0.259317 -0.823603
O5    O     O_2   0.904211 0.759585 0.809821 -0.650757
O6    O     O_R   0.744758 0.889361 0.781086 -0.735038
O7    O     O_3   0.147774 0.398807 0.826806 -0.566658
O8    O     O_2   0.993766 0.422277 0.152660 -0.629686
O9    O     O_R   0.989755 0.290470 0.014590 -0.741321
O10   O     O_2   0.738632 0.868107 0.235320 -0.637738
O11   O     O_R   0.836735 0.801970 0.358130 -0.744903
O12   O     O_R   0.614700 0.683220 0.500010 -0.590902
O13   O     O_R   0.328400 0.499990 0.653620 -0.588583
O14   O     O_R   0.557730 0.499960 0.653620 -0.620600
O15   O     O_R   0.385300 0.316780 0.499990 -0.552416
O16   O     O_R   0.614630 0.316750 0.499990 -0.626040
O17   O     O_R   0.442270 0.500040 0.346380 -0.603000
O18   O     O_R   0.671600 0.500010 0.346380 -0.584827
O19   O     O_2   0.687124 0.219103 0.275521 -0.630499
Zn1   Zn    Zn3+2 0.346870 0.500020 0.500000 1.008552
Zn2   Zn    Zn3+2 0.653130 0.499980 0.500000 1.002501

loop_
_geom_bond_atom_site_label_1
_geom_bond_atom_site_label_2
_ccdc_geom_bond_type
C17   H16   S    
C25   C31   S    
O17   Zn1   S    
C2    C4    S    
C29   C30   A    
C3    C9    A    
C25   O6    S    
C29   C33   A    
C12   C29   A    
C33   H17   S    
C31   C32   A    
N1    Zn1   S    
C16   O18   A    
C30   C31   A    
C23   C32   A    
C2    C23   A    
C1    O12   A    
C1    O1    A    
H9    O9    S    
O15   Zn1   S    
C7    H11   S    
O13   Zn1   S    
H4    O4    S    
C13   C14   A    
O14   Zn2   S    
C17   C30   A    
C18   C34   A    
C12   C23   A    
C26   H6    S    
H10   O11   S    
C6    C7    A    
C16   O17   A    
C27   O9    S    
C19   O7    S    
O18   Zn2   S    
C10   N2    A    
H5    O6    S    
C32   H2    S    
C24   O4    S    
C3    C28   S    
C20   C27   S    
C26   O7    S    
C28   O11   S    
C13   N1    A    
C5    C6    A    
C15   O15   A    
C18   C33   A    
C8    H12   S    
C14   H15   S    
C10   C11   A    
O12   Zn2   S    
N2    Zn2   S    
C27   O8    D    
C28   O10   D    
C11   C24   S    
C7    C8    A    
C1    C9    S    
C20   C21   A    
C26   H8    S    
C16   C18   S    
C34   H1    S    
C17   C34   A    
C10   H13   S    
C4    O14   A    
C15   O16   A    
C8    C9    A    
O16   Zn2   S    
C22   O2    S    
O1    Zn1   S    
C25   O5    D    
C22   O19   D    
C14   N2    A    
C6    C15   S    
C2    C19   A    
H3    O2    S    
C12   C21   A    
C13   H14   S    
C21   H18   S    
C5    C22   S    
C19   C20   A    
C26   H7    S    
C24   O3    D    
C3    C5    A    
C4    O13   A    
C11   N1    A    
