data_mof_unit_67975.cif
_audit_creation_date              2012-12-10T20:52:09-0500
_audit_creation_method            fapswitch 2.2
_symmetry_space_group_name_H-M    P1
_symmetry_Int_Tables_number       1
_space_group_crystal_system       triclinic
_cell_length_a                    10.72577
_cell_length_b                    8.935721
_cell_length_c                    8.178102
_cell_angle_alpha                 91.473317
_cell_angle_beta                  90.085961
_cell_angle_gamma                 88.0041
_cell_volume                      783.075016456

loop_
_atom_site_label
_atom_site_type_symbol
_atom_type_description
_atom_site_fract_x
_atom_site_fract_y
_atom_site_fract_z
_atom_type_partial_charge
C1    C     C_R   0.500181 0.218227 0.498629 0.936376
C2    C     C_R   0.499819 0.781772 0.501371 0.936374
C3    C     C_R   0.872422 0.503848 0.500507 -0.085340
C4    C     C_R   0.127579 0.496152 0.499490 -0.085339
C5    C     C_R   0.935751 0.591034 0.617288 0.009049
C6    C     C_R   0.064250 0.408965 0.382708 0.009053
C7    C     C_1   0.500035 0.065187 0.498036 -0.233219
C8    C     C_1   0.499966 0.934813 0.501965 -0.233228
C9    C     C_R   0.259864 0.498311 0.499779 0.862425
C10   C     C_R   0.740136 0.501688 0.500220 0.862422
C11   C     C_R   0.223056 0.343213 0.978025 -0.195405
C12   C     C_R   0.776964 0.656762 0.021986 -0.195401
C13   C     C_R   0.154696 0.411052 0.104934 0.137125
C14   C     C_R   0.845315 0.588931 0.895065 0.137124
C15   C     C_R   0.129610 0.329443 0.245246 0.033561
C16   C     C_R   0.870392 0.670547 0.754757 0.033562
C17   C     C_R   0.176177 0.179588 0.257313 0.048116
C18   C     C_R   0.823822 0.820401 0.742703 0.048129
C19   C     C_R   0.248803 0.113656 0.127884 0.239942
C20   C     C_R   0.751204 0.886324 0.872144 0.239951
C21   C     C_R   0.272180 0.198152 0.989757 -0.205261
C22   C     C_R   0.727839 0.801823 0.010270 -0.205272
C23   C     C_R   0.935863 0.414478 0.383588 -0.270336
C24   C     C_R   0.064137 0.585523 0.616407 -0.270326
H1    H     H_    0.329952 0.152646 0.890768 0.162082
H2    H     H_    0.670076 0.847326 0.109269 0.162086
H3    H     H_    0.240939 0.405720 0.871787 0.201954
H4    H     H_    0.759093 0.594249 0.128222 0.201953
H5    H     H_    0.885480 0.349510 0.292814 0.169183
H6    H     H_    0.114520 0.650489 0.707183 0.169181
N1    N     N_1   0.500020 0.500030 0.073640 -0.050624
N2    N     N_1   0.499980 0.499970 0.926360 -0.050623
O1    O     O_R   0.499990 0.285340 0.636850 -0.630598
O2    O     O_R   0.500010 0.714660 0.363150 -0.630597
O3    O     O_R   0.500010 0.285350 0.363100 -0.609365
O4    O     O_R   0.499990 0.714650 0.636900 -0.609369
O5    O     O_R   0.316750 0.500000 0.636870 -0.646086
O6    O     O_R   0.683250 0.500000 0.363130 -0.646089
O7    O     O_R   0.316770 0.500020 0.363120 -0.617101
O8    O     O_R   0.683230 0.499980 0.636880 -0.617095
Zn1   Zn    Zn3+2 0.499990 0.499990 0.682780 0.949884
Zn2   Zn    Zn3+2 0.500010 0.500010 0.317220 0.949882
N3    N     N_3   0.117399 0.566224 0.092930 -0.484866
H7    H     H_    0.022936 0.579326 0.121121 0.205167
H8    H     H_    0.164595 0.627660 0.182134 0.215728
N4    N     N_3   0.882615 0.433758 0.907055 -0.484874
H9    H     H_    0.977077 0.420658 0.878864 0.205168
H10   H     H_    0.835417 0.372328 0.817848 0.215731
N5    N     N_3   0.153446 0.096421 0.401238 -0.490879
H11   H     H_    0.191142 0.153712 0.501768 0.180718
H12   H     H_    0.056995 0.092931 0.417769 0.192064
N6    N     N_3   0.846544 0.903576 0.598782 -0.490878
H13   H     H_    0.808844 0.846289 0.498253 0.180713
H14   H     H_    0.942994 0.907069 0.582243 0.192064
C25   C     C_3   0.307910 0.957628 0.136724 -0.389548
C26   C     C_3   0.269812 0.857234 0.992115 -0.864848
H15   H     H_    0.166625 0.851346 0.985942 0.265034
H16   H     H_    0.304770 0.899116 0.874772 0.252225
H17   H     H_    0.311497 0.743020 0.006897 0.269476
H18   H     H_    0.411063 0.966166 0.136131 0.212880
H19   H     H_    0.282505 0.902251 0.251331 0.230493
C27   C     C_3   0.692096 0.042352 0.863323 -0.389543
C28   C     C_3   0.730241 0.142746 0.007907 -0.864880
H20   H     H_    0.695350 0.100849 0.125275 0.252224
H21   H     H_    0.833428 0.148655 0.013997 0.265045
H22   H     H_    0.688532 0.256952 0.993164 0.269481
H23   H     H_    0.717468 0.097724 0.748699 0.230499
H24   H     H_    0.588943 0.033819 0.863969 0.212865

loop_
_geom_bond_atom_site_label_1
_geom_bond_atom_site_label_2
_ccdc_geom_bond_type
C10   O6    A    
N3    H7    S    
C28   H21   S    
C27   C28   S    
N1    Zn2   S    
C27   H24   S    
N3    H8    S    
C3    C23   A    
N1    N2    T    
O2    Zn2   S    
C26   H17   S    
C11   H3    S    
N2    Zn1   S    
O1    Zn1   S    
C2    O2    A    
C25   C26   S    
C9    O5    A    
C4    C9    S    
C28   H22   S    
C18   N6    S    
C7    C8    T    
C14   N4    S    
C3    C10   S    
C25   H18   S    
N6    H13   S    
O5    Zn1   S    
C11   C13   A    
O4    Zn1   S    
C5    C24   A    
C27   H23   S    
C12   H4    S    
C6    C23   A    
C23   H5    S    
C4    C6    A    
O8    Zn1   S    
C19   C21   A    
C26   H16   S    
N6    H14   S    
O6    Zn2   S    
O7    Zn2   S    
C18   C20   A    
C13   C15   A    
C20   C27   S    
C4    C24   A    
C14   C16   A    
C24   H6    S    
N5    H12   S    
C20   C22   A    
C19   C25   S    
C28   H20   S    
N4    H10   S    
C12   C22   A    
C13   N3    S    
C2    O4    A    
C26   H15   S    
C1    O3    A    
C16   C18   A    
N5    H11   S    
C22   H2    S    
C25   H19   S    
C17   N5    S    
C15   C17   A    
O3    Zn2   S    
C21   H1    S    
N4    H9    S    
C10   O8    A    
C17   C19   A    
C6    C15   S    
C1    C7    S    
C5    C16   S    
C11   C21   A    
C9    O7    A    
C2    C8    S    
C1    O1    A    
C12   C14   A    
C3    C5    A    
