data_mof_unit_35644.cif
_audit_creation_date              2012-12-11T17:02:22-0500
_audit_creation_method            fapswitch 2.2
_symmetry_space_group_name_H-M    P1
_symmetry_Int_Tables_number       1
_space_group_crystal_system       triclinic
_cell_length_a                    21.719608
_cell_length_b                    7.050081
_cell_length_c                    15.232662
_cell_angle_alpha                 90.454664
_cell_angle_beta                  108.566224
_cell_angle_gamma                 90.338178
_cell_volume                      2210.95221324

loop_
_atom_site_label
_atom_site_type_symbol
_atom_type_description
_atom_site_fract_x
_atom_site_fract_y
_atom_site_fract_z
_atom_type_partial_charge
O1    O     O_R   0.585850 0.505770 0.002130 -0.538303
O2    O     O_R   0.414150 0.005770 0.997870 -0.538496
O3    O     O_R   0.467530 0.173560 0.861970 -0.540783
O4    O     O_R   0.532470 0.673560 0.138030 -0.540938
C1    C     C_R   0.453850 0.342848 0.825541 0.682736
C2    C     C_R   0.545300 0.845936 0.174103 0.688096
O5    O     O_R   0.588690 0.175900 0.993250 -0.545905
O6    O     O_R   0.411310 0.675900 0.006750 -0.547962
O7    O     O_R   0.536170 0.007950 0.130090 -0.537577
O8    O     O_R   0.463830 0.507950 0.869910 -0.540004
C3    C     C_R   0.615179 0.345817 0.998400 0.715823
C4    C     C_R   0.384364 0.844927 0.998724 0.712083
O9    O     O_3   0.482630 0.339970 0.044740 -0.374667
O10   O     O_3   0.517370 0.839970 0.955260 -0.375957
V1    V     V_3+5 0.503220 0.064200 0.991700 1.412988
V2    V     V_3+5 0.496780 0.564200 0.008300 1.410231
C5    C     C_R   0.281583 0.027057 0.982290 0.102859
C6    C     C_R   0.720193 0.522587 0.017757 0.110876
C7    C     C_R   0.316332 0.857375 0.998749 -0.143439
C8    C     C_R   0.682090 0.358812 0.992777 -0.140102
C9    C     C_R   0.286222 0.700172 0.022889 -0.316611
C10   C     C_R   0.707651 0.210492 0.953165 -0.324667
H1    H     H_    0.312942 0.569194 0.035771 0.132637
H2    H     H_    0.675329 0.092131 0.926034 0.125841
C11   C     C_R   0.222892 0.709916 0.031709 0.405161
C12   C     C_R   0.773086 0.215178 0.949203 0.409439
C13   C     C_R   0.185392 0.877323 0.003489 -0.183980
C14   C     C_R   0.813537 0.376022 0.989166 -0.180456
C15   C     C_R   0.217636 0.034895 0.982855 0.060882
C16   C     C_R   0.783215 0.530422 0.016147 0.056943
C17   C     C_3   0.197711 0.163520 0.901910 -0.398231
C18   C     C_3   0.803606 0.671506 0.093741 -0.387441
C19   C     C_3   0.267366 0.155346 0.900726 -0.419718
C20   C     C_3   0.734121 0.658804 0.097428 -0.442918
H3    H     H_    0.184121 0.305323 0.921498 0.207724
H4    H     H_    0.815619 0.812176 0.070775 0.194378
H5    H     H_    0.162047 0.096062 0.840065 0.186999
H6    H     H_    0.841091 0.617055 0.155786 0.202394
H7    H     H_    0.293540 0.293415 0.918483 0.168312
H8    H     H_    0.706936 0.793430 0.078209 0.172665
H9    H     H_    0.272214 0.083333 0.838051 0.171940
H10   H     H_    0.730721 0.591243 0.161452 0.167283
C21   C     C_R   0.932166 0.889323 0.724615 -0.177399
C22   C     C_R   0.061237 0.374588 0.277425 -0.208058
C23   C     C_R   0.575601 0.863086 0.273925 -0.025225
C24   C     C_R   0.422273 0.339422 0.724926 -0.032412
C25   C     C_R   0.949219 0.874959 0.574573 0.385852
C26   C     C_R   0.048659 0.442973 0.427632 0.406039
C27   C     C_R   0.973330 0.854410 0.672202 0.273853
C28   C     C_R   0.021064 0.427309 0.330206 0.336121
C29   C     C_R   0.868947 0.948666 0.681999 -0.320859
C30   C     C_R   0.121146 0.292381 0.322862 -0.316267
C31   C     C_R   0.840472 0.938896 0.585321 0.029462
C32   C     C_R   0.151796 0.318719 0.418761 0.027683
C33   C     C_R   0.881361 0.896095 0.531522 -0.016900
C34   C     C_R   0.115671 0.407316 0.469764 -0.032415
C35   C     C_R   0.772242 0.960998 0.541493 0.106092
C36   C     C_R   0.218645 0.274233 0.463482 0.108296
C37   C     C_R   0.744423 0.918410 0.445135 0.066914
C38   C     C_R   0.250808 0.340514 0.555856 0.061991
C39   C     C_R   0.786841 0.881201 0.393406 -0.222381
C40   C     C_R   0.213044 0.430484 0.603852 -0.211101
C41   C     C_R   0.853825 0.874487 0.435547 -0.170714
C42   C     C_R   0.146840 0.458554 0.562155 -0.165150
C43   C     C_R   0.730715 0.019291 0.591518 -0.207920
C44   C     C_R   0.254640 0.168983 0.417977 -0.200559
C45   C     C_R   0.663885 0.017936 0.551482 -0.208189
C46   C     C_R   0.321322 0.150396 0.455684 -0.208477
C47   C     C_R   0.635579 0.962154 0.459622 0.143334
C48   C     C_R   0.354338 0.225584 0.542902 0.141924
C49   C     C_R   0.675172 0.914125 0.404382 0.078178
C50   C     C_R   0.319607 0.315816 0.596190 0.075474
C51   C     C_R   0.567603 0.957854 0.422140 -0.158311
C52   C     C_R   0.421792 0.202788 0.578797 -0.161474
C53   C     C_R   0.537820 0.909852 0.329579 -0.171825
C54   C     C_R   0.455333 0.258006 0.669238 -0.163433
C55   C     C_R   0.643462 0.863170 0.310735 -0.214863
C56   C     C_R   0.355238 0.372490 0.688227 -0.220218
H11   H     H_    0.883861 0.844353 0.392430 0.187636
H12   H     H_    0.120602 0.530031 0.601575 0.169861
H13   H     H_    0.669791 0.827162 0.263806 0.092651
H14   H     H_    0.331865 0.430220 0.735096 0.098600
H15   H     H_    0.485362 0.914285 0.300629 0.101277
H16   H     H_    0.506704 0.227658 0.697603 0.103636
H17   H     H_    0.634011 0.060594 0.593173 0.120434
H18   H     H_    0.347171 0.072880 0.416752 0.122156
H19   H     H_    0.843076 0.996835 0.727206 0.162982
H20   H     H_    0.143941 0.216810 0.280759 0.153761
H21   H     H_    0.769905 0.857626 0.319605 0.129640
H22   H     H_    0.233222 0.482471 0.673923 0.124275
H23   H     H_    0.748202 0.069507 0.662072 0.136021
H24   H     H_    0.232174 0.095482 0.353418 0.126804
H25   H     H_    0.537440 0.995504 0.464135 0.106881
H26   H     H_    0.448297 0.134380 0.538056 0.106712
O11   O     O_R   0.036080 0.231270 0.130120 -0.555853
O12   O     O_R   0.963920 0.731270 0.869880 -0.559483
O13   O     O_R   0.911300 0.558970 0.006750 -0.547061
O14   O     O_R   0.088700 0.058970 0.993250 -0.545893
C57   C     C_R   0.883784 0.389089 0.997016 0.706823
C58   C     C_R   0.115662 0.889711 0.999342 0.732672
O15   O     O_R   0.032450 0.561140 0.138040 -0.527835
O16   O     O_R   0.967550 0.061140 0.861960 -0.539275
O17   O     O_R   0.085870 0.728910 0.002130 -0.509046
O18   O     O_R   0.914130 0.228910 0.997870 -0.520058
C59   C     C_R   0.040423 0.390783 0.175280 0.752973
C60   C     C_R   0.957010 0.892413 0.825440 0.786237
O19   O     O_3   0.017320 0.394650 0.955270 -0.376317
O20   O     O_3   0.982680 0.894650 0.044730 -0.378789
V3    V     V_3+5 0.996780 0.670490 0.008300 1.477147
V4    V     V_3+5 0.003220 0.170490 0.991700 1.461127
O21   O     O_3   0.988709 0.858652 0.518736 -0.535083
C61   C     C_3   0.045894 0.970313 0.551473 -0.117853
H27   H     H_    0.086799 0.882411 0.593189 0.177399
H28   H     H_    0.040480 0.098298 0.591722 0.106769
H29   H     H_    0.059055 0.020288 0.490868 0.128579
O22   O     O_3   0.012971 0.509529 0.482220 -0.536550
C62   C     C_3   0.959022 0.391154 0.476046 -0.156731
H30   H     H_    0.962322 0.246051 0.448711 0.122115
H31   H     H_    0.914037 0.461293 0.433253 0.194509
H32   H     H_    0.954760 0.374327 0.546174 0.105642
O23   O     O_3   0.038076 0.818186 0.717608 -0.570508
C63   C     C_3   0.046424 0.620296 0.725554 0.075276
H33   H     H_    0.034902 0.553411 0.656190 0.167411
H34   H     H_    0.014875 0.554384 0.762112 0.137372
C64   C     C_3   0.116737 0.578910 0.779968 -0.738131
H35   H     H_    0.150129 0.667883 0.755241 0.220091
H36   H     H_    0.125693 0.609133 0.854480 0.232286
H37   H     H_    0.126798 0.427428 0.770594 0.179951
O24   O     O_3   0.955081 0.458654 0.289149 -0.557790
C65   C     C_3   0.923555 0.288015 0.247126 0.080069
H38   H     H_    0.951452 0.156436 0.274036 0.115945
H39   H     H_    0.916064 0.293870 0.172104 0.125304
C66   C     C_3   0.857100 0.266972 0.260662 -0.755970
H40   H     H_    0.833729 0.406259 0.260254 0.230404
H41   H     H_    0.824920 0.175840 0.204699 0.194779
H42   H     H_    0.862010 0.198595 0.327717 0.205766
O25   O     O_3   0.195846 0.556993 0.064070 -0.546495
C67   C     C_3   0.243857 0.447534 0.127805 0.081679
H43   H     H_    0.282807 0.537198 0.176147 0.117419
H44   H     H_    0.265471 0.345471 0.090534 0.133151
C68   C     C_3   0.213122 0.335768 0.186027 -0.730866
H45   H     H_    0.249336 0.235934 0.228957 0.169851
H46   H     H_    0.197981 0.437312 0.231081 0.223905
H47   H     H_    0.170643 0.254374 0.141305 0.233960
O26   O     O_3   0.799251 0.070012 0.908304 -0.552322
C69   C     C_3   0.754326 0.922107 0.867425 0.076860
H48   H     H_    0.712859 0.977608 0.809841 0.114619
H49   H     H_    0.736208 0.855556 0.920250 0.133759
C70   C     C_3   0.786190 0.764328 0.828628 -0.713534
H50   H     H_    0.778044 0.784347 0.753979 0.194144
H51   H     H_    0.838852 0.757363 0.866832 0.246596
H52   H     H_    0.763221 0.625779 0.833948 0.178334

loop_
_geom_bond_atom_site_label_1
_geom_bond_atom_site_label_2
_ccdc_geom_bond_type
C44   C46   A    
O14   V4    S    
C2    C23   S    
C13   C15   A    
C5    C15   A    
C52   H26   S    
C65   H39   S    
O21   C61   S    
O1    C3    A    
C51   H25   S    
O2    C4    A    
C54   H16   S    
C2    O7    A    
C24   C54   A    
O26   C69   S    
C70   H50   S    
C25   C27   A    
C41   H11   S    
C22   C59   S    
O20   V3    S    
O5    C3    A    
C19   H7    S    
C52   C54   A    
C20   H8    S    
C18   H4    S    
C7    C9    A    
C69   H48   S    
C62   H31   S    
C35   C37   A    
C38   C50   A    
C36   C38   A    
C46   H18   S    
O22   C62   S    
C38   C40   A    
C39   C41   A    
C50   C56   A    
O11   C59   A    
C42   H12   S    
C36   C44   A    
C39   H21   S    
C20   H10   S    
C43   C45   A    
C33   C41   A    
C48   C52   A    
C66   H42   S    
C40   C42   A    
C17   C19   S    
C47   C51   A    
C6    C16   A    
C18   H6    S    
C16   C18   S    
C6    C8    A    
C26   C34   A    
C26   O22   S    
C22   C30   A    
O5    V1    S    
C57   O18   A    
O25   C67   S    
C47   C49   A    
O6    V2    S    
O19   V3    S    
C70   H51   S    
C5    C19   S    
C61   H28   S    
C61   H27   S    
O13   C57   A    
C30   C32   A    
C69   H49   S    
C31   C33   A    
O15   C59   A    
C3    C8    S    
C32   C34   A    
C13   C58   S    
C45   H17   S    
C37   C39   A    
O12   C60   A    
C53   H15   S    
C30   H20   S    
O4    C2    A    
C62   H32   S    
C29   H19   S    
C24   C56   A    
C31   C35   A    
C21   C27   A    
C44   H24   S    
O11   V4    S    
C58   O17   A    
C17   H5    S    
C29   C31   A    
C21   C60   S    
C18   C20   S    
O4    V2    S    
C12   O26   S    
C11   O25   S    
C28   O24   S    
C64   H37   S    
C69   C70   S    
O13   V3    S    
C56   H14   S    
C55   H13   S    
O6    C4    A    
C27   O23   S    
C34   C42   A    
O1    V2    S    
C64   H36   S    
O2    V1    S    
C6    C20   S    
O23   C63   S    
O12   V3    S    
C67   H44   S    
C14   C57   S    
C8    C10   A    
O14   C58   A    
C9    H1    S    
C64   H35   S    
O19   V4    S    
C17   H3    S    
C70   H52   S    
C65   C66   S    
C51   C53   A    
C63   H34   S    
C49   C55   A    
O3    V1    S    
C25   C33   A    
O24   C65   S    
C32   C36   A    
C22   C28   A    
C43   H23   S    
C9    C11   A    
C35   C43   A    
O3    C1    A    
C67   C68   S    
C48   C50   A    
O20   V4    S    
C68   H47   S    
C11   C13   A    
C1    C24   S    
C12   C14   A    
C23   C53   A    
O17   V3    S    
C19   H9    S    
C63   C64   S    
C68   H46   S    
C65   H38   S    
O7    V1    S    
C1    O8    A    
C15   C17   S    
O8    V2    S    
C68   H45   S    
O18   V4    S    
C21   C29   A    
C66   H40   S    
C25   O21   S    
C40   H22   S    
C4    C7    S    
C26   C28   A    
C5    C7    A    
C14   C16   A    
O16   C60   A    
C10   H2    S    
O16   V4    S    
C67   H43   S    
C46   C48   A    
C10   C12   A    
O9    V2    S    
C66   H41   S    
O10   V1    S    
C23   C55   A    
C45   C47   A    
C63   H33   S    
C62   H30   S    
O15   V3    S    
C61   H29   S    
C37   C49   A    
