data_mof_unit_51914.cif
_audit_creation_date              2012-12-10T17:45:31-0500
_audit_creation_method            fapswitch 2.2
_symmetry_space_group_name_H-M    P1
_symmetry_Int_Tables_number       1
_space_group_crystal_system       triclinic
_cell_length_a                    11.5193
_cell_length_b                    10.633892
_cell_length_c                    9.973601
_cell_angle_alpha                 89.127938
_cell_angle_beta                  91.3945
_cell_angle_gamma                 91.80224
_cell_volume                      1220.62244139

loop_
_atom_site_label
_atom_site_type_symbol
_atom_type_description
_atom_site_fract_x
_atom_site_fract_y
_atom_site_fract_z
_atom_type_partial_charge
C1    C     C_R   0.502992 0.260805 0.500986 0.871214
C2    C     C_R   0.784348 0.071923 0.702345 -0.122327
C3    C     C_R   0.785493 0.941179 0.700114 -0.137302
C4    C     C_R   0.696734 0.873515 0.633150 -0.193323
C5    C     C_R   0.603925 0.936426 0.568588 0.098653
C6    C     C_R   0.602694 0.068274 0.570943 0.094929
C7    C     C_R   0.510819 0.128514 0.502466 -0.101152
C8    C     C_R   0.425324 0.062299 0.429424 -0.206385
C9    C     C_R   0.426573 0.934021 0.426918 -0.215079
C10   C     C_R   0.513240 0.871862 0.497986 -0.091613
C11   C     C_R   0.368939 0.309520 0.133004 0.044761
C12   C     C_R   0.282222 0.500270 0.498766 0.918383
C13   C     C_R   0.350099 0.195367 0.066345 -0.170554
C14   C     C_R   0.348828 0.196793 0.927352 -0.243252
C15   C     C_R   0.381814 0.306563 0.859215 -0.143349
C16   C     C_R   0.441118 0.405076 0.926978 0.160236
C17   C     C_R   0.438392 0.405810 0.070695 0.042036
C18   C     C_R   0.558155 0.589986 0.071569 -0.097731
C19   C     C_R   0.557536 0.590374 0.928867 -0.103788
C20   C     C_R   0.504344 0.739246 0.499298 0.857621
C21   C     C_R   0.717805 0.500313 0.501316 0.871040
C22   C     C_1   0.161613 0.500351 0.496869 -0.159596
C23   C     C_1   0.059346 0.500271 0.498492 0.012408
C24   C     C_1   0.940671 0.500204 0.501918 0.003677
C25   C     C_1   0.838402 0.500233 0.503445 -0.185995
C26   C     C_R   0.694407 0.135510 0.637691 -0.169967
H1    H     H_    0.356157 0.110043 0.376362 0.199479
H2    H     H_    0.311557 0.117389 0.872858 0.167665
H3    H     H_    0.356305 0.313302 0.755933 0.206954
H4    H     H_    0.604854 0.664400 0.875879 0.145967
H5    H     H_    0.698741 0.237115 0.639069 0.154873
H6    H     H_    0.854031 0.124354 0.753091 0.142538
H7    H     H_    0.856056 0.892068 0.749117 0.139248
H8    H     H_    0.702819 0.772330 0.630712 0.143878
H9    H     H_    0.357994 0.882768 0.372480 0.156467
H10   H     H_    0.605989 0.663595 0.124862 0.148075
H11   H     H_    0.307627 0.115845 0.116247 0.174316
N1    N     N_R   0.498930 0.498800 0.142780 -0.120318
N2    N     N_R   0.498900 0.498720 0.857170 -0.114373
O1    O     O_R   0.500000 0.316780 0.614690 -0.645107
O2    O     O_R   0.499990 0.316750 0.385360 -0.600170
O3    O     O_R   0.334450 0.500030 0.614670 -0.630431
O4    O     O_R   0.334440 0.500000 0.385330 -0.629139
O5    O     O_R   0.500010 0.683250 0.614640 -0.619195
O6    O     O_R   0.500000 0.683220 0.385310 -0.620255
O7    O     O_R   0.665560 0.500000 0.614670 -0.624116
O8    O     O_R   0.665550 0.499970 0.385330 -0.599286
Zn1   Zn    Zn3+2 0.500010 0.500020 0.653130 0.933335
Zn2   Zn    Zn3+2 0.499990 0.499980 0.346870 0.954611
C27   C     C_2   0.264998 0.345085 0.204287 0.448869
H12   H     H_    0.229601 0.437429 0.185979 0.069965
O9    O     O_2   0.214239 0.270848 0.278890 -0.617397

loop_
_geom_bond_atom_site_label_1
_geom_bond_atom_site_label_2
_ccdc_geom_bond_type
C8    C9    A    
C27   O9    D    
C23   C24   S    
C6    C7    A    
O8    Zn2   S    
C9    C10   A    
N2    Zn1   S    
C13   H11   S    
C20   O6    A    
O6    Zn2   S    
C2    C3    A    
C18   N1    A    
O4    Zn2   S    
C26   H5    S    
C2    C26   A    
N1    Zn2   S    
O3    Zn1   S    
C13   C14   A    
C11   C13   A    
C6    C26   A    
C12   O3    A    
C19   N2    A    
C1    O2    A    
C20   O5    A    
C15   H3    S    
C12   O4    A    
O7    Zn1   S    
C17   N1    A    
C22   C23   T    
C5    C6    A    
C4    H8    S    
C7    C8    A    
C3    H7    S    
C16   N2    A    
C9    H9    S    
C15   C16   A    
C12   C22   S    
C5    C10   A    
C18   C19   A    
C24   C25   T    
C2    H6    S    
C21   O7    A    
O2    Zn2   S    
C11   C27   S    
C8    H1    S    
O1    Zn1   S    
C14   C15   A    
C16   C17   A    
C21   C25   S    
C27   H12   S    
C1    O1    A    
C14   H2    S    
C1    C7    S    
C19   H4    S    
C18   H10   S    
C11   C17   A    
C3    C4    A    
O5    Zn1   S    
C10   C20   S    
C4    C5    A    
C21   O8    A    
