data_mof_unit_49654.cif
_audit_creation_date              2012-12-11T15:37:04-0500
_audit_creation_method            fapswitch 2.2
_symmetry_space_group_name_H-M    P1
_symmetry_Int_Tables_number       1
_space_group_crystal_system       triclinic
_cell_length_a                    15.057409
_cell_length_b                    15.057695
_cell_length_c                    34.838078
_cell_angle_alpha                 91.363995
_cell_angle_beta                  91.90494
_cell_angle_gamma                 60.1231
_cell_volume                      6845.03520796

loop_
_atom_site_label
_atom_site_type_symbol
_atom_type_description
_atom_site_fract_x
_atom_site_fract_y
_atom_site_fract_z
_atom_type_partial_charge
C1    C     C_R   0.610498 0.303025 0.443915 0.542388
C2    C     C_R   0.593380 0.101093 0.763301 -0.105432
C3    C     C_R   0.103349 0.765755 0.890133 -0.144713
C4    C     C_R   0.147905 0.751747 0.854577 -0.126167
C5    C     C_R   0.166130 0.667232 0.831556 0.005250
C6    C     C_R   0.147297 0.592332 0.846107 -0.112560
C7    C     C_R   0.102220 0.605350 0.881818 0.058786
C8    C     C_R   0.255529 0.569772 0.772500 -0.116898
C9    C     C_R   0.264717 0.564998 0.732740 -0.115238
C10   C     C_R   0.210903 0.654158 0.710816 0.026737
C11   C     C_R   0.151173 0.748653 0.729082 -0.107490
C12   C     C_R   0.140840 0.753336 0.768724 -0.104600
C13   C     C_R   0.591100 0.174941 0.789390 0.026003
C14   C     C_R   0.637076 0.741391 0.158544 -0.098511
C15   C     C_R   0.191205 0.663641 0.790743 0.031841
C16   C     C_R   0.242276 0.711534 0.649231 -0.125090
C17   C     C_R   0.257724 0.698816 0.609975 -0.141019
C18   C     C_R   0.208406 0.567102 0.608467 0.051200
C19   C     C_R   0.196434 0.578640 0.648339 -0.117690
C20   C     C_R   0.216329 0.648264 0.668826 -0.006542
C21   C     C_R   0.247270 0.622594 0.589427 -0.005396
C22   C     C_R   0.672241 0.079584 0.906232 0.018909
C23   C     C_R   0.597076 0.065173 0.886758 -0.112653
C24   C     C_R   0.546287 0.198308 0.640980 -0.107010
C25   C     C_R   0.565943 0.100956 0.849286 -0.102503
C26   C     C_2   0.535877 0.829522 0.830188 0.549323
C27   C     C_2   0.482232 0.807187 0.605324 0.582867
C28   C     C_2   0.754673 0.473598 0.213988 0.559087
C29   C     C_2   0.079432 0.525342 0.893458 0.584557
C30   C     C_2   0.178754 0.497766 0.588086 0.587906
C31   C     C_R   0.817247 0.612391 0.159241 -0.079792
C32   C     C_R   0.550437 0.220303 0.602580 -0.110949
C33   C     C_R   0.688001 0.255109 0.618901 -0.122439
C34   C     C_R   0.682770 0.234582 0.657299 -0.119306
C35   C     C_R   0.609737 0.209234 0.668776 0.024509
C36   C     C_R   0.619086 0.252171 0.591429 0.020504
C37   C     C_R   0.045926 0.738939 0.048468 0.538258
C38   C     C_R   0.724558 0.667801 0.178325 0.075737
C39   C     C_R   0.746875 0.745868 0.063741 0.541655
C40   C     C_R   0.751205 0.040660 0.050600 0.541731
C41   C     C_R   0.017122 0.722216 0.939568 0.557580
C42   C     C_R   0.716819 0.730483 0.954869 0.547243
C43   C     C_R   0.823296 0.633476 0.120956 -0.123337
C44   C     C_R   0.721295 0.024425 0.942054 0.543328
C45   C     C_R   0.737556 0.565372 0.236937 0.062370
C46   C     C_R   0.732623 0.562844 0.277058 -0.119079
C47   C     C_R   0.709416 0.649677 0.299817 0.000877
C48   C     C_R   0.694656 0.739003 0.282542 -0.123794
C49   C     C_R   0.608799 0.152506 0.830962 0.027213
C50   C     C_R   0.700729 0.742451 0.242979 -0.149660
C51   C     C_R   0.720803 0.657110 0.219886 -0.001985
C52   C     C_R   0.600774 0.729090 0.356772 -0.116205
C53   C     C_R   0.593309 0.610114 0.449414 0.550443
C54   C     C_R   0.572342 0.719992 0.393498 -0.123162
C55   C     C_R   0.727520 0.555394 0.400274 -0.120497
C56   C     C_R   0.755668 0.564405 0.363542 -0.119200
C57   C     C_R   0.690550 0.649397 0.340987 0.033036
C58   C     C_R   0.633402 0.631026 0.414898 0.024010
C59   C     C_R   0.104390 0.727847 0.084552 0.022119
C60   C     C_R   0.678523 0.172908 0.851585 -0.115326
C61   C     C_R   0.153119 0.632894 0.103236 -0.123804
C62   C     C_R   0.178588 0.627476 0.142203 -0.120210
C63   C     C_R   0.156958 0.716571 0.162975 0.029618
C64   C     C_R   0.119268 0.809500 0.143556 -0.120979
C65   C     C_R   0.303926 0.591408 0.442338 0.547030
C66   C     C_R   0.092996 0.815202 0.104462 -0.126448
C67   C     C_R   0.216395 0.751148 0.226581 -0.113094
C68   C     C_R   0.223115 0.743263 0.266590 -0.111918
C69   C     C_R   0.173239 0.699651 0.285719 0.029055
C70   C     C_R   0.113921 0.667312 0.264145 -0.117904
C71   C     C_R   0.709972 0.136732 0.888779 -0.121148
C72   C     C_R   0.108496 0.673867 0.224273 -0.116718
C73   C     C_R   0.161114 0.714085 0.205198 0.026591
C74   C     C_R   0.205232 0.587073 0.342112 -0.119246
C75   C     C_R   0.234793 0.561583 0.380414 -0.122384
C76   C     C_R   0.229219 0.723847 0.390960 -0.124638
C77   C     C_R   0.605376 0.301051 0.553882 0.539797
C78   C     C_R   0.198925 0.749663 0.352643 -0.120624
C79   C     C_R   0.189987 0.680037 0.327520 0.032213
C80   C     C_R   0.250742 0.628069 0.404857 0.023503
C81   C     C_R   0.723591 0.100873 0.086508 0.023524
C82   C     C_R   0.584979 0.264377 0.775140 -0.117091
C83   C     C_R   0.797457 0.114780 0.107240 -0.128126
C84   C     C_R   0.781357 0.147435 0.145430 -0.121387
C85   C     C_R   0.690869 0.167598 0.163232 0.029798
C86   C     C_R   0.613052 0.163302 0.141456 -0.120514
C87   C     C_R   0.629394 0.129892 0.103366 -0.122435
C88   C     C_R   0.592098 0.255486 0.221804 -0.100919
C89   C     C_R   0.587948 0.606599 0.559170 0.564603
C90   C     C_R   0.582777 0.261528 0.261599 -0.104322
C91   C     C_R   0.663693 0.191545 0.285400 0.032444
C92   C     C_R   0.754317 0.116012 0.268694 -0.106229
C93   C     C_R   0.588335 0.276438 0.735786 -0.117373
C94   C     C_R   0.763858 0.110485 0.228969 -0.098652
C95   C     C_R   0.682789 0.180012 0.205228 0.039986
C96   C     C_R   0.738254 0.192018 0.350340 -0.115047
C97   C     C_R   0.726108 0.216587 0.389295 -0.122733
C98   C     C_R   0.550343 0.252643 0.384096 -0.126848
C99   C     C_R   0.562628 0.227814 0.345078 -0.123544
C100  C     C_R   0.655434 0.201285 0.327578 0.031066
C101  C     C_R   0.298236 0.589237 0.552003 0.561445
C102  C     C_R   0.630718 0.251491 0.406154 0.021976
C103  C     C_R   0.689500 0.694438 0.919065 0.004893
C104  C     C_R   0.596679 0.199883 0.709942 0.025612
C105  C     C_R   0.747593 0.592913 0.906401 -0.104319
C106  C     C_R   0.736066 0.566406 0.868601 -0.134071
C107  C     C_R   0.666930 0.641173 0.842825 -0.000966
C108  C     C_R   0.604680 0.743388 0.855934 0.064483
C109  C     C_R   0.614624 0.767505 0.894261 -0.121924
C110  C     C_R   0.574794 0.631780 0.783259 -0.073200
C111  C     C_R   0.569407 0.627369 0.743260 -0.095859
C112  C     C_R   0.656051 0.602216 0.721654 0.032028
C113  C     C_R   0.736835 0.710990 0.101578 0.020219
C114  C     C_R   0.749666 0.575283 0.740575 -0.103087
C115  C     C_R   0.595655 0.113765 0.723820 -0.105633
C116  C     C_R   0.754665 0.581215 0.780555 -0.094454
C117  C     C_R   0.666314 0.613338 0.801975 0.047243
C118  C     C_R   0.714410 0.527595 0.656583 -0.131977
C119  C     C_R   0.700518 0.532131 0.616830 -0.142832
C120  C     C_R   0.558349 0.706994 0.621946 0.046687
C121  C     C_R   0.571232 0.699757 0.662091 -0.119215
C122  C     C_R   0.647096 0.609584 0.679485 -0.000573
C123  C     C_R   0.619357 0.619209 0.598957 0.005690
C124  C     C_R   0.075839 0.695620 0.903721 -0.004966
C125  C     C_R   0.643024 0.762730 0.120393 -0.122563
Cr1   Cr    Cr6+3 0.426010 0.422500 0.497000 1.047426
Cr2   Cr    Cr6+3 0.651300 0.426310 0.501970 1.019407
Cr3   Cr    Cr6+3 0.422670 0.651170 0.501050 1.040901
Cr4   Cr    Cr6+3 0.905130 0.911420 0.992650 1.016478
Cr5   Cr    Cr6+3 0.911860 0.682710 0.002320 1.046900
Cr6   Cr    Cr6+3 0.682710 0.906840 0.004710 1.023084
H1    H     H_    0.575145 0.822542 0.106135 0.130029
H2    H     H_    0.209311 0.554767 0.156703 0.107555
H3    H     H_    0.072849 0.635516 0.278058 0.106732
H4    H     H_    0.896707 0.592809 0.107211 0.127303
H5    H     H_    0.063368 0.647111 0.208199 0.107830
H6    H     H_    0.251243 0.487014 0.390170 0.129054
H7    H     H_    0.102397 0.878971 0.159209 0.105779
H8    H     H_    0.240318 0.776953 0.409198 0.125391
H9    H     H_    0.570882 0.120560 0.087935 0.124622
H10   H     H_    0.498302 0.233288 0.328270 0.101478
H11   H     H_    0.512904 0.321988 0.273775 0.107168
H12   H     H_    0.499606 0.779623 0.404077 0.130211
H13   H     H_    0.528768 0.309877 0.203960 0.108218
H14   H     H_    0.826030 0.502856 0.352066 0.111274
H15   H     H_    0.841696 0.151810 0.161671 0.121193
H16   H     H_    0.817409 0.060522 0.286325 0.104126
H17   H     H_    0.833681 0.050079 0.216712 0.106721
H18   H     H_    0.810575 0.172098 0.337620 0.112082
H19   H     H_    0.789619 0.214523 0.405596 0.130667
H20   H     H_    0.542684 0.178407 0.154656 0.103362
H21   H     H_    0.804478 0.535121 0.925297 0.123437
H22   H     H_    0.570334 0.846563 0.903679 0.161627
H23   H     H_    0.885521 0.555985 0.174431 0.108477
H24   H     H_    0.741176 0.494745 0.290508 0.144603
H25   H     H_    0.496959 0.646588 0.729088 0.112590
H26   H     H_    0.506198 0.655811 0.799474 0.115303
H27   H     H_    0.784017 0.488095 0.858957 0.114155
H28   H     H_    0.825849 0.566764 0.794609 0.124761
H29   H     H_    0.774553 0.457945 0.669568 0.112897
H30   H     H_    0.749883 0.464172 0.600325 0.138935
H31   H     H_    0.087362 0.834020 0.906467 0.138634
H32   H     H_    0.170703 0.533988 0.663609 0.152726
H33   H     H_    0.312945 0.491684 0.719009 0.120589
H34   H     H_    0.776777 0.486373 0.416272 0.131349
H35   H     H_    0.296561 0.499796 0.788844 0.113893
H36   H     H_    0.164444 0.809285 0.844425 0.121069
H37   H     H_    0.109245 0.818133 0.712492 0.115396
H38   H     H_    0.089285 0.826495 0.781827 0.110845
H39   H     H_    0.256408 0.766786 0.664664 0.139430
H40   H     H_    0.285360 0.744063 0.596365 0.168773
H41   H     H_    0.160584 0.526812 0.828429 0.123871
H42   H     H_    0.565106 0.784720 0.173112 0.108714
H43   H     H_    0.566822 0.021218 0.899565 0.139619
H44   H     H_    0.767654 0.149338 0.903200 0.129104
H45   H     H_    0.163919 0.564116 0.088546 0.129408
H46   H     H_    0.733509 0.241844 0.678312 0.110412
H47   H     H_    0.586450 0.344735 0.725517 0.110327
H48   H     H_    0.581109 0.323440 0.794530 0.106095
H49   H     H_    0.511280 0.085115 0.834159 0.131941
H50   H     H_    0.601632 0.054111 0.704269 0.123352
H51   H     H_    0.599259 0.030885 0.773441 0.138484
H52   H     H_    0.489696 0.178470 0.649292 0.129040
H53   H     H_    0.677187 0.806532 0.299649 0.115342
H54   H     H_    0.741150 0.280183 0.611290 0.127708
H55   H     H_    0.549110 0.795222 0.339774 0.106011
H56   H     H_    0.055478 0.889475 0.090840 0.125959
H57   H     H_    0.200187 0.531148 0.323447 0.102396
H58   H     H_    0.870697 0.093276 0.094960 0.126392
H59   H     H_    0.476003 0.278940 0.396317 0.126683
H60   H     H_    0.522911 0.765174 0.680002 0.154416
H61   H     H_    0.817342 0.555250 0.724340 0.115561
H62   H     H_    0.407138 0.966981 0.824851 0.337918
H63   H     H_    0.446316 0.910415 0.563291 0.337263
H64   H     H_    0.735626 0.415260 0.163628 0.339719
H65   H     H_    0.973165 0.486808 0.904923 0.325422
H66   H     H_    0.165462 0.371096 0.590141 0.340891
H67   H     H_    0.185656 0.822708 0.342383 0.102612
H68   H     H_    0.496233 0.217705 0.582001 0.138037
H69   H     H_    0.713922 0.211265 0.838162 0.107137
H70   H     H_    0.688874 0.812555 0.230162 0.116214
H71   H     H_    0.270518 0.767652 0.282370 0.105243
H72   H     H_    0.256993 0.782867 0.212259 0.109452
O1    O     O_R   0.324990 0.503440 0.453910 -0.510913
O2    O     O_R   0.675430 0.831160 0.051290 -0.517174
O3    O     O_R   0.698870 0.998880 0.039560 -0.499928
O4    O     O_R   0.522030 0.339050 0.458320 -0.504128
O5    O     O_R   0.811290 0.006780 0.950620 -0.514744
O6    O     O_R   0.980960 0.812920 0.953200 -0.508002
O7    O     O_R   0.001480 0.656720 0.955830 -0.465506
O8    O     O_R   0.809240 0.683250 0.968050 -0.476644
O9    O     O_R   0.652500 0.818540 0.967340 -0.522378
O10   O     O_R   0.677620 0.987170 0.961730 -0.500811
O11   O     O_3   0.833240 0.833660 0.999890 -0.243430
O12   O     O_R   0.639980 0.519500 0.542640 -0.510587
O13   O     O_R   0.676180 0.324490 0.458320 -0.517242
O14   O     O_R   0.643570 0.521510 0.464260 -0.501607
O15   O     O_R   0.504630 0.675350 0.460920 -0.512340
O16   O     O_R   0.339850 0.642450 0.459830 -0.503534
O17   O     O_R   0.321120 0.501280 0.538470 -0.467916
O18   O     O_R   0.518440 0.337050 0.536710 -0.500319
O19   O     O_R   0.672300 0.322330 0.542880 -0.518615
O20   O     O_2   0.558601 0.830861 0.796917 -0.521492
O21   O     O_R   0.446741 0.912056 0.844738 -0.720317
O22   O     O_2   0.402270 0.862234 0.621828 -0.544181
O23   O     O_R   0.500750 0.673190 0.545480 -0.471783
O24   O     O_R   0.503678 0.840562 0.571557 -0.674064
O25   O     O_2   0.797290 0.389098 0.228919 -0.537300
O26   O     O_R   0.719914 0.483279 0.175761 -0.694126
O27   O     O_2   0.149347 0.437180 0.897293 -0.522032
O28   O     O_R   0.978109 0.549099 0.897899 -0.679249
O29   O     O_2   0.141696 0.517586 0.555518 -0.496965
O30   O     O_R   0.189324 0.411728 0.606780 -0.714943
O31   O     O_R   0.336260 0.640450 0.538210 -0.513485
O32   O     O_3   0.499990 0.499990 0.500010 -0.250925
O33   O     O_R   0.834210 0.019400 0.034570 -0.520773
O34   O     O_R   0.002210 0.824620 0.031030 -0.503595
O35   O     O_R   0.024400 0.669340 0.039790 -0.519954
O36   O     O_R   0.830490 0.694950 0.045870 -0.504973

loop_
_geom_bond_atom_site_label_1
_geom_bond_atom_site_label_2
_ccdc_geom_bond_type
C55   C56   A    
C88   H13   S    
C7    C29   S    
Cr6   O10   S    
C18   C21   A    
C85   C95   S    
C118  H29   S    
C111  C112  A    
C101  O17   A    
C7    C124  A    
C40   O33   A    
Cr2   O12   S    
C42   C103  S    
C28   O25   D    
C112  C114  A    
C37   O35   A    
C25   H49   S    
C23   H43   S    
C64   H7    S    
C85   C86   A    
C108  C109  A    
C33   H54   S    
C46   H24   S    
C41   O7    A    
C49   C60   A    
C31   C43   A    
C32   C36   A    
C62   H2    S    
C76   C78   A    
C29   O27   D    
C18   C19   A    
C32   H68   S    
C36   C77   S    
C59   C66   A    
C2    H51   S    
C5    C6    A    
Cr2   O13   S    
C72   H5    S    
C47   C57   S    
C106  C107  A    
C45   C51   A    
C96   C100  A    
C44   O5    A    
C33   C36   A    
C56   C57   A    
H64   O26   S    
C34   C35   A    
C118  C122  A    
C30   O29   D    
C56   H14   S    
C105  H21   S    
C2    C13   A    
C118  C119  A    
C3    H31   S    
C115  H50   S    
C110  C111  A    
H62   O21   S    
C22   C44   S    
C83   C84   A    
C93   H47   S    
C10   C20   S    
C8    C9    A    
C39   C113  S    
C25   C49   A    
C82   H48   S    
C97   H19   S    
C12   C15   A    
C93   C104  A    
C18   C30   S    
C91   C100  S    
C109  H22   S    
C9    C10   A    
C89   O23   A    
C97   C102  A    
Cr2   O19   S    
C120  C123  A    
C98   H59   S    
C89   O12   A    
C41   O6    A    
C65   C80   S    
Cr3   O32   S    
C48   C50   A    
C54   H12   S    
C88   C95   A    
C82   C93   A    
Cr6   O11   S    
C66   H56   S    
C92   H16   S    
C53   O14   A    
C119  H30   S    
Cr5   O8    S    
C94   C95   A    
C61   H45   S    
C52   H55   S    
C110  C117  A    
C39   O36   A    
C81   C83   A    
C52   C54   A    
C33   C34   A    
C6    C7    A    
C74   H57   S    
Cr3   O31   S    
C28   C45   S    
C40   O3    A    
Cr5   O36   S    
Cr1   O18   S    
C24   C35   A    
C59   C61   A    
C74   C75   A    
Cr4   O33   S    
C68   H71   S    
C67   C68   A    
C47   C48   A    
C114  H61   S    
C84   C85   A    
C29   O28   S    
C116  H28   S    
C35   C104  S    
C75   H6    S    
C26   C108  S    
C91   C92   A    
C65   O16   A    
Cr4   O5    S    
H66   O30   S    
C78   C79   A    
C68   C69   A    
C6    H41   S    
C38   C51   S    
C63   C73   S    
C94   H17   S    
Cr1   O1    S    
C27   C120  S    
C13   C82   A    
C17   C21   A    
C44   O10   A    
C3    C124  A    
C64   C66   A    
H63   O24   S    
C9    H33   S    
C24   C32   A    
C112  C122  S    
C62   C63   A    
C98   C102  A    
C14   C38   A    
C104  C115  A    
C2    C115  A    
C37   O34   A    
C99   C100  A    
H65   O28   S    
C14   H42   S    
Cr1   O4    S    
C16   C20   A    
C96   C97   A    
C1    O13   A    
C92   C94   A    
C50   C51   A    
C103  C105  A    
C19   H32   S    
C43   H4    S    
Cr1   O32   S    
C14   C125  A    
Cr3   O16   S    
C121  C122  A    
C37   C59   S    
C110  H26   S    
C8    H35   S    
C13   C49   S    
C67   C73   A    
C77   O18   A    
C88   C90   A    
C8    C15   A    
C119  C123  A    
C74   C79   A    
C26   O21   S    
C11   H37   S    
C54   C58   A    
C69   C79   S    
C55   H34   S    
C107  C108  A    
Cr4   O6    S    
C3    C4    A    
Cr6   O2    S    
Cr3   O15   S    
C22   C71   A    
Cr6   O9    S    
C31   H23   S    
C42   O9    A    
C120  C121  A    
Cr2   O14   S    
C48   H53   S    
C75   C80   A    
C50   H70   S    
C53   O15   A    
C87   H9    S    
C46   C47   A    
Cr5   O35   S    
Cr1   O17   S    
Cr4   O34   S    
C86   C87   A    
C40   C81   S    
C83   H58   S    
C27   O22   D    
C76   C80   A    
C72   C73   A    
C121  H60   S    
C114  C116  A    
C53   C58   S    
C17   H40   S    
C31   C38   A    
C99   H10   S    
C12   H38   S    
C84   H15   S    
C90   H11   S    
C89   C123  S    
C105  C106  A    
Cr2   O32   S    
C60   C71   A    
C4    H36   S    
C103  C109  A    
C10   C11   A    
C16   H39   S    
C19   C20   A    
C21   C101  S    
C106  H27   S    
C86   H20   S    
C43   C113  A    
C81   C87   A    
C125  H1    S    
C27   O24   S    
C90   C91   A    
C16   C17   A    
C65   O1    A    
C41   C124  S    
C96   H18   S    
C39   O2    A    
C28   O26   S    
C71   H44   S    
C116  C117  A    
Cr5   O11   S    
C23   C25   A    
C30   O30   S    
C61   C62   A    
C1    O4    A    
C69   C70   A    
C5    C15   S    
Cr5   O7    S    
C52   C57   A    
C60   H69   S    
C63   C64   A    
Cr4   O11   S    
C45   C46   A    
C77   O19   A    
C4    C5    A    
C111  H25   S    
C113  C125  A    
C76   H8    S    
Cr3   O23   S    
C98   C99   A    
C55   C58   A    
C26   O20   D    
C70   H3    S    
C67   H72   S    
C22   C23   A    
C34   H46   S    
C70   C72   A    
C78   H67   S    
C101  O31   A    
Cr6   O3    S    
C1    C102  S    
C107  C117  S    
C42   O8    A    
C11   C12   A    
C24   H52   S    
