data_mof_unit_26602.cif
_audit_creation_date              2012-12-10T20:12:35-0500
_audit_creation_method            fapswitch 2.2
_symmetry_space_group_name_H-M    P1
_symmetry_Int_Tables_number       1
_space_group_crystal_system       triclinic
_cell_length_a                    19.292873
_cell_length_b                    18.416256
_cell_length_c                    10.603732
_cell_angle_alpha                 90.277929
_cell_angle_beta                  90.151837
_cell_angle_gamma                 90.077614
_cell_volume                      3767.47128641

loop_
_atom_site_label
_atom_site_type_symbol
_atom_type_description
_atom_site_fract_x
_atom_site_fract_y
_atom_site_fract_z
_atom_type_partial_charge
C1    C     C_R   0.365594 0.499910 0.500723 0.971981
C2    C     C_3   0.566179 0.496619 0.928612 -0.638224
C3    C     C_R   0.744702 0.432992 0.501648 -0.331519
C4    C     C_R   0.746502 0.564766 0.496173 -0.310656
C5    C     C_R   0.817093 0.430902 0.498520 0.453700
C6    C     C_R   0.818612 0.564054 0.492811 0.454048
C7    C     C_R   0.853294 0.497090 0.498200 -0.113256
C8    C     C_R   0.709628 0.499432 0.499149 -0.158208
C9    C     C_R   0.962952 0.522565 0.608163 -0.120559
C10   C     C_R   0.964716 0.469668 0.397459 -0.195021
C11   C     C_R   0.034731 0.522432 0.610705 -0.140373
C12   C     C_R   0.036455 0.470458 0.399274 -0.130808
C13   C     C_R   0.071397 0.496795 0.505931 0.212537
C14   C     C_R   0.928219 0.496276 0.501484 0.205329
C15   C     C_R   0.182684 0.431782 0.494040 0.502541
C16   C     C_R   0.181758 0.564165 0.519717 0.497982
C17   C     C_R   0.494809 0.500009 0.257842 0.955070
C18   C     C_R   0.254950 0.433129 0.496238 -0.325294
C19   C     C_R   0.253954 0.564656 0.513321 -0.287554
C20   C     C_R   0.290422 0.499342 0.503160 -0.140943
C21   C     C_R   0.146574 0.497580 0.507392 -0.133981
C22   C     C_R   0.559715 0.725449 0.472779 -0.182552
C23   C     C_R   0.549538 0.274610 0.566236 -0.160857
C24   C     C_R   0.561719 0.802264 0.468006 0.445723
C25   C     C_R   0.550624 0.197699 0.569705 0.380719
C26   C     C_R   0.500978 0.841605 0.495888 -0.040904
C27   C     C_R   0.501453 0.158661 0.497541 -0.045111
C28   C     C_R   0.439101 0.803474 0.520457 0.380622
C29   C     C_R   0.451376 0.196884 0.427064 0.452960
C30   C     C_R   0.440511 0.726689 0.523595 -0.183082
C31   C     C_R   0.450964 0.273736 0.433204 -0.186436
C32   C     C_R   0.513829 0.961570 0.381741 0.449089
C33   C     C_R   0.516415 0.038436 0.383142 0.452381
C34   C     C_R   0.502449 0.077317 0.495465 0.052730
C35   C     C_R   0.501440 0.922933 0.494326 0.047988
C36   C     C_R   0.634425 0.499988 0.500308 0.927989
C37   C     C_R   0.489355 0.038314 0.606389 -0.226136
C38   C     C_R   0.488870 0.962175 0.605826 -0.210397
C39   C     C_R   0.494750 0.500201 0.742079 0.962690
C40   C     C_3   0.465840 0.576592 0.072284 0.412612
C41   C     C_3   0.441018 0.439317 0.071648 0.352949
C42   C     C_3   0.455373 0.572045 0.927948 0.347057
C43   C     C_3   0.450064 0.432549 0.926845 0.407592
C44   C     C_3   0.565125 0.486823 0.071639 -0.636828
C45   C     C_3   0.490759 0.500607 0.121296 -0.118944
C46   C     C_3   0.490728 0.500595 0.878469 -0.119015
H1    H     H_    0.509216 0.615771 0.091286 0.011691
H2    H     H_    0.457627 0.386132 0.112550 0.006285
H3    H     H_    0.061669 0.542018 0.693901 0.136693
H4    H     H_    0.064761 0.451059 0.317739 0.137347
H5    H     H_    0.283324 0.382517 0.492468 0.171308
H6    H     H_    0.281383 0.615952 0.515939 0.158009
H7    H     H_    0.606121 0.694340 0.455962 0.157097
H8    H     H_    0.588435 0.306181 0.615444 0.153716
H9    H     H_    0.394045 0.696718 0.545154 0.147124
H10   H     H_    0.411470 0.304466 0.385255 0.137900
H11   H     H_    0.479014 0.067040 0.693699 0.175276
H12   H     H_    0.478859 0.933634 0.692989 0.180615
H13   H     H_    0.482789 0.620237 0.887649 0.019631
H14   H     H_    0.483727 0.384111 0.908132 0.010228
H15   H     H_    0.602915 0.525112 0.115775 0.214629
H16   H     H_    0.581952 0.430717 0.095602 0.218064
H17   H     H_    0.594600 0.547377 0.904684 0.216418
H18   H     H_    0.594815 0.450484 0.884832 0.219088
H19   H     H_    0.715621 0.382964 0.507927 0.175075
H20   H     H_    0.719637 0.616374 0.497596 0.167622
H21   H     H_    0.934434 0.542717 0.688936 0.144109
H22   H     H_    0.937579 0.449443 0.314846 0.127940
N1    N     N_R   0.499980 0.689440 0.500020 -0.129154
N2    N     N_R   0.499980 0.310560 0.500020 -0.128671
O1    O     O_R   0.398180 0.560840 0.500010 -0.634804
O2    O     O_R   0.398180 0.439160 0.500010 -0.637916
O3    O     O_R   0.499990 0.560810 0.314820 -0.609108
O4    O     O_R   0.499990 0.439190 0.314820 -0.642878
O5    O     O_R   0.601820 0.560790 0.500050 -0.631505
O6    O     O_R   0.601820 0.439210 0.500050 -0.625022
O7    O     O_R   0.500010 0.560810 0.685230 -0.639467
O8    O     O_R   0.500010 0.439190 0.685230 -0.626159
Zn1   Zn    Zn3+2 0.500000 0.581210 0.500040 0.936305
Zn2   Zn    Zn3+2 0.500000 0.418790 0.500040 0.928356
O9    O     O_3   0.146130 0.366757 0.490630 -0.587364
C47   C     C_3   0.165442 0.325148 0.384149 -0.327516
H23   H     H_    0.214362 0.295213 0.402345 0.168138
H24   H     H_    0.170112 0.358704 0.297365 0.138195
H25   H     H_    0.124440 0.284104 0.366011 0.201899
O10   O     O_3   0.144441 0.628437 0.525312 -0.596599
C48   C     C_3   0.161088 0.666631 0.637177 -0.327507
H26   H     H_    0.211734 0.694779 0.628506 0.151578
H27   H     H_    0.161106 0.630729 0.721488 0.153147
H28   H     H_    0.121094 0.708902 0.652894 0.202937
O11   O     O_3   0.622879 0.840457 0.447631 -0.585419
C49   C     C_3   0.659728 0.811997 0.343693 -0.259632
H29   H     H_    0.624999 0.796743 0.263624 0.165110
H30   H     H_    0.691981 0.765087 0.373042 0.130571
H31   H     H_    0.695539 0.854536 0.308835 0.192054
O12   O     O_3   0.602213 0.159072 0.631982 -0.597274
C50   C     C_3   0.615603 0.188098 0.753087 -0.329796
H32   H     H_    0.567261 0.204238 0.803218 0.146064
H33   H     H_    0.652272 0.234483 0.747097 0.158351
H34   H     H_    0.641042 0.145594 0.810657 0.199933
O13   O     O_3   0.379375 0.842616 0.547244 -0.599672
C51   C     C_3   0.322985 0.817366 0.473973 -0.307764
H35   H     H_    0.298946 0.769022 0.518117 0.156334
H36   H     H_    0.337890 0.805264 0.374595 0.136722
H37   H     H_    0.282984 0.860533 0.471180 0.201462
O14   O     O_3   0.400754 0.157281 0.362944 -0.586832
C52   C     C_3   0.385442 0.187753 0.244164 -0.280640
H38   H     H_    0.432666 0.207524 0.194569 0.160807
H39   H     H_    0.346635 0.231866 0.254190 0.129317
H40   H     H_    0.361804 0.144994 0.183805 0.192416
O15   O     O_3   0.526949 0.924353 0.270858 -0.592580
C53   C     C_3   0.463827 0.915158 0.205477 -0.307752
H41   H     H_    0.440802 0.968370 0.179089 0.198476
H42   H     H_    0.426192 0.882841 0.261395 0.148049
H43   H     H_    0.474135 0.884677 0.117032 0.179667
O16   O     O_3   0.529625 0.075404 0.272644 -0.592694
C54   C     C_3   0.601828 0.085394 0.262393 -0.296107
H44   H     H_    0.629387 0.032458 0.255627 0.195539
H45   H     H_    0.622628 0.117939 0.342714 0.168888
H46   H     H_    0.612597 0.115930 0.174676 0.178193
O17   O     O_3   0.403421 0.598023 0.133488 -0.507097
C55   C     C_3   0.404435 0.672887 0.162991 -0.257917
H47   H     H_    0.415996 0.706447 0.078777 0.117043
H48   H     H_    0.442807 0.684640 0.238728 0.167437
H49   H     H_    0.352578 0.688800 0.198484 0.182471
O18   O     O_3   0.371125 0.457486 0.100779 -0.481290
C56   C     C_3   0.339339 0.403356 0.174206 -0.257048
H50   H     H_    0.365135 0.399024 0.267266 0.150899
H51   H     H_    0.339343 0.350048 0.124690 0.123551
H52   H     H_    0.284633 0.419002 0.191014 0.187771
O19   O     O_3   0.383251 0.570611 0.898689 -0.485405
C57   C     C_3   0.363497 0.630577 0.824778 -0.228155
H53   H     H_    0.388364 0.628157 0.730950 0.166328
H54   H     H_    0.375876 0.682822 0.872557 0.131969
H55   H     H_    0.306609 0.628443 0.809775 0.176463
O20   O     O_3   0.384634 0.426877 0.865076 -0.517504
C58   C     C_3   0.370358 0.354341 0.830171 -0.260281
H56   H     H_    0.373969 0.317248 0.912373 0.117928
H57   H     H_    0.405952 0.336068 0.754097 0.167933
H58   H     H_    0.316680 0.351346 0.792760 0.197332
O21   O     O_3   0.854223 0.366378 0.510105 -0.631250
C59   C     C_3   0.827862 0.309978 0.432054 0.076043
H59   H     H_    0.872246 0.285948 0.380051 0.160740
H60   H     H_    0.790897 0.328741 0.357946 0.119198
C60   C     C_3   0.795468 0.250445 0.513634 -0.321596
H61   H     H_    0.836799 0.223897 0.570161 0.228399
H62   H     H_    0.757474 0.274303 0.580415 0.218932
C61   C     C_3   0.758779 0.193262 0.432972 -0.949473
H63   H     H_    0.715604 0.218408 0.379214 0.257942
H64   H     H_    0.737026 0.150390 0.494673 0.294969
H65   H     H_    0.795810 0.167794 0.366092 0.256636
O22   O     O_3   0.855928 0.628461 0.495994 -0.638413
C62   C     C_3   0.848460 0.666194 0.380681 0.088099
H66   H     H_    0.860665 0.724210 0.399578 0.174871
H67   H     H_    0.794579 0.664974 0.342579 0.108824
C63   C     C_3   0.899516 0.637295 0.281953 -0.356076
H68   H     H_    0.952874 0.637858 0.321814 0.252161
H69   H     H_    0.885727 0.580463 0.256750 0.203950
C64   C     C_3   0.897953 0.683080 0.162468 -0.947250
H70   H     H_    0.845213 0.682387 0.120157 0.261042
H71   H     H_    0.935094 0.660512 0.092775 0.269372
H72   H     H_    0.913036 0.740019 0.184219 0.266282

loop_
_geom_bond_atom_site_label_1
_geom_bond_atom_site_label_2
_ccdc_geom_bond_type
C40   H1    S    
C16   O10   S    
C48   H26   S    
O18   C56   S    
C32   O15   S    
C27   C29   A    
C34   C37   A    
C41   C43   S    
C32   C35   A    
C15   C18   A    
C19   C20   A    
C59   C60   S    
C61   H65   S    
C4    C8    A    
C50   H34   S    
O1    Zn1   S    
C60   H61   S    
C15   O9    S    
C2    C46   S    
C40   O17   S    
C58   H57   S    
C16   C21   A    
C9    H21   S    
C39   O7    A    
C63   H68   S    
O9    C47   S    
C61   H64   S    
C54   H45   S    
C42   C46   S    
O8    Zn2   S    
O14   C52   S    
O16   C54   S    
C51   H37   S    
C8    C36   S    
C36   O6    A    
C60   H62   S    
C38   H12   S    
C19   H6    S    
C31   N2    A    
O15   C53   S    
C2    C44   S    
C57   H53   S    
C33   O16   S    
C52   H38   S    
C64   H71   S    
C42   O19   S    
C31   H10   S    
C62   H67   S    
C22   N1    A    
C18   C20   A    
C6    O22   S    
C40   C42   S    
C62   H66   S    
O4    Zn2   S    
C17   O3    A    
C52   H39   S    
C23   N2    A    
C3    H19   S    
C28   O13   S    
C53   H42   S    
C53   H41   S    
C50   H33   S    
C2    H18   S    
C18   H5    S    
C50   H32   S    
C22   H7    S    
O7    Zn1   S    
C27   C34   S    
C40   C45   S    
C58   H58   S    
C1    O2    A    
N2    Zn2   S    
O13   C51   S    
C57   H55   S    
C35   C38   A    
C61   H63   S    
C4    C6    A    
C3    C8    A    
C10   C14   A    
C54   H46   S    
O11   C49   S    
C5    C7    A    
O10   C48   S    
C44   H16   S    
C49   H31   S    
C7    C14   S    
C9    C14   A    
C56   H51   S    
C37   C38   A    
C11   H3    S    
C36   O5    A    
C5    O21   S    
C64   H70   S    
C29   C31   A    
O12   C50   S    
C49   H30   S    
C33   C34   A    
O3    Zn1   S    
C64   H72   S    
C13   C21   S    
C1    O1    A    
C12   C13   A    
C62   C63   S    
C51   H36   S    
C9    C11   A    
O17   C55   S    
C10   C12   A    
C43   H14   S    
C39   C46   S    
C47   H24   S    
C48   H27   S    
C17   O4    A    
C52   H40   S    
C59   H60   S    
C29   O14   S    
N1    Zn1   S    
C55   H48   S    
O19   C57   S    
C24   O11   S    
C60   C61   S    
C44   C45   S    
C23   H8    S    
C30   H9    S    
C2    H17   S    
C1    C20   S    
C30   N1    A    
C41   O18   S    
C63   C64   S    
O6    Zn2   S    
C17   C45   S    
O20   C58   S    
C3    C5    A    
C42   H13   S    
C12   H4    S    
C6    C7    A    
C10   H22   S    
C44   H15   S    
C25   C27   A    
C47   H25   S    
C58   H56   S    
C26   C28   A    
C43   O20   S    
C32   C33   A    
C55   H49   S    
C28   C30   A    
C55   H47   S    
C56   H52   S    
O2    Zn2   S    
O21   C59   S    
C4    H20   S    
C11   C13   A    
C24   C26   A    
C16   C19   A    
C63   H69   S    
C49   H29   S    
C41   H2    S    
C22   C24   A    
C23   C25   A    
C51   H35   S    
C43   C46   S    
C26   C35   S    
C15   C21   A    
O22   C62   S    
C25   O12   S    
C57   H54   S    
C47   H23   S    
C48   H28   S    
C41   C45   S    
C59   H59   S    
C39   O8    A    
C54   H44   S    
O5    Zn1   S    
C53   H43   S    
C37   H11   S    
C56   H50   S    
