data_mof_unit_47740.cif
_audit_creation_date              2012-12-11T16:21:56-0500
_audit_creation_method            fapswitch 2.2
_symmetry_space_group_name_H-M    P1
_symmetry_Int_Tables_number       1
_space_group_crystal_system       triclinic
_cell_length_a                    13.476919
_cell_length_b                    14.054332
_cell_length_c                    29.934623
_cell_angle_alpha                 97.850781
_cell_angle_beta                  89.766226
_cell_angle_gamma                 118.749284
_cell_volume                      4911.97708289

loop_
_atom_site_label
_atom_site_type_symbol
_atom_type_description
_atom_site_fract_x
_atom_site_fract_y
_atom_site_fract_z
_atom_type_partial_charge
C1    C     C_R   0.719872 0.098238 0.569302 0.540671
C2    C     C_R   0.377800 0.727160 0.687640 0.022265
C3    C     C_R   0.301092 0.755281 0.670574 -0.123620
C4    C     C_R   0.296437 0.764526 0.625058 -0.159268
C5    C     C_R   0.277565 0.709572 0.845406 0.042111
C6    C     C_R   0.263500 0.684369 0.890205 -0.044169
C7    C     C_R   0.424753 0.650223 0.885934 -0.012421
C8    C     C_R   0.448104 0.691889 0.844963 -0.148183
C9    C     C_R   0.371058 0.711873 0.822841 0.008271
C10   C     C_1   0.382792 0.721486 0.775425 0.027604
C11   C     C_1   0.384579 0.724546 0.735363 0.003685
C12   C     C_R   0.383978 0.789744 0.551832 0.578691
C13   C     C_R   0.322482 0.633042 0.906319 -0.002143
C14   C     C_3   0.215088 0.135445 0.724172 -0.085681
C15   C     C_3   0.230333 0.060235 0.753391 0.021271
C16   C     C_1   0.297693 0.195836 0.877080 -0.033652
C17   C     C_1   0.361272 0.135671 0.613418 -0.015318
C18   C     C_3   0.292707 0.235306 0.759684 0.023831
C19   C     C_3   0.307398 0.159756 0.788351 0.047825
C20   C     C_3   0.399341 0.251124 0.735208 -0.099070
C21   C     C_3   0.322015 0.149912 0.700333 0.029603
C22   C     C_3   0.413266 0.174061 0.764094 -0.121627
C23   C     C_R   0.396590 0.118665 0.569441 0.547338
C24   C     C_3   0.335932 0.072534 0.728649 -0.090455
C25   C     C_1   0.303155 0.174024 0.837334 -0.076657
C26   C     C_1   0.338884 0.144019 0.652127 -0.064279
C27   C     C_3   0.900560 0.250773 0.732853 -0.106483
C28   C     C_3   0.817777 0.256918 0.767698 -0.102505
C29   C     C_1   0.890752 0.201893 0.879401 -0.023100
C30   C     C_1   0.761551 0.126749 0.615444 -0.012415
C31   C     C_3   0.915245 0.168697 0.757982 -0.106040
C32   C     C_3   0.832041 0.174555 0.792150 0.050064
C33   C     C_3   0.814278 0.071312 0.728619 -0.100100
C34   C     C_R   0.718523 0.094211 0.442034 0.539363
C35   C     C_3   0.800266 0.153778 0.704236 0.052988
C36   C     C_3   0.731294 0.077171 0.763462 -0.098505
C37   C     C_3   0.716577 0.159326 0.738151 -0.098296
C38   C     C_1   0.858103 0.188097 0.840581 -0.065557
C39   C     C_1   0.783217 0.141919 0.655428 -0.059195
C40   C     C_3   0.291307 0.578615 0.258391 -0.106114
C41   C     C_3   0.242544 0.630396 0.228623 -0.094109
C42   C     C_1   0.311014 0.610582 0.110776 -0.021266
C43   C     C_1   0.367580 0.736654 0.378235 0.028320
C44   C     C_3   0.394686 0.611110 0.228988 -0.117315
C45   C     C_R   0.382324 0.784093 0.424521 0.559187
C46   C     C_3   0.345828 0.663382 0.199996 0.025107
C47   C     C_3   0.458649 0.722984 0.260075 0.049146
C48   C     C_3   0.356316 0.690253 0.288907 0.068637
C49   C     C_3   0.411174 0.775428 0.230293 -0.129604
C50   C     C_3   0.307872 0.742465 0.259679 -0.111932
C51   C     C_1   0.331679 0.640629 0.150777 -0.060509
C52   C     C_1   0.360571 0.709970 0.338085 0.010427
C53   C     C_R   0.359147 0.133738 0.400809 -0.006940
C54   C     C_R   0.418605 0.237436 0.387024 -0.084760
C55   C     C_R   0.408105 0.249683 0.341876 0.021681
C56   C     C_R   0.396104 0.114873 0.443193 0.543386
C57   C     C_R   0.336196 0.155760 0.310790 0.001748
C58   C     C_R   0.269101 0.054911 0.325409 -0.124807
C59   C     C_R   0.279888 0.043907 0.370263 -0.132395
C60   C     C_R   0.228330 0.109224 0.152116 -0.124140
C61   C     C_R   0.219152 0.127623 0.108465 -0.141249
C62   C     C_R   0.424111 0.247523 0.111182 0.007227
C63   C     C_R   0.431441 0.229299 0.155793 -0.079304
C64   C     C_R   0.333271 0.163905 0.176355 0.006736
C65   C     C_1   0.337110 0.160213 0.223513 -0.032429
C66   C     C_1   0.336579 0.158316 0.263316 -0.045880
C67   C     C_R   0.368792 0.745803 0.595336 0.040568
C68   C     C_R   0.315016 0.202033 0.088437 -0.022456
C69   C     C_R   0.768598 0.125974 0.399040 0.009937
C70   C     C_R   0.787231 0.051719 0.368429 -0.091135
C71   C     C_R   0.801373 0.065634 0.323145 -0.103032
C72   C     C_R   0.797975 0.154141 0.308329 0.025166
C73   C     C_R   0.789341 0.233373 0.339194 -0.096260
C74   C     C_R   0.775236 0.219757 0.384425 -0.126905
C75   C     C_R   0.868039 0.289899 0.164330 0.019754
C76   C     C_R   0.907573 0.302212 0.121450 -0.161573
C77   C     C_R   0.798394 0.104363 0.096078 0.004131
C78   C     C_R   0.439786 0.707282 0.611907 0.008707
C79   C     C_R   0.761185 0.090139 0.140614 0.001645
C80   C     C_R   0.803827 0.183065 0.175031 0.042295
C81   C     C_1   0.796951 0.169004 0.221826 0.029885
C82   C     C_1   0.796999 0.160981 0.261200 0.001433
C83   C     C_R   0.881278 0.211101 0.088522 0.006266
C84   C     C_R   0.284699 0.232168 0.922367 0.536901
C85   C     C_R   0.271290 0.554979 0.940258 0.525848
C86   C     C_R   0.944554 0.221852 0.923207 0.540717
C87   C     C_R   0.293481 0.241678 0.048279 0.522644
C88   C     C_R   0.275578 0.559319 0.064943 0.538258
C89   C     C_R   0.444937 0.700589 0.658320 -0.149899
C90   C     C_R   0.949825 0.231121 0.048744 0.537141
Cr1   Cr    Cr6+3 0.583430 0.162610 0.509470 1.034346
Cr2   Cr    Cr6+3 0.584210 0.916680 0.495400 1.093962
Cr3   Cr    Cr6+3 0.332380 0.920740 0.495100 1.029332
Cr4   Cr    Cr6+3 0.086810 0.177030 0.983130 0.997835
Cr5   Cr    Cr6+3 0.337180 0.419300 0.994610 0.995936
Cr6   Cr    Cr6+3 0.084840 0.422330 0.995830 1.015168
H1    H     H_    0.134331 0.119724 0.707252 0.092409
H2    H     H_    0.353063 0.004611 0.715183 0.115121
H3    H     H_    0.493841 0.189434 0.781049 0.103287
H4    H     H_    0.467940 0.330412 0.727271 0.103102
H5    H     H_    0.819165 0.333119 0.784424 0.101835
H6    H     H_    0.967927 0.320849 0.718538 0.110300
H7    H     H_    0.634705 0.155244 0.729028 0.105436
H8    H     H_    0.661800 0.006191 0.776610 0.109669
H9    H     H_    0.813182 0.995252 0.711873 0.102311
H10   H     H_    0.996704 0.171579 0.766625 0.103859
H11   H     H_    0.153229 0.592916 0.215003 0.112561
H12   H     H_    0.242028 0.498177 0.270304 0.124047
H13   H     H_    0.271545 0.796024 0.272826 0.112501
H14   H     H_    0.460399 0.855878 0.218410 0.101729
H15   H     H_    0.431413 0.557933 0.215802 0.120400
H16   H     H_    0.134791 0.089440 0.091822 0.140733
H17   H     H_    0.152302 0.057390 0.167893 0.116315
H18   H     H_    0.212970 0.983045 0.301533 0.118017
H19   H     H_    0.247272 0.773791 0.692905 0.150091
H20   H     H_    0.232862 0.963111 0.380022 0.141956
H21   H     H_    0.478352 0.307297 0.410859 0.181787
H22   H     H_    0.512893 0.267834 0.174957 0.169640
H23   H     H_    0.965305 0.384216 0.114590 0.127324
H24   H     H_    0.787978 0.302832 0.327913 0.164192
H25   H     H_    0.761527 0.278613 0.407141 0.143259
H26   H     H_    0.782810 0.978853 0.378648 0.174083
H27   H     H_    0.240846 0.793595 0.613910 0.136264
H28   H     H_    0.809462 0.004730 0.299356 0.121951
H29   H     H_    0.524071 0.702698 0.828704 0.113368
H30   H     H_    0.501045 0.674409 0.671631 0.086890
O1    O     O_R   0.493980 0.188910 0.559650 -0.501279
O2    O     O_R   0.480180 0.824400 0.444640 -0.462575
O3    O     O_R   0.308310 0.808540 0.439800 -0.517401
O4    O     O_R   0.340740 0.020600 0.455570 -0.500490
O5    O     O_3   0.500010 0.000010 0.499990 -0.262599
O6    O     O_R   0.969650 0.150960 0.933380 -0.513452
O7    O     O_R   0.187740 0.180870 0.937580 -0.493352
O8    O     O_R   0.358510 0.327410 0.940870 -0.533672
O9    O     O_R   0.324180 0.507870 0.953930 -0.507325
O10   O     O_R   0.170560 0.527890 0.952050 -0.520517
O11   O     O_R   0.987620 0.318470 0.945550 -0.491992
O12   O     O_R   0.678640 0.153520 0.554450 -0.495482
O13   O     O_R   0.976400 0.159270 0.031530 -0.527190
O14   O     O_R   0.194000 0.188570 0.028560 -0.502570
O15   O     O_R   0.365260 0.335720 0.039020 -0.517864
O16   O     O_R   0.330440 0.515580 0.044910 -0.492963
O17   O     O_R   0.177310 0.536200 0.050190 -0.514734
O18   O     O_R   0.993870 0.326170 0.036530 -0.496742
O19   O     O_3   0.169610 0.339550 0.991190 -0.229439
O20   O     O_R   0.698130 0.004030 0.549500 -0.507542
O21   O     O_R   0.481060 0.827210 0.535360 -0.454015
O22   O     O_R   0.309260 0.811560 0.537660 -0.525296
O23   O     O_R   0.341620 0.023400 0.546290 -0.499809
O24   O     O_R   0.493030 0.185890 0.461780 -0.512551
O25   O     O_R   0.677760 0.150720 0.463730 -0.502273
O26   O     O_R   0.697180 0.001010 0.451640 -0.502650
C91   C     C_3   0.196636 0.723240 0.921948 -0.255019
C92   C     C_3   0.246536 0.848822 0.927573 -0.315108
C93   C     C_3   0.183366 0.887997 0.961167 -0.450103
H31   H     H_    0.092433 0.849416 0.949291 0.148957
H32   H     H_    0.190262 0.866879 0.995034 0.151760
H33   H     H_    0.220985 0.978590 0.964242 0.154670
H34   H     H_    0.337385 0.889432 0.940029 0.163339
H35   H     H_    0.241765 0.875753 0.894889 0.171019
H36   H     H_    0.105699 0.680495 0.909718 0.132410
H37   H     H_    0.201185 0.705279 0.956512 0.180075
C94   C     C_3   0.263212 0.322855 0.780680 -0.261342
C95   C     C_3   0.233296 0.375067 0.745130 -0.307266
C96   C     C_3   0.186221 0.447391 0.767626 -0.447459
H38   H     H_    0.104320 0.397116 0.781902 0.152111
H39   H     H_    0.245549 0.505378 0.796001 0.172110
H40   H     H_    0.173828 0.493332 0.742807 0.163103
H41   H     H_    0.310591 0.425658 0.728012 0.165961
H42   H     H_    0.168263 0.310824 0.719321 0.162556
H43   H     H_    0.189881 0.283626 0.801541 0.145642
H44   H     H_    0.336070 0.387085 0.803405 0.143777
C97   C     C_2   0.191105 0.727496 0.822419 0.188000
H45   H     H_    0.111047 0.707702 0.837018 0.095112
O27   O     O_2   0.207427 0.764330 0.786890 -0.563571
C98   C     C_2   0.580477 0.774201 0.277164 0.219471
H46   H     H_    0.646259 0.796227 0.253504 0.088768
O28   O     O_2   0.606516 0.791259 0.317584 -0.496931
C99   C     C_2   0.530033 0.311984 0.089146 0.227442
H47   H     H_    0.528684 0.310311 0.052842 0.124079
O29   O     O_2   0.621069 0.365985 0.111227 -0.515390
C100  C     C_2   0.475872 0.358869 0.327290 0.235952
H48   H     H_    0.468362 0.369235 0.292432 0.118498
O30   O     O_2   0.540786 0.439069 0.354142 -0.483311
C101  C     C_2   0.900905 0.391620 0.197178 0.241785
H49   H     H_    0.960453 0.470784 0.188147 0.091956
O31   O     O_2   0.859668 0.389456 0.233656 -0.503589
C102  C     C_3   0.678117 0.977154 0.151952 -0.253780
C103  C     C_3   0.736520 0.907287 0.155311 -0.308749
C104  C     C_3   0.650331 0.785192 0.149623 -0.449806
H50   H     H_    0.585567 0.769544 0.174626 0.151021
H51   H     H_    0.607477 0.756744 0.115051 0.155917
H52   H     H_    0.694115 0.737457 0.154823 0.160294
H53   H     H_    0.798471 0.920095 0.129082 0.164605
H54   H     H_    0.784174 0.932574 0.188874 0.156031
H55   H     H_    0.640157 0.983349 0.184472 0.133285
H56   H     H_    0.603868 0.935951 0.126799 0.141845
C105  C     C_3   0.748921 0.008670 0.056773 -0.251397
C106  C     C_3   0.680071 0.026898 0.021380 -0.290710
C107  C     C_3   0.626731 0.929490 0.983111 -0.455361
H57   H     H_    0.693695 0.917439 0.965691 0.155771
H58   H     H_    0.567883 0.853314 0.996525 0.143337
H59   H     H_    0.577896 0.945295 0.958094 0.145360
H60   H     H_    0.611422 0.037962 0.037837 0.163759
H61   H     H_    0.735348 0.102030 0.006622 0.169916
H62   H     H_    0.816542 0.995545 0.040953 0.168452
H63   H     H_    0.692514 0.928979 0.067670 0.137453
C108  C     C_2   0.508191 0.671546 0.582466 0.236948
H64   H     H_    0.580108 0.668855 0.597199 0.092162
O32   O     O_2   0.482070 0.639482 0.542083 -0.480163
C109  C     C_3   0.515103 0.632479 0.907405 -0.234076
C110  C     C_3   0.505395 0.520534 0.888658 -0.254819
C111  C     C_3   0.566932 0.522396 0.845507 -0.466257
H65   H     H_    0.526611 0.538112 0.817287 0.146670
H66   H     H_    0.657628 0.586282 0.851188 0.144464
H67   H     H_    0.562300 0.441211 0.835478 0.142707
H68   H     H_    0.543809 0.496324 0.914664 0.166426
H69   H     H_    0.414888 0.456911 0.881818 0.195602
H70   H     H_    0.600763 0.699804 0.902327 0.123664
H71   H     H_    0.511870 0.641263 0.944689 0.138374
C112  C     C_3   0.131917 0.955764 0.765838 -0.249576
C113  C     C_3   0.067350 0.872660 0.723640 -0.281578
C114  C     C_3   0.968152 0.768786 0.736183 -0.442133
H72   H     H_    0.998917 0.728846 0.757827 0.188293
H73   H     H_    0.907186 0.788914 0.754530 0.139410
H74   H     H_    0.923343 0.710100 0.704972 0.141536
H75   H     H_    0.033768 0.909623 0.701525 0.152745
H76   H     H_    0.125563 0.850438 0.704293 0.169383
H77   H     H_    0.165730 0.920056 0.788303 0.198717
H78   H     H_    0.073336 0.978165 0.784944 0.133823

loop_
_geom_bond_atom_site_label_1
_geom_bond_atom_site_label_2
_ccdc_geom_bond_type
C7    C13   A    
C21   C26   S    
C45   O3    A    
C104  H50   S    
C105  H62   S    
Cr4   O14   S    
C73   C74   A    
C14   C18   S    
Cr3   O23   S    
C94   C95   S    
Cr5   O19   S    
C106  H61   S    
C57   C66   S    
C20   C21   S    
Cr4   O7    S    
C90   O13   A    
C1    O20   A    
C114  H74   S    
C7    C8    A    
Cr6   O10   S    
C97   H45   S    
C15   C19   S    
Cr6   O19   S    
C46   C49   S    
C84   O8    A    
C96   H38   S    
Cr1   O1    S    
C24   H2    S    
C17   C26   T    
C32   C36   S    
C12   O21   A    
C95   C96   S    
C35   C37   S    
C2    C3    A    
C5    C6    A    
C80   C81   S    
C43   C52   T    
C111  H67   S    
Cr1   O5    S    
C110  H68   S    
C77   C83   A    
C45   O2    A    
C9    C10   S    
C16   C84   S    
C33   C36   S    
Cr3   O22   S    
Cr6   O17   S    
C18   C19   S    
C49   C50   S    
C70   H26   S    
C100  H48   S    
C113  H75   S    
C104  H52   S    
C95   H42   S    
C103  H53   S    
C114  H72   S    
C28   C37   S    
C8    C9    A    
C29   C38   T    
Cr2   O26   S    
C36   C37   S    
C41   C46   S    
C31   C33   S    
C98   H46   S    
C105  C106  S    
C32   C38   S    
C94   H43   S    
C75   C80   A    
C87   O14   A    
C88   O17   A    
C47   C98   S    
C86   O11   A    
C44   C47   S    
C42   C51   T    
C40   H12   S    
Cr4   O19   S    
C48   C50   S    
C23   O23   A    
C106  C107  S    
C96   H39   S    
C73   H24   S    
Cr2   O21   S    
Cr4   O13   S    
C95   H41   S    
C75   C101  S    
C67   C78   A    
Cr3   O3    S    
C2    C11   S    
Cr2   O2    S    
C76   C83   A    
C88   O16   A    
C44   C46   S    
C81   C82   T    
C57   C58   A    
C89   H30   S    
C97   O27   D    
C78   C89   A    
C53   C59   A    
C12   C67   S    
C84   O7    A    
C93   H31   S    
C76   H23   S    
C79   C102  S    
C27   C31   S    
C71   H28   S    
C28   C32   S    
Cr2   O5    S    
C33   H9    S    
C47   C49   S    
Cr6   O11   S    
C37   H7    S    
C63   H22   S    
C34   O26   A    
C108  H64   S    
C13   C85   S    
C27   C35   S    
C58   C59   A    
C59   H20   S    
Cr2   O20   S    
C46   C51   S    
C50   H13   S    
Cr4   O6    S    
C63   C64   A    
C4    H27   S    
C91   H36   S    
C102  C103  S    
C15   C112  S    
C2    C89   A    
C35   C39   S    
C75   C76   A    
C109  C110  S    
C5    C9    A    
C112  C113  S    
C109  H71   S    
Cr6   O18   S    
Cr1   O12   S    
C18   C94   S    
C103  H54   S    
C47   C48   S    
C20   H4    S    
C40   C44   S    
C60   H17   S    
C19   C22   S    
C62   C63   A    
Cr5   O9    S    
C92   C93   S    
C77   C79   A    
C69   C74   A    
C17   C23   S    
C87   O15   A    
C93   H32   S    
C43   C45   S    
C34   C69   S    
C29   C86   S    
C70   C71   A    
C85   O9    A    
C103  C104  S    
C108  O32   D    
C40   C41   S    
C20   C22   S    
Cr5   O15   S    
C96   H40   S    
C55   C57   A    
C106  H60   S    
C72   C82   S    
C31   H10   S    
C22   C24   S    
C54   H21   S    
C42   C88   S    
C56   O24   A    
C3    C4    A    
C78   C108  S    
C41   C50   S    
C62   C99   S    
C112  H78   S    
C14   C21   S    
C14   H1    S    
C23   O1    A    
C77   C105  S    
C53   C56   S    
C16   C25   T    
C40   C48   S    
C83   C90   S    
C54   C55   A    
C15   C24   S    
C104  H51   S    
C22   H3    S    
C41   H11   S    
C36   H8    S    
C105  H63   S    
C5    C97   S    
C31   C32   S    
C94   H44   S    
C72   C73   A    
C90   O18   A    
C4    C67   A    
C7    C109  S    
C34   O25   A    
C114  H73   S    
C53   C54   A    
C99   H47   S    
C109  H70   S    
C27   H6    S    
C62   C68   A    
C91   H37   S    
C60   C64   A    
C64   C65   S    
C12   O22   A    
Cr1   O24   S    
C111  H66   S    
C92   H34   S    
C65   C66   T    
C3    H19   S    
C6    C13   A    
Cr1   O25   S    
C61   C68   A    
C86   O6    A    
C101  H49   S    
C110  H69   S    
C102  H56   S    
C107  H57   S    
C107  H59   S    
C111  H65   S    
C98   O28   D    
C1    C30   S    
C33   C35   S    
C55   C100  S    
C30   C39   T    
C28   H5    S    
C18   C20   S    
Cr5   O8    S    
C69   C70   A    
C19   C25   S    
C100  O30   D    
C6    C91   S    
C101  O31   D    
C10   C11   T    
C85   O10   A    
C92   H35   S    
C79   C80   A    
C44   H15   S    
C8    H29   S    
C48   C52   S    
C74   H25   S    
C71   C72   A    
C110  C111  S    
C102  H55   S    
Cr5   O16   S    
C107  H58   S    
C113  H76   S    
C21   C24   S    
C112  H77   S    
C27   C28   S    
C58   H18   S    
C68   C87   S    
C14   C15   S    
C60   C61   A    
C99   O29   D    
C91   C92   S    
Cr3   O5    S    
C61   H16   S    
C113  C114  S    
C56   O4    A    
C1    O12   A    
Cr3   O4    S    
C49   H14   S    
C93   H33   S    
