data_mof_unit_28298.cif
_audit_creation_date              2012-12-10T16:51:17-0500
_audit_creation_method            fapswitch 2.2
_symmetry_space_group_name_H-M    P1
_symmetry_Int_Tables_number       1
_space_group_crystal_system       triclinic
_cell_length_a                    27.720112
_cell_length_b                    8.654914
_cell_length_c                    7.478581
_cell_angle_alpha                 103.054201
_cell_angle_beta                  93.141652
_cell_angle_gamma                 91.597427
_cell_volume                      1743.73457374

loop_
_atom_site_label
_atom_site_type_symbol
_atom_type_description
_atom_site_fract_x
_atom_site_fract_y
_atom_site_fract_z
_atom_type_partial_charge
C1    C     C_R   0.496533 0.200327 0.454938 0.846968
C2    C     C_R   0.502605 0.799619 0.546183 0.795755
C3    C     C_R   0.100249 0.447542 0.438668 -0.117813
C4    C     C_R   0.897385 0.466033 0.454033 -0.129053
C5    C     C_R   0.122650 0.301518 0.406011 -0.086697
C6    C     C_R   0.876633 0.587395 0.578902 -0.063095
C7    C     C_R   0.094264 0.160745 0.358715 -0.269145
C8    C     C_R   0.905464 0.715509 0.678809 -0.285170
C9    C     C_R   0.129059 0.589173 0.477296 -0.102553
C10   C     C_R   0.867281 0.345481 0.340628 -0.093826
C11   C     C_R   0.355141 0.476236 0.503286 -0.163993
C12   C     C_R   0.644140 0.488529 0.484848 -0.128115
C13   C     C_R   0.969368 0.323085 0.352741 0.016438
C14   C     C_R   0.027465 0.598785 0.503917 0.003392
C15   C     C_R   0.977203 0.600394 0.533750 -0.014138
C16   C     C_R   0.020360 0.310000 0.373067 -0.000887
C17   C     C_R   0.948185 0.463072 0.447262 -0.003889
C18   C     C_R   0.049212 0.451929 0.438337 0.006467
C19   C     C_R   0.938720 0.202966 0.239398 -0.278395
C20   C     C_R   0.056798 0.738461 0.534980 -0.261598
C21   C     C_R   0.888370 0.212870 0.232823 0.453030
C22   C     C_R   0.106923 0.735667 0.529015 0.413451
C23   C     C_R   0.407727 0.498028 0.502998 0.869456
C24   C     C_R   0.591975 0.495740 0.495263 0.860035
C25   C     C_R   0.043498 0.161668 0.334996 0.393678
C26   C     C_R   0.954483 0.731860 0.645438 0.414614
C27   C     C_2   0.488539 0.033519 0.438393 0.141262
C28   C     C_2   0.509324 0.967143 0.567757 0.166948
C29   C     C_R   0.173260 0.299601 0.431726 0.617653
C30   C     C_R   0.827042 0.577040 0.601811 0.639332
C31   C     C_R   0.179323 0.579275 0.463652 0.553646
C32   C     C_R   0.816800 0.362938 0.339245 0.560397
C33   C     C_R   0.277632 0.555609 0.615614 -0.281643
C34   C     C_R   0.717234 0.342848 0.465427 -0.303247
C35   C     C_R   0.327532 0.583966 0.619254 0.412942
C36   C     C_R   0.666463 0.342069 0.454734 0.395450
C37   C     C_R   0.332051 0.350850 0.372383 -0.428943
C38   C     C_R   0.671447 0.630203 0.505800 -0.439386
C39   C     C_R   0.281297 0.328640 0.356144 0.499680
C40   C     C_R   0.722184 0.630326 0.504130 0.520044
C41   C     C_R   0.253482 0.436556 0.476868 0.191859
C42   C     C_R   0.745292 0.483587 0.481348 0.215415
Cu1   Cu    Cu3+1 0.505380 0.517380 0.684380 0.952134
Cu2   Cu    Cu3+1 0.494620 0.482620 0.315620 0.950144
H1    H     H_    0.354004 0.274627 0.277218 0.172048
H2    H     H_    0.652791 0.740056 0.519927 0.130238
H3    H     H_    0.462318 0.379513 0.949885 0.233953
H4    H     H_    0.537784 0.620129 0.050042 0.222060
H5    H     H_    0.111905 0.049287 0.341757 0.217800
H6    H     H_    0.889411 0.806686 0.778925 0.182703
H7    H     H_    0.735315 0.233011 0.458245 0.162233
H8    H     H_    0.257096 0.636758 0.711768 0.181189
H9    H     H_    0.952960 0.102931 0.147618 0.207181
H10   H     H_    0.041806 0.853399 0.555497 0.242631
N1    N     N_R   0.201120 0.436882 0.453375 -0.440196
N2    N     N_R   0.797277 0.475227 0.473269 -0.445223
N3    N     N_2   0.486510 0.456430 0.038510 -0.218542
N4    N     N_2   0.513490 0.543570 0.961490 -0.223741
O1    O     O_R   0.503500 0.286120 0.619780 -0.537313
O2    O     O_R   0.496500 0.713880 0.380220 -0.579477
O3    O     O_R   0.494410 0.256780 0.308360 -0.601866
O4    O     O_R   0.505590 0.743220 0.691640 -0.599780
O5    O     O_R   0.434810 0.514700 0.655690 -0.588109
O6    O     O_R   0.565190 0.485300 0.344310 -0.582490
O7    O     O_R   0.425720 0.485350 0.344280 -0.588106
O8    O     O_R   0.574280 0.514650 0.655720 -0.590103
O9    O     O_2   0.193972 0.162420 0.440615 -0.519331
O10   O     O_2   0.808969 0.665643 0.752936 -0.572783
O11   O     O_2   0.787718 0.270637 0.204185 -0.530116
O12   O     O_2   0.206156 0.710765 0.459235 -0.515829
O13   O     O_3   0.258584 0.213617 0.213213 -0.565462
C43   C     C_3   0.278572 0.063214 0.206430 0.128644
H11   H     H_    0.283500 0.038483 0.346255 0.161942
H12   H     H_    0.313768 0.055563 0.141688 0.119811
C44   C     C_3   0.245175 0.932685 0.088660 -0.721284
H13   H     H_    0.243533 0.944182 0.943717 0.228852
H14   H     H_    0.259393 0.814877 0.093506 0.209038
H15   H     H_    0.208307 0.939474 0.140059 0.275976
O14   O     O_3   0.749554 0.769145 0.510695 -0.587624
C45   C     C_3   0.736879 0.894107 0.656439 0.067346
H16   H     H_    0.729311 0.851433 0.782535 0.163032
H17   H     H_    0.704583 0.952795 0.613561 0.130762
C46   C     C_3   0.778344 0.018577 0.706345 -0.718709
H18   H     H_    0.786844 0.065999 0.585480 0.213632
H19   H     H_    0.768044 0.118132 0.817675 0.243285
H20   H     H_    0.811312 0.966455 0.754606 0.280958
O15   O     O_3   0.637869 0.202118 0.423189 -0.606139
C47   C     C_3   0.655466 0.082704 0.281996 0.070836
H21   H     H_    0.685232 0.020892 0.337885 0.158624
H22   H     H_    0.669003 0.132776 0.168550 0.161258
C48   C     C_3   0.615309 0.959001 0.200141 -0.836814
H23   H     H_    0.582140 0.017403 0.164545 0.255746
H24   H     H_    0.627480 0.878980 0.074378 0.206700
H25   H     H_    0.606676 0.884504 0.297397 0.215300
O16   O     O_3   0.348389 0.725373 0.721726 -0.607699
C49   C     C_3   0.338923 0.845792 0.625358 0.058719
H26   H     H_    0.299954 0.873646 0.627368 0.184581
H27   H     H_    0.349009 0.810098 0.479697 0.161084
C50   C     C_3   0.368414 0.996766 0.716292 -0.791209
H28   H     H_    0.407626 0.974641 0.712254 0.249962
H29   H     H_    0.360402 0.091296 0.641553 0.211637
H30   H     H_    0.359149 0.038338 0.861304 0.236464
O17   O     O_3   0.859781 0.089195 0.125481 -0.566363
C51   C     C_3   0.857107 0.962140 0.215849 0.048363
H31   H     H_    0.882415 0.870706 0.154905 0.152614
H32   H     H_    0.866054 0.997273 0.367612 0.117461
C52   C     C_3   0.806096 0.887804 0.186253 -0.644968
H33   H     H_    0.794008 0.862305 0.038881 0.275890
H34   H     H_    0.805286 0.775396 0.234150 0.231341
H35   H     H_    0.780583 0.970314 0.263315 0.240092
O18   O     O_3   0.133890 0.877761 0.576192 -0.531061
C53   C     C_3   0.135028 0.934906 0.769314 0.062395
H36   H     H_    0.156345 0.855626 0.838566 0.142309
H37   H     H_    0.098139 0.942763 0.821454 0.127337
C54   C     C_3   0.158394 0.101311 0.822146 -0.695156
H38   H     H_    0.136494 0.183384 0.759869 0.237432
H39   H     H_    0.160337 0.144636 0.974061 0.210023
H40   H     H_    0.195542 0.100714 0.773825 0.283831
O19   O     O_3   0.016116 0.020544 0.312078 -0.615467
C55   C     C_3   0.031491 0.901315 0.166106 0.024399
H41   H     H_    0.064273 0.845626 0.210117 0.155809
H42   H     H_    0.039069 0.949277 0.044167 0.179493
C56   C     C_3   0.992018 0.770945 0.109758 -0.718144
H43   H     H_    0.959172 0.818384 0.054754 0.249208
H44   H     H_    0.004669 0.672280 0.002513 0.218163
H45   H     H_    0.982328 0.724307 0.229565 0.233153
O20   O     O_3   0.981174 0.865252 0.743829 -0.620510
C57   C     C_3   0.961275 0.005909 0.709835 0.037606
H46   H     H_    0.928547 0.035686 0.787956 0.160106
H47   H     H_    0.951775 0.994606 0.560495 0.184528
C58   C     C_3   0.997874 0.144796 0.774457 -0.770299
H48   H     H_    0.982626 0.254238 0.744587 0.215928
H49   H     H_    0.006474 0.165199 0.924677 0.227592
H50   H     H_    0.031812 0.121182 0.703001 0.256571
O21   O     O_3   0.449382 0.955865 0.327625 -0.618466
C59   C     C_3   0.458973 0.930002 0.140649 0.044288
H51   H     H_    0.496264 0.889042 0.114617 0.155371
H52   H     H_    0.453221 0.038864 0.088506 0.177778
C60   C     C_3   0.423134 0.802801 0.034598 -0.634599
H53   H     H_    0.385799 0.844430 0.052375 0.243444
H54   H     H_    0.430657 0.777475 0.887575 0.259032
H55   H     H_    0.426105 0.692723 0.085891 0.262127
O22   O     O_3   0.534557 0.057315 0.724479 -0.576325
C61   C     C_3   0.583481 0.017041 0.729963 0.041458
H56   H     H_    0.597687 0.982913 0.591494 0.144794
H57   H     H_    0.587797 0.917064 0.799023 0.149004
C62   C     C_3   0.613723 0.160850 0.837339 -0.677376
H58   H     H_    0.652265 0.130490 0.847368 0.172564
H59   H     H_    0.610686 0.259957 0.766447 0.279690
H60   H     H_    0.600686 0.201234 0.977228 0.250656

loop_
_geom_bond_atom_site_label_1
_geom_bond_atom_site_label_2
_ccdc_geom_bond_type
O15   C47   S    
Cu1   O1    S    
C43   H12   S    
C8    C26   A    
C14   C18   A    
O16   C49   S    
C34   C42   A    
C62   H58   S    
Cu1   Cu2   S    
C58   H50   S    
C57   H46   S    
C51   H32   S    
Cu1   O5    S    
O21   C59   S    
C39   C41   A    
Cu2   O6    S    
C33   H8    S    
C36   O15   S    
C19   C21   A    
C59   C60   S    
C45   H16   S    
C60   H55   S    
C2    O2    A    
C9    C22   A    
C56   H44   S    
H3    N3    S    
O22   C61   S    
C49   C50   S    
C3    C18   A    
C11   C37   A    
C53   H36   S    
Cu1   N4    S    
C42   N2    S    
C29   O9    S    
C31   O12   S    
C41   N1    S    
C46   H18   S    
C54   H39   S    
C49   H27   S    
C52   H33   S    
C12   C36   A    
C46   H19   S    
C55   C56   S    
C24   O8    A    
C19   H9    S    
C40   C42   A    
C24   O6    A    
C52   H34   S    
Cu2   O7    S    
C61   C62   S    
C25   O19   S    
C53   H37   S    
C51   H31   S    
C55   H42   S    
C5    C29   A    
C10   C21   A    
C23   O5    A    
C13   C19   A    
C14   C20   A    
C56   H43   S    
C62   H60   S    
C7    H5    S    
C61   H57   S    
C48   H23   S    
C5    C7    A    
C43   H11   S    
C56   H45   S    
C6    C8    A    
C29   N1    A    
C3    C5    A    
C30   N2    A    
C57   H47   S    
C44   H13   S    
C3    C9    A    
C48   H24   S    
C50   H28   S    
C47   C48   S    
Cu2   N3    S    
C60   H53   S    
C54   H40   S    
C49   H26   S    
C50   H30   S    
C34   H7    S    
C40   O14   S    
C28   O22   S    
C44   H14   S    
C4    C17   A    
C20   H10   S    
C6    C30   A    
C1    O1    A    
C20   C22   A    
C52   H35   S    
C4    C6    A    
C4    C10   A    
O20   C57   S    
C57   C58   S    
C8    H6    S    
C27   C28   D    
C55   H41   S    
C59   H52   S    
C45   C46   S    
C16   C25   A    
C15   C17   A    
O18   C53   S    
C62   H59   S    
C47   H22   S    
C59   H51   S    
C58   H49   S    
C1    O3    A    
O19   C55   S    
C15   C26   A    
H4    N4    S    
C32   O11   S    
C35   O16   S    
Cu2   O3    S    
C12   C24   S    
C7    C25   A    
C13   C17   A    
C61   H56   S    
C27   O21   S    
C23   O7    A    
C11   C35   A    
C33   C41   A    
O13   C43   S    
C37   C39   A    
C48   H25   S    
C38   C40   A    
C60   H54   S    
C43   C44   S    
N3    N4    D    
Cu2   O2    S    
Cu1   O8    S    
C11   C23   S    
C33   C35   A    
C45   H17   S    
C32   N2    A    
C34   C36   A    
C26   O20   S    
C53   C54   S    
C12   C38   A    
C58   H48   S    
C44   H15   S    
C38   H2    S    
C9    C31   A    
O14   C45   S    
C21   O17   S    
C10   C32   A    
C46   H20   S    
C47   H21   S    
C16   C18   A    
C22   O18   S    
C13   C16   A    
O17   C51   S    
C1    C27   S    
C39   O13   S    
C14   C15   A    
C2    C28   S    
C31   N1    A    
C37   H1    S    
C50   H29   S    
C51   C52   S    
C30   O10   S    
C54   H38   S    
Cu1   O4    S    
C2    O4    A    
