data_mof_unit_33438.cif
_audit_creation_date              2013-03-05T15:55:18-0500
_audit_creation_method            fapswitch 2.2
_symmetry_space_group_name_H-M    P1
_symmetry_Int_Tables_number       1
_space_group_crystal_system       triclinic
_cell_length_a                    14.742122
_cell_length_b                    14.756574
_cell_length_c                    33.25678
_cell_angle_alpha                 96.081775
_cell_angle_beta                  96.226402
_cell_angle_gamma                 61.236762
_cell_volume                      6292.70733385

loop_
_atom_site_label
_atom_site_type_symbol
_atom_site_description
_atom_site_fract_x
_atom_site_fract_y
_atom_site_fract_z
_atom_type_partial_charge
O1    O     O_R   0.679450 0.499830 0.463150 -0.504901
O2    O     O_R   0.480650 0.664000 0.464630 -0.535879
C1    C     C_R   0.391303 0.698729 0.445772 0.801539
O3    O     O_R   0.323930 0.675950 0.455370 -0.545070
O4    O     O_R   0.354700 0.475360 0.451930 -0.536831
C2    C     C_R   0.405702 0.386316 0.434054 0.799201
O5    O     O_R   0.494470 0.320860 0.448390 -0.547109
O6    O     O_R   0.662580 0.357570 0.460050 -0.548423
C3    C     C_R   0.701720 0.409388 0.447705 0.824938
O7    O     O_R   0.680900 0.502040 0.551870 -0.473489
O8    O     O_R   0.481990 0.666040 0.546870 -0.491194
C4    C     C_R   0.393507 0.701471 0.561282 0.857935
O9    O     O_R   0.325370 0.678160 0.544080 -0.550478
O10   O     O_R   0.356040 0.477400 0.534170 -0.539466
C5    C     C_R   0.407495 0.388964 0.549158 0.810135
O11   O     O_R   0.495910 0.323070 0.537100 -0.524036
O12   O     O_R   0.663920 0.359620 0.542290 -0.506633
C6    C     C_R   0.701560 0.413661 0.562770 0.959524
Cr1   Cr    Cr6+3 0.576280 0.580550 0.506370 1.104872
Cr2   Cr    Cr6+3 0.346780 0.572400 0.496520 0.977444
Cr3   Cr    Cr6+3 0.576960 0.347070 0.497150 1.018902
O13   O     O_3   0.500010 0.500010 0.500010 -0.370116
H1    H     H_    0.459655 0.196169 0.311428 0.190427
H2    H     H_    0.498370 0.212126 0.384162 0.165594
C7    C     C_R   0.368882 0.366270 0.392822 -0.112074
C8    C     C_R   0.280582 0.445483 0.373720 -0.209205
C9    C     C_R   0.257365 0.437123 0.331903 0.393616
C10   C     C_R   0.324679 0.347287 0.309271 -0.046705
C11   C     C_R   0.408042 0.265316 0.328747 -0.144569
C12   C     C_R   0.429971 0.274462 0.370260 -0.144189
C13   C     C_R   0.399885 0.259066 0.165176 0.221793
C14   C     C_R   0.389314 0.244008 0.122825 0.603839
C15   C     C_R   0.206040 0.368113 0.123046 -0.331197
C16   C     C_R   0.215679 0.383785 0.164887 0.666311
C17   C     C_R   0.310964 0.326925 0.186200 -0.270116
C18   C     C_1   0.314552 0.336201 0.229577 0.241534
C19   C     C_1   0.317682 0.341799 0.265901 0.113342
C20   C     C_R   0.291288 0.294679 0.101831 -0.326153
H3    H     H_    0.232057 0.516042 0.391033 0.188210
H4    H     H_    0.129884 0.408793 0.107694 0.209089
N1    N     N_R   0.823430 0.398400 0.226705 -0.232631
N2    N     N_R   0.818882 0.402846 0.266591 -0.230887
C21   C     C_R   0.756735 0.371537 0.409930 -0.162041
C22   C     C_R   0.805538 0.422119 0.394688 0.379326
C23   C     C_R   0.826697 0.404625 0.353653 -0.163196
C24   C     C_R   0.804358 0.334625 0.328266 -0.054563
C25   C     C_R   0.767739 0.276071 0.344830 -0.112875
C26   C     C_R   0.743954 0.294477 0.385152 -0.198731
N3    N     N_R   0.811791 0.247150 0.260516 -0.253595
N4    N     N_R   0.816861 0.242444 0.220590 -0.239783
C27   C     C_R   0.822387 0.318265 0.202910 0.522374
C28   C     C_R   0.813629 0.327016 0.284305 0.537127
C29   C     C_R   0.829426 0.394317 0.140833 -0.079646
C30   C     C_R   0.862840 0.381406 0.102103 -0.113408
C31   C     C_R   0.902665 0.201188 0.098160 -0.136239
C32   C     C_R   0.868822 0.214247 0.136963 -0.084584
C33   C     C_R   0.836769 0.309662 0.159331 -0.001905
C34   C     C_R   0.904518 0.283507 0.081254 -0.061780
H5    H     H_    0.708408 0.253075 0.395987 0.168763
H6    H     H_    0.861781 0.446729 0.089546 0.169340
H7    H     H_    0.860089 0.446360 0.341481 0.201725
H8    H     H_    0.751301 0.220389 0.326078 0.173213
H9    H     H_    0.802918 0.469380 0.157052 0.186265
H10   H     H_    0.933748 0.125000 0.082632 0.151621
H11   H     H_    0.874278 0.147880 0.150351 0.168499
N5    N     N_R   0.316631 0.759665 0.216313 -0.269979
N6    N     N_R   0.316114 0.755752 0.256021 -0.266920
C35   C     C_R   0.373097 0.748809 0.407508 -0.152841
C36   C     C_R   0.286465 0.763055 0.381348 -0.121993
C37   C     C_R   0.281822 0.783980 0.341152 -0.183840
C38   C     C_R   0.362838 0.792586 0.326425 -0.130494
C39   C     C_R   0.445208 0.787721 0.353437 0.675204
C40   C     C_R   0.450283 0.765567 0.393685 -0.214702
N7    N     N_R   0.412947 0.844151 0.267889 -0.165532
N8    N     N_R   0.412840 0.848650 0.228115 -0.190088
C41   C     C_R   0.365385 0.805770 0.201506 0.552343
C42   C     C_R   0.363789 0.798305 0.282576 0.551972
C43   C     C_R   0.265100 0.827882 0.135412 -0.166195
C44   C     C_R   0.237867 0.866165 0.097056 -0.135170
C45   C     C_R   0.393545 0.883720 0.100597 -0.194992
C46   C     C_R   0.422958 0.843331 0.139032 0.385622
C47   C     C_R   0.354463 0.821252 0.157725 -0.098941
C48   C     C_R   0.299205 0.899092 0.080141 -0.113661
H12   H     H_    0.225419 0.751118 0.391069 0.186251
H13   H     H_    0.517826 0.755266 0.413265 0.188887
H14   H     H_    0.165277 0.875904 0.081792 0.164474
H15   H     H_    0.216570 0.789342 0.321137 0.201731
H16   H     H_    0.211878 0.810274 0.148672 0.178066
H17   H     H_    0.443494 0.905275 0.087072 0.197864
N9    N     N_R   0.265876 0.436245 0.769232 -0.238249
N10   N     N_R   0.265559 0.437560 0.729247 -0.203154
C49   C     C_R   0.370868 0.368650 0.585008 -0.131076
C50   C     C_R   0.277073 0.443046 0.600909 -0.199522
C51   C     C_R   0.251166 0.433733 0.639102 0.383902
C52   C     C_R   0.322692 0.349799 0.662280 -0.113472
C53   C     C_R   0.411793 0.271244 0.644556 -0.140120
C54   C     C_R   0.435472 0.280377 0.606353 -0.103796
N11   N     N_R   0.364629 0.257304 0.724542 -0.250097
N12   N     N_R   0.365553 0.255959 0.764490 -0.199697
C55   C     C_R   0.317138 0.345404 0.787601 0.635764
C56   C     C_R   0.314183 0.348047 0.706043 0.555704
C57   C     C_R   0.219782 0.401114 0.849214 -0.231002
C58   C     C_R   0.207034 0.381944 0.887754 0.593457
C59   C     C_R   0.388480 0.251977 0.893460 0.529416
C60   C     C_R   0.401560 0.270972 0.854544 0.296974
C61   C     C_R   0.314607 0.342160 0.831472 -0.278456
C62   C     C_R   0.289921 0.302997 0.909420 -0.382139
H18   H     H_    0.224765 0.509751 0.583981 0.188179
H19   H     H_    0.507926 0.221193 0.594737 0.199108
H20   H     H_    0.467310 0.205483 0.661307 0.199625
H21   H     H_    0.152903 0.456849 0.831970 0.220438
H22   H     H_    0.980883 0.120341 0.872777 0.190270
H23   H     H_    0.930594 0.142313 0.800895 0.162379
C63   C     C_R   0.753829 0.382006 0.603442 -0.488119
C64   C     C_R   0.778838 0.449896 0.629612 0.566038
C65   C     C_R   0.802813 0.434064 0.671190 0.215717
C66   C     C_R   0.804768 0.347357 0.686352 -0.360309
C67   C     C_R   0.788882 0.275244 0.659946 0.565485
C68   C     C_R   0.763769 0.292020 0.618840 0.493866
C69   C     C_R   0.905229 0.210227 0.821778 -0.075167
C70   C     C_R   0.932774 0.198157 0.862949 -0.182851
C71   C     C_R   0.843397 0.385694 0.876361 0.395297
C72   C     C_R   0.817522 0.396486 0.834598 -0.131943
C73   C     C_R   0.850633 0.309198 0.807487 0.013807
C74   C     C_1   0.833778 0.321160 0.764764 0.066762
C75   C     C_1   0.821210 0.332034 0.728964 0.255804
C76   C     C_R   0.906466 0.285124 0.890478 -0.170931
H24   H     H_    0.772500 0.472955 0.823130 0.199956
H25   H     H_    0.419689 0.947638 0.891827 0.224758
C77   C     C_R   0.376150 0.755451 0.602040 -0.291633
C78   C     C_R   0.282382 0.785281 0.619598 -0.198399
C79   C     C_R   0.272758 0.814244 0.660810 -0.193781
C80   C     C_R   0.356281 0.814426 0.684980 -0.152623
C81   C     C_R   0.447528 0.791906 0.667485 0.630388
C82   C     C_R   0.457560 0.763000 0.626142 0.553769
C83   C     C_R   0.394284 0.890219 0.832400 0.727084
C84   C     C_R   0.374080 0.917533 0.873165 -0.304599
C85   C     C_R   0.233940 0.873464 0.863410 0.666913
C86   C     C_R   0.254666 0.845997 0.822666 -0.288289
C87   C     C_R   0.332545 0.857297 0.806906 -0.148595
C88   C     C_1   0.343691 0.841898 0.764106 0.139459
C89   C     C_1   0.350234 0.830290 0.728049 0.141291
C90   C     C_R   0.291269 0.913215 0.888819 -0.282352
H26   H     H_    0.218221 0.780807 0.602012 0.208287
H27   H     H_    0.207225 0.819669 0.803045 0.198153
H28   H     H_    0.201671 0.832135 0.674153 0.195446
O14   O     O_R   0.170070 0.978950 0.027680 -0.543713
O15   O     O_R   0.001760 0.175230 0.026640 -0.539106
C91   C     C_R   0.963068 0.264466 0.045424 0.787720
O16   O     O_R   0.984760 0.333570 0.037150 -0.538875
O17   O     O_R   0.183410 0.309240 0.041890 -0.549490
C92   C     C_R   0.272972 0.259722 0.059964 0.890523
O18   O     O_R   0.340240 0.172500 0.045430 -0.493057
O19   O     O_R   0.309670 0.000990 0.032050 -0.535255
C93   C     C_R   0.259277 0.959607 0.043819 0.797136
O20   O     O_R   0.168330 0.982130 0.939200 -0.498639
O21   O     O_R   0.000140 0.178170 0.944610 -0.542562
C94   C     C_R   0.960973 0.268123 0.931158 0.860151
O22   O     O_R   0.983010 0.336750 0.948660 -0.485055
O23   O     O_R   0.181800 0.312190 0.959860 -0.502529
C95   C     C_R   0.270801 0.264000 0.945139 0.904373
O24   O     O_R   0.338500 0.175680 0.956950 -0.501185
O25   O     O_R   0.308050 0.003930 0.950020 -0.542938
C96   C     C_R   0.256288 0.964715 0.928991 0.863414
Cr4   Cr    Cr6+3 0.087320 0.083240 0.984860 1.013604
Cr5   Cr    Cr6+3 0.087720 0.316210 0.996740 1.058937
Cr6   Cr    Cr6+3 0.317350 0.090340 0.995890 1.052358
O26   O     O_3   0.164130 0.163270 0.992500 -0.375976
F1    F     F_    0.473283 0.174677 0.102621 -0.575610
N13   N     N_R   0.499858 0.202768 0.186284 0.167363
O27   O     O_R   0.508653 0.162006 0.220269 -0.351665
O28   O     O_R   0.583644 0.185798 0.170156 -0.283955
F2    F     F_    0.524814 0.796068 0.340368 -0.614573
N14   N     N_R   0.521824 0.825134 0.158391 0.131272
O29   O     O_R   0.578789 0.741593 0.177748 -0.327696
O30   O     O_R   0.561649 0.883694 0.151877 -0.300476
F3    F     F_    0.111213 0.435469 0.902210 -0.605416
N15   N     N_R   0.152511 0.509101 0.653600 0.139315
O31   O     O_R   0.109650 0.604368 0.643275 -0.323968
O32   O     O_R   0.098471 0.479660 0.672006 -0.299251
F4    F     F_    0.471803 0.182490 0.915441 -0.572441
N16   N     N_R   0.502634 0.217631 0.838671 0.176493
O33   O     O_R   0.533549 0.266087 0.817693 -0.339079
O34   O     O_R   0.566683 0.122436 0.847121 -0.248344
F5    F     F_    0.793528 0.190230 0.674363 -0.590425
F6    F     F_    0.744193 0.222402 0.594683 -0.592733
F7    F     F_    0.772522 0.536022 0.615520 -0.511704
N17   N     N_R   0.805285 0.476579 0.903709 0.136644
O35   O     O_R   0.786805 0.565201 0.891525 -0.302343
O36   O     O_R   0.775401 0.474306 0.938834 -0.346472
N18   N     N_R   0.821109 0.508325 0.697661 0.205748
O37   O     O_R   0.782306 0.537986 0.732967 -0.328597
O38   O     O_R   0.869453 0.553183 0.685228 -0.216118
F8    F     F_    0.470577 0.900815 0.817447 -0.579145
F9    F     F_    0.528615 0.792977 0.690790 -0.549777
F10   F     F_    0.549001 0.736664 0.610512 -0.557112
F11   F     F_    0.154733 0.865768 0.877231 -0.621176
F12   F     F_    0.130379 0.450745 0.184865 -0.597492
N19   N     N_R   0.168818 0.521628 0.312928 0.118607
O39   O     O_R   0.130891 0.614931 0.330043 -0.352516
O40   O     O_R   0.120029 0.504803 0.280434 -0.300913
N20   N     N_R   0.833662 0.490944 0.420137 0.120192
O41   O     O_R   0.832666 0.569328 0.405076 -0.321222
O42   O     O_R   0.875046 0.466811 0.456631 -0.338239

loop_
_geom_bond_atom_site_label_1
_geom_bond_atom_site_label_2
_geom_bond_distance
_ccdc_geom_bond_type
Cr5   O26   1.975510 S    
C31   C32   1.394938 A    
C50   C51   1.403856 A    
C80   C81   1.398947 A    
C66   C67   1.398446 A    
N1    N2    1.328547 A    
C52   C53   1.405108 A    
N6    C42   1.356771 A    
C83   C87   1.397901 A    
C6    C63   1.484231 S    
C25   H8    1.083068 S    
N15   O31   1.301467 A    
C72   H24   1.083886 S    
C72   C73   1.398068 A    
O4    Cr2   1.920922 S    
C30   H6    1.083171 S    
C23   C24   1.403780 A    
C32   C33   1.404677 A    
C4    O9    1.273100 A    
O8    Cr1   1.922566 S    
C8    C9    1.402649 A    
O11   Cr3   2.041955 S    
C4    C77   1.479044 S    
H1    C11   1.084079 S    
C10   C11   1.398480 A    
C70   C76   1.408768 A    
C85   C90   1.410529 A    
C50   H18   1.083180 S    
O4    C2    1.275128 A    
C45   C46   1.403421 A    
C8    H3    1.082987 S    
C2    C7    1.472926 S    
C48   C93   1.473593 S    
N13   O27   1.301241 A    
C5    O11   1.271315 A    
O16   Cr5   2.042276 S    
C24   C28   1.470537 S    
C45   H17   1.083171 S    
C54   H19   1.083123 S    
C65   C66   1.410774 A    
N17   O36   1.301525 A    
C16   C17   1.398349 A    
C51   N15   1.437501 S    
C20   C92   1.475803 S    
C71   C76   1.418584 A    
C43   C47   1.405375 A    
C67   C68   1.393155 A    
O14   Cr4   2.040909 S    
C57   C58   1.392258 A    
C82   F10   1.357732 S    
N14   O29   1.301506 A    
C77   C78   1.407350 A    
O21   C94   1.275823 A    
C1    C35   1.473693 S    
C35   C36   1.404129 A    
C44   C48   1.400479 A    
N7    C42   1.356500 A    
C52   C56   1.478311 S    
O17   C92   1.277081 A    
C57   C61   1.399618 A    
C37   C38   1.403021 A    
C27   C33   1.470810 S    
O23   Cr5   1.925054 S    
C60   N16   1.439552 S    
O14   C93   1.271671 A    
C21   C26   1.407688 A    
C63   C68   1.409801 A    
C34   C91   1.470575 S    
N5    N6    1.328921 A    
C5    C49   1.474474 S    
N19   O39   1.301677 A    
Cr3   O13   1.975704 S    
C31   H10   1.083116 S    
C22   N20   1.437616 S    
O15   Cr4   1.922755 S    
C57   H21   1.083657 S    
C51   C52   1.417457 A    
N10   C56   1.358994 A    
C45   C48   1.404409 A    
C37   H15   1.083372 S    
N9    C55   1.356353 A    
C59   C60   1.404917 A    
C67   F5    1.358689 S    
C49   C54   1.401107 A    
C46   C47   1.417013 A    
H2    C12   1.083046 S    
O1    Cr1   2.041081 S    
C15   H4    1.083283 S    
C3    C21   1.477977 S    
N7    N8    1.331229 A    
N18   O37   1.301259 A    
O10   Cr2   1.924155 S    
Cr1   O13   1.975524 S    
O1    C3    1.273754 A    
C87   C88   1.432099 S    
N20   O41   1.301480 A    
O21   Cr4   1.922877 S    
Cr6   O26   1.975865 S    
C29   C33   1.403185 A    
C43   C44   1.389543 A    
O6    C3    1.276205 A    
N4    C27   1.357117 A    
C7    C8    1.406430 A    
C29   C30   1.390424 A    
C53   H20   1.083118 S    
O12   Cr3   1.919247 S    
N17   O35   1.301587 A    
C58   F3    1.357764 S    
C17   C18   1.432195 S    
O25   Cr6   1.918991 S    
N8    C41   1.358666 A    
N18   O38   1.301148 A    
C83   F8    1.357865 S    
C11   C12   1.390833 A    
C79   C80   1.396522 A    
H23   C69   1.083842 S    
C64   F7    1.358805 S    
C16   F12   1.358474 S    
C71   N17   1.438315 S    
C25   C26   1.388581 A    
O7    Cr1   2.038698 S    
O8    C4    1.277026 A    
N3    C28   1.357998 A    
N5    C41   1.356575 A    
C53   C54   1.389959 A    
O12   C6    1.279272 A    
C80   C89   1.432099 S    
C9    N19   1.441771 S    
C39   F2    1.357369 S    
O15   C91   1.276617 A    
N16   O33   1.301537 A    
C76   C94   1.476823 S    
C40   H13   1.083180 S    
O19   C93   1.276071 A    
C2    O5    1.272237 A    
N20   O42   1.301498 A    
C81   F9    1.358148 S    
C65   N18   1.441227 S    
Cr2   O13   1.975976 S    
N11   N12   1.329290 A    
Cr4   O26   1.975452 S    
C14   C20   1.409528 A    
C21   C22   1.416957 A    
C94   O22   1.273025 A    
C13   C17   1.413224 A    
O19   Cr6   1.925256 S    
C41   C47   1.477269 S    
C1    O3    1.270503 A    
O17   Cr5   1.920636 S    
C62   C95   1.481643 S    
C90   C96   1.478344 S    
C38   C42   1.471580 S    
C69   C70   1.390264 A    
C26   H5    1.083251 S    
C30   C34   1.404014 A    
C43   H16   1.083089 S    
C7    C12   1.402309 A    
C24   C25   1.398477 A    
C86   H27   1.083835 S    
O9    Cr2   2.036708 S    
O2    Cr1   1.922973 S    
C13   C14   1.405971 A    
C22   C23   1.402319 A    
C39   C40   1.396967 A    
C78   C79   1.393205 A    
O6    Cr3   1.925120 S    
N15   O32   1.301295 A    
C86   C87   1.397836 A    
O22   Cr5   2.036782 S    
C63   C64   1.413560 A    
C81   C82   1.397619 A    
C13   N13   1.440817 S    
N11   C56   1.357037 A    
C60   C61   1.413135 A    
C55   C61   1.469941 S    
C15   C20   1.403991 A    
N12   C55   1.356356 A    
C79   H28   1.083811 S    
O23   C95   1.278484 A    
O2    C1    1.276785 A    
C35   C40   1.405577 A    
C68   F6    1.358025 S    
C38   C39   1.407068 A    
C36   H12   1.083135 S    
C95   O24   1.273016 A    
C88   C89   1.200946 T    
C46   N14   1.437819 S    
O5    Cr3   2.037161 S    
C29   H9    1.083105 S    
N9    N10   1.331450 A    
C74   C75   1.200657 T    
N13   O28   1.301407 A    
C10   C19   1.431266 S    
O7    C6    1.272392 A    
C23   H7    1.083180 S    
C49   C50   1.404113 A    
N14   O30   1.301507 A    
C15   C16   1.389391 A    
C59   F4    1.358885 S    
C59   C62   1.410508 A    
C84   C90   1.408986 A    
C36   C37   1.390791 A    
N16   O34   1.301317 A    
O25   C96   1.276600 A    
O20   Cr4   2.038801 S    
C85   C86   1.395687 A    
O24   Cr6   2.042357 S    
O3    Cr2   2.041808 S    
C85   F11   1.357480 S    
C69   C73   1.392660 A    
H22   C70   1.083472 S    
H25   C84   1.083120 S    
C92   O18   1.271792 A    
O20   C96   1.272407 A    
C14   F1    1.358852 S    
C18   C19   1.199446 T    
N3    N4    1.330563 A    
C31   C34   1.404446 A    
C9    C10   1.411829 A    
N19   O40   1.301246 A    
C77   C82   1.412923 A    
O10   C5    1.276738 A    
C83   C84   1.394766 A    
C66   C75   1.434861 S    
C58   C62   1.409400 A    
C64   C65   1.405179 A    
C71   C72   1.404777 A    
C91   O16   1.268936 A    
N1    C27   1.356978 A    
C44   H14   1.083122 S    
O18   Cr6   2.036679 S    
C78   H26   1.083034 S    
C32   H11   1.082868 S    
N2    C28   1.355781 A    
C73   C74   1.430391 S    
