data_mof_unit_55208.cif
_audit_creation_date              2013-03-05T15:47:29-0500
_audit_creation_method            fapswitch 2.2
_symmetry_space_group_name_H-M    P1
_symmetry_Int_Tables_number       1
_space_group_crystal_system       triclinic
_cell_length_a                    13.605406
_cell_length_b                    13.585354
_cell_length_c                    28.296409
_cell_angle_alpha                 89.958064
_cell_angle_beta                  89.994044
_cell_angle_gamma                 119.75077
_cell_volume                      4540.76956878

loop_
_atom_site_label
_atom_site_type_symbol
_atom_site_description
_atom_site_fract_x
_atom_site_fract_y
_atom_site_fract_z
_atom_type_partial_charge
O1    O     O_R   0.863770 0.527700 0.199270 -0.505571
O2    O     O_R   0.472300 0.336070 0.199270 -0.503744
O3    O     O_R   0.663930 0.136230 0.199270 -0.505848
O4    O     O_R   0.527700 0.863770 0.800730 -0.501293
O5    O     O_R   0.336070 0.472300 0.800730 -0.508034
O6    O     O_R   0.136230 0.663930 0.800730 -0.491550
O7    O     O_R   0.643280 0.490970 0.202410 -0.488821
O8    O     O_R   0.509030 0.152310 0.202410 -0.488084
O9    O     O_R   0.847690 0.356720 0.202410 -0.488530
O10   O     O_R   0.490970 0.643280 0.797590 -0.490825
O11   O     O_R   0.152310 0.509030 0.797590 -0.474349
O12   O     O_R   0.356720 0.847690 0.797590 -0.504544
C1    C     C_R   0.546103 0.432701 0.183613 0.540644
C2    C     C_R   0.568247 0.114438 0.183394 0.543556
C3    C     C_R   0.886917 0.454122 0.183859 0.543435
C4    C     C_R   0.433525 0.545191 0.815847 0.533526
C5    C     C_R   0.160134 0.593695 0.821720 0.540970
C6    C     C_R   0.454608 0.888205 0.815861 0.535057
O13   O     O_R   0.862920 0.527590 0.302350 -0.475955
O14   O     O_R   0.472410 0.335330 0.302350 -0.475303
O15   O     O_R   0.664670 0.137080 0.302350 -0.476064
O16   O     O_R   0.527590 0.862920 0.697650 -0.474300
O17   O     O_R   0.335330 0.472410 0.697650 -0.476282
O18   O     O_R   0.137080 0.664670 0.697650 -0.472470
O19   O     O_R   0.642490 0.490870 0.297970 -0.482285
O20   O     O_R   0.509130 0.151620 0.297970 -0.481966
O21   O     O_R   0.848380 0.357510 0.297970 -0.482378
O22   O     O_R   0.490870 0.642490 0.702030 -0.480488
O23   O     O_R   0.151620 0.509130 0.702030 -0.477681
O24   O     O_R   0.357510 0.848380 0.702030 -0.482673
C7    C     C_R   0.544208 0.434550 0.316352 0.565909
C8    C     C_R   0.565520 0.109535 0.316342 0.566369
C9    C     C_R   0.890441 0.455672 0.316354 0.566333
C10   C     C_R   0.434494 0.544168 0.683642 0.566334
C11   C     C_R   0.109543 0.565475 0.683658 0.577834
C12   C     C_R   0.455688 0.890472 0.683656 0.567266
Cr1   Cr    Cr6+3 0.748260 0.501860 0.250510 1.095522
Cr2   Cr    Cr6+3 0.498140 0.246400 0.250510 1.096055
Cr3   Cr    Cr6+3 0.753600 0.251740 0.250510 1.096895
Cr4   Cr    Cr6+3 0.501860 0.748260 0.749490 1.089857
Cr5   Cr    Cr6+3 0.246400 0.498140 0.749490 1.095767
Cr6   Cr    Cr6+3 0.251740 0.753600 0.749490 1.091741
O25   O     O_3   0.666667 0.333333 0.250440 -0.283969
O26   O     O_3   0.333333 0.666667 0.749560 -0.300996
C13   C     C_3   0.489748 0.123051 0.017503 -0.186837
C14   C     C_3   0.913135 0.381025 0.018871 -0.186679
C15   C     C_3   0.633590 0.513433 0.018818 -0.189810
C16   C     C_3   0.154148 0.528414 0.990039 -0.190514
C17   C     C_3   0.400295 0.886578 0.980946 -0.187941
C18   C     C_3   0.498736 0.612647 0.979414 -0.190303
C19   C     C_3   0.409215 0.913535 0.034768 0.144795
C20   C     C_3   0.117582 0.506899 0.042918 0.144908
C21   C     C_3   0.511023 0.603049 0.033772 0.145370
C22   C     C_3   0.946000 0.400817 0.965417 0.153752
C23   C     C_3   0.474614 0.097230 0.963309 0.148315
C24   C     C_3   0.621955 0.522056 0.964157 0.149110
H1    H     H_    0.416423 0.125376 0.032928 0.226943
H2    H     H_    0.914175 0.305476 0.032925 0.234726
H3    H     H_    0.709581 0.587988 0.033133 0.228931
H4    H     H_    0.185032 0.471781 0.977311 0.203395
H5    H     H_    0.313602 0.854220 0.967392 0.204627
H6    H     H_    0.561296 0.696597 0.965346 0.219216
H7    H     H_    0.427697 0.851902 0.052778 0.183783
H8    H     H_    0.175412 0.584784 0.062784 0.192466
H9    H     H_    0.430251 0.587039 0.050158 0.185894
H10   H     H_    0.875989 0.405076 0.946869 0.143260
H11   H     H_    0.545323 0.171519 0.945259 0.127377
H12   H     H_    0.618241 0.445325 0.948236 0.135391
H13   H     H_    0.417817 0.815568 0.975305 0.068039
H14   H     H_    0.228260 0.615424 0.986596 0.068159
H15   H     H_    0.414847 0.605181 0.972180 0.058296
H16   H     H_    0.824648 0.363907 0.023204 0.060346
H17   H     H_    0.563473 0.209400 0.023139 0.053633
H18   H     H_    0.645104 0.439398 0.026565 0.057155
C25   C     C_1   0.471056 0.937307 0.861509 0.047646
C26   C     C_1   0.120841 0.565403 0.868949 0.046116
C27   C     C_1   0.466952 0.529008 0.861482 0.052184
C28   C     C_1   0.933139 0.469324 0.137886 0.051985
C29   C     C_1   0.542755 0.076673 0.135939 0.052474
C30   C     C_1   0.533496 0.462246 0.136676 0.050045
C31   C     C_3   0.510788 0.034462 0.043788 -0.005235
C32   C     C_3   0.995063 0.487387 0.047967 -0.013169
C33   C     C_3   0.525954 0.498507 0.044562 -0.005975
C34   C     C_3   0.055810 0.518732 0.958591 -0.006077
C35   C     C_3   0.488498 0.991995 0.952495 -0.001152
C36   C     C_3   0.506941 0.516868 0.952717 -0.007046
C37   C     C_3   0.607646 0.019280 0.969384 -0.260436
C38   C     C_3   0.028847 0.610934 0.975408 -0.258207
C39   C     C_3   0.410115 0.402590 0.971134 -0.265474
C40   C     C_3   0.989268 0.590093 0.027255 -0.256812
C41   C     C_3   0.620119 0.042636 0.023034 -0.262940
C42   C     C_3   0.423536 0.390173 0.024446 -0.263518
C43   C     C_1   0.479767 0.966427 0.901958 0.010028
C44   C     C_1   0.090592 0.542122 0.909139 0.006364
C45   C     C_1   0.489078 0.522394 0.901958 0.018747
C46   C     C_1   0.962335 0.477193 0.097570 0.006448
C47   C     C_1   0.527419 0.056449 0.094561 0.006244
C48   C     C_1   0.529825 0.481403 0.095528 0.018054
H19   H     H_    0.693711 0.128559 0.029589 0.152315
H20   H     H_    0.900760 0.574069 0.029220 0.158072
H21   H     H_    0.435192 0.315719 0.030593 0.150542
H22   H     H_    0.104966 0.696272 0.971759 0.191953
H23   H     H_    0.622272 0.947297 0.961383 0.190570
H24   H     H_    0.326427 0.395921 0.964247 0.188819
H25   H     H_    0.638871 0.980957 0.040805 0.206417
H26   H     H_    0.041890 0.667481 0.048278 0.214697
H27   H     H_    0.344745 0.372199 0.042934 0.220861
H28   H     H_    0.961745 0.610531 0.952958 0.200689
H29   H     H_    0.673596 0.094736 0.950157 0.186057
H30   H     H_    0.411305 0.332054 0.952057 0.204870
C49   C     C_3   0.602637 0.116194 0.477694 0.115602
C50   C     C_3   0.883886 0.487161 0.477710 0.115345
C51   C     C_3   0.512973 0.396612 0.477619 0.115537
C52   C     C_3   0.116058 0.602699 0.522164 0.115548
C53   C     C_3   0.487349 0.883875 0.522447 0.115348
C54   C     C_3   0.396870 0.513362 0.522367 0.115659
C55   C     C_3   0.505734 0.901686 0.468061 -0.206580
C56   C     C_3   0.098030 0.602724 0.467780 -0.206649
C57   C     C_3   0.396572 0.495379 0.467964 -0.206362
C58   C     C_3   0.901925 0.505661 0.532070 -0.206513
C59   C     C_3   0.602740 0.098383 0.532097 -0.206548
C60   C     C_3   0.494968 0.396280 0.532028 -0.206435
H31   H     H_    0.677559 0.092562 0.543699 0.215996
H32   H     H_    0.907866 0.586548 0.543448 0.216233
H33   H     H_    0.414573 0.321658 0.543587 0.215892
H34   H     H_    0.092154 0.677629 0.456166 0.216049
H35   H     H_    0.586465 0.907552 0.456651 0.216083
H36   H     H_    0.321954 0.414967 0.456449 0.215908
H37   H     H_    0.437441 0.826639 0.449476 0.064909
H38   H     H_    0.172861 0.608520 0.449179 0.065140
H39   H     H_    0.390232 0.564346 0.449423 0.064682
H40   H     H_    0.827068 0.437307 0.550768 0.065442
H41   H     H_    0.608543 0.173400 0.550605 0.065121
H42   H     H_    0.563696 0.389699 0.550550 0.064817
H43   H     H_    0.400402 0.810843 0.527765 0.150018
H44   H     H_    0.188955 0.588108 0.527509 0.150486
H45   H     H_    0.410920 0.600651 0.527764 0.149224
H46   H     H_    0.810948 0.400074 0.472514 0.150047
H47   H     H_    0.588036 0.189159 0.472253 0.150443
H48   H     H_    0.600042 0.410416 0.472195 0.149235
C61   C     C_1   0.473314 0.944082 0.638592 0.073437
C62   C     C_1   0.056155 0.529997 0.638579 0.073115
C63   C     C_1   0.470238 0.526184 0.638580 0.074113
C64   C     C_1   0.943814 0.473160 0.361434 0.074125
C65   C     C_1   0.530005 0.055963 0.361418 0.073560
C66   C     C_1   0.526230 0.470361 0.361399 0.074017
C67   C     C_3   0.502337 0.009909 0.453526 0.011815
C68   C     C_3   0.989859 0.491781 0.453535 0.011677
C69   C     C_3   0.507577 0.497833 0.453499 0.011992
C70   C     C_3   0.010050 0.502279 0.546485 0.011864
C71   C     C_3   0.491978 0.990110 0.546485 0.011701
C72   C     C_3   0.497719 0.507580 0.546471 0.011983
C73   C     C_3   0.391663 0.002528 0.527262 -0.265092
C74   C     C_3   0.997483 0.389207 0.527567 -0.265247
C75   C     C_3   0.610225 0.607555 0.527355 -0.265219
C76   C     C_3   0.002298 0.391319 0.472766 -0.265198
C77   C     C_3   0.389422 0.997333 0.472475 -0.265088
C78   C     C_3   0.607569 0.610328 0.472575 -0.265338
C79   C     C_1   0.483409 0.973623 0.597975 0.024781
C80   C     C_1   0.026686 0.510630 0.597972 0.025014
C81   C     C_1   0.489628 0.515967 0.597968 0.025167
C82   C     C_1   0.973258 0.483192 0.402049 0.025335
C83   C     C_1   0.510638 0.026429 0.402034 0.024815
C84   C     C_1   0.516009 0.489786 0.402003 0.024936
H49   H     H_    0.373964 0.064211 0.458255 0.229813
H50   H     H_    0.935234 0.309330 0.458812 0.229504
H51   H     H_    0.689522 0.625254 0.458412 0.229759
H52   H     H_    0.064452 0.373885 0.541676 0.229667
H53   H     H_    0.309804 0.935537 0.541346 0.229604
H54   H     H_    0.625343 0.689684 0.541500 0.229797
H55   H     H_    0.317114 0.914938 0.460681 0.151612
H56   H     H_    0.084406 0.400310 0.460908 0.152259
H57   H     H_    0.597842 0.683281 0.460830 0.151228
H58   H     H_    0.915330 0.316767 0.539516 0.151691
H59   H     H_    0.400747 0.084871 0.538977 0.152136
H60   H     H_    0.682903 0.597547 0.539089 0.151430
S1    S     S_3+6 0.346542 0.087891 0.938850 0.017237
O27   O     O_2   0.265956 0.971183 0.920654 -0.242105
O28   O     O_2   0.285839 0.119779 0.974800 -0.232568
O29   O     O_3   0.384982 0.178636 0.893073 -0.550543
H61   H     H_    0.314755 0.178195 0.883410 0.382434
S2    S     S_3+6 0.950656 0.282418 0.938100 0.024110
O30   O     O_2   0.069958 0.308662 0.928785 -0.242964
O31   O     O_2   0.892686 0.178161 0.968549 -0.252639
O32   O     O_3   0.881895 0.255469 0.886194 -0.526811
H62   H     H_    0.879147 0.185613 0.874269 0.381360
S3    S     S_3+6 0.745023 0.641130 0.937340 0.012784
O33   O     O_2   0.714564 0.720460 0.912766 -0.248528
O34   O     O_2   0.835436 0.707291 0.973280 -0.236624
O35   O     O_3   0.797227 0.588644 0.896867 -0.545240
H63   H     H_    0.863463 0.655871 0.883059 0.380969
S4    S     S_3+6 0.136258 0.394867 0.069141 -0.010886
O36   O     O_2   0.043430 0.325072 0.103698 -0.263298
O37   O     O_2   0.137867 0.316899 0.031888 -0.226417
O38   O     O_3   0.259607 0.455846 0.098694 -0.562606
H64   H     H_    0.258468 0.394144 0.117794 0.374891
S5    S     S_3+6 0.276922 0.890733 0.060746 -0.002624
O39   O     O_2   0.294672 0.987461 0.092142 -0.261820
O40   O     O_2   0.192034 0.875829 0.023475 -0.224793
O41   O     O_3   0.224907 0.773479 0.094348 -0.569815
H65   H     H_    0.167593 0.776487 0.114956 0.374906
S6    S     S_3+6 0.619619 0.734842 0.060031 0.001158
O42   O     O_2   0.695292 0.715120 0.092711 -0.257876
O43   O     O_2   0.692085 0.819010 0.022957 -0.233955
O44   O     O_3   0.554338 0.789937 0.091906 -0.556342
H66   H     H_    0.615487 0.853398 0.109820 0.373056
N1    N     N_R   0.712137 0.146604 0.455993 0.036985
O45   O     O_R   0.765811 0.092700 0.466771 -0.306975
O46   O     O_R   0.747600 0.216479 0.420376 -0.370681
N2    N     N_R   0.853519 0.566399 0.455762 0.036778
O47   O     O_R   0.907144 0.673714 0.466377 -0.306348
O48   O     O_R   0.784217 0.532328 0.420024 -0.370689
N3    N     N_R   0.433958 0.287396 0.455822 0.036402
O49   O     O_R   0.326924 0.234194 0.466715 -0.307017
O50   O     O_R   0.467808 0.252031 0.419946 -0.370926
N4    N     N_R   0.146511 0.712373 0.543817 0.036970
O51   O     O_R   0.092891 0.766301 0.532984 -0.306598
O52   O     O_R   0.215996 0.747632 0.579491 -0.371377
N5    N     N_R   0.566541 0.853606 0.544411 0.036627
O53   O     O_R   0.673697 0.907365 0.533730 -0.306483
O54   O     O_R   0.532572 0.784257 0.580210 -0.370600
N6    N     N_R   0.287687 0.434433 0.544196 0.036554
O55   O     O_R   0.234449 0.327208 0.533425 -0.307268
O56   O     O_R   0.252266 0.468569 0.579957 -0.371273

loop_
_geom_bond_atom_site_label_1
_geom_bond_atom_site_label_2
_geom_bond_distance
_ccdc_geom_bond_type
C75   H60   1.113517 S    
C57   C69   1.549005 S    
O7    C1    1.272645 A    
O20   C8    1.273079 A    
O35   H63   0.990685 S    
C37   C41   1.543197 S    
C49   C59   1.558249 S    
O18   Cr6   2.043905 S    
O6    Cr6   2.037878 S    
C41   H25   1.109786 S    
C51   N3    1.468335 S    
C12   C61   1.428021 S    
C53   N5    1.468236 S    
C42   H27   1.105606 S    
C17   C19   1.557253 S    
C22   C34   1.568365 S    
S6    O43   1.503066 D    
C49   H47   1.113994 S    
O10   C4    1.272297 A    
N3    O49   1.301166 A    
O21   C9    1.272856 A    
C16   C34   1.557224 S    
C33   C42   1.548484 S    
C13   H1    1.103593 S    
C6    C25   1.420087 S    
Cr6   O26   1.982001 S    
O10   Cr4   1.922460 S    
N4    O52   1.301400 A    
C19   S5    1.822635 S    
C38   H28   1.110055 S    
C3    C28   1.414568 S    
O22   Cr4   1.918399 S    
O9    Cr3   1.926159 S    
C71   C79   1.469733 S    
C23   H11   1.113770 S    
C13   H17   1.113637 S    
C4    C27   1.421819 S    
C20   S4    1.820375 S    
S5    O40   1.501859 D    
O2    C1    1.272286 A    
S2    O30   1.502213 D    
C60   H42   1.113577 S    
S3    O35   1.681705 S    
O12   Cr6   1.928062 S    
O13   Cr1   2.041463 S    
C26   C44   1.197034 T    
C14   C32   1.552955 S    
C7    C66   1.428369 S    
C35   C43   1.462709 S    
C61   C79   1.202264 T    
C51   C60   1.558582 S    
O4    Cr4   2.035745 S    
O21   Cr3   1.922328 S    
O41   H65   0.990614 S    
S1    O28   1.503351 D    
C33   C48   1.465679 S    
C5    C26   1.419396 S    
C57   H39   1.113578 S    
C22   S2    1.814294 S    
C16   H14   1.113718 S    
O1    C3    1.265510 A    
C15   C33   1.556010 S    
C55   H37   1.113581 S    
C69   C78   1.554254 S    
C19   C31   1.556061 S    
C14   H16   1.113806 S    
C72   C81   1.470080 S    
C37   H29   1.112716 S    
O1    Cr1   2.036300 S    
O4    C6    1.268931 A    
C57   H36   1.109111 S    
O17   C10   1.273462 A    
N3    O50   1.301408 A    
C1    C30   1.421995 S    
O22   C10   1.275752 A    
C17   H13   1.114171 S    
C14   H2    1.107057 S    
C75   C78   1.551382 S    
C73   C77   1.551521 S    
C23   S1    1.819977 S    
C74   H52   1.105019 S    
N6    O55   1.301162 A    
O8    Cr2   1.923228 S    
C73   H53   1.104953 S    
C40   H20   1.113701 S    
C78   H51   1.104697 S    
C16   H4    1.104281 S    
C35   C37   1.548440 S    
C9    C64   1.428404 S    
O15   C8    1.270907 A    
C10   C63   1.428391 S    
O18   C11   1.269993 A    
C17   H5    1.103310 S    
S6    O42   1.503490 D    
C74   H58   1.113500 S    
N1    O45   1.301167 A    
C18   C21   1.559536 S    
S4    O38   1.680336 S    
C50   H46   1.114096 S    
C32   C46   1.458027 S    
N4    O51   1.301174 A    
C40   H26   1.107133 S    
C20   H8    1.108755 S    
C77   H49   1.104874 S    
N5    O53   1.301180 A    
C50   C58   1.558487 S    
O20   Cr2   1.916357 S    
Cr3   O25   1.982126 S    
C8    C65   1.428133 S    
C65   C83   1.202326 T    
C53   C55   1.558428 S    
O44   H66   0.990581 S    
C30   C48   1.199348 T    
C66   C84   1.202466 T    
C39   H30   1.107274 S    
C27   C45   1.198850 T    
C59   C71   1.549000 S    
S2    O32   1.681556 S    
C60   C72   1.549017 S    
C23   C35   1.562653 S    
S5    O41   1.679632 S    
N6    O56   1.301401 A    
C18   H15   1.113575 S    
C56   H38   1.113588 S    
C49   C67   1.568721 S    
N5    O54   1.301421 A    
C72   C75   1.554262 S    
O14   Cr2   2.038663 S    
O2    Cr2   2.032830 S    
C78   H57   1.113516 S    
C24   C36   1.564949 S    
O15   Cr3   2.041544 S    
C24   S3    1.818241 S    
C16   C20   1.557811 S    
S1    O29   1.681910 S    
O16   Cr4   2.038647 S    
C14   C22   1.562040 S    
O7    Cr1   1.924934 S    
C51   H48   1.114211 S    
C19   H7    1.110120 S    
C55   C67   1.549041 S    
C69   C84   1.470059 S    
C34   C44   1.460479 S    
C2    C29   1.418159 S    
C39   C42   1.538748 S    
C20   C32   1.559061 S    
C55   H35   1.109072 S    
C52   C56   1.558355 S    
O3    C2    1.265688 A    
C70   C80   1.470210 S    
C42   H21   1.112400 S    
C67   C83   1.469819 S    
C37   H23   1.113828 S    
C52   N4    1.468240 S    
C38   C40   1.539620 S    
N2    O47   1.301181 A    
C15   H3    1.104651 S    
N2    O48   1.301419 A    
C39   H24   1.113688 S    
O13   C9    1.270571 A    
C18   H6    1.104316 S    
Cr5   O26   1.988272 S    
Cr1   O25   1.987894 S    
C50   N2    1.468212 S    
C73   H59   1.113503 S    
C76   H50   1.105071 S    
S6    O44   1.680249 S    
C53   C71   1.568693 S    
C67   C77   1.554353 S    
C49   N1    1.468264 S    
C54   C72   1.568780 S    
C59   H31   1.109122 S    
C21   H9    1.110184 S    
O29   H61   0.991006 S    
C25   C43   1.197802 T    
C54   H45   1.114190 S    
O6    C5    1.294664 A    
O5    Cr5   2.034335 S    
O11   C5    1.296209 A    
O8    C2    1.270848 A    
C51   C69   1.568753 S    
O23   Cr5   1.918284 S    
C58   H40   1.113579 S    
C74   C76   1.551691 S    
O19   C7    1.275875 A    
C29   C47   1.197308 T    
C13   C31   1.556999 S    
C34   C38   1.544948 S    
C15   H18   1.113673 S    
C62   C80   1.202547 T    
C36   C39   1.544717 S    
O17   Cr5   2.039115 S    
C38   H22   1.111527 S    
C22   H10   1.113944 S    
C56   H34   1.109125 S    
O16   C12   1.271673 A    
O23   C11   1.272113 A    
C58   C70   1.549107 S    
C21   S6    1.821410 S    
C32   C40   1.550661 S    
C54   C57   1.558536 S    
O24   C12   1.273920 A    
C21   C33   1.561184 S    
C68   C82   1.470135 S    
S4    O36   1.503398 D    
C60   H33   1.109080 S    
C56   C68   1.549077 S    
O9    C3    1.268614 A    
Cr2   O25   1.991125 S    
O5    C4    1.272509 A    
C24   H12   1.113796 S    
C77   H55   1.113509 S    
C75   H54   1.104670 S    
O32   H62   0.990524 S    
C53   H43   1.114147 S    
C31   C47   1.462235 S    
C28   C46   1.195078 T    
C76   H56   1.113494 S    
O11   Cr5   1.923797 S    
C71   C73   1.554233 S    
C54   N6    1.468331 S    
S5    O39   1.503724 D    
S2    O31   1.503291 D    
S3    O34   1.503192 D    
C36   C45   1.464824 S    
C18   C36   1.556227 S    
C11   C62   1.428509 S    
O3    Cr3   2.038826 S    
O38   H64   0.990667 S    
C31   C41   1.551008 S    
C50   C68   1.568625 S    
C52   H44   1.113963 S    
Cr4   O26   1.990871 S    
C13   C23   1.564044 S    
C64   C82   1.202497 T    
S1    O27   1.502383 D    
C70   C74   1.554348 S    
O12   C6    1.271623 A    
N1    O46   1.301393 A    
C52   C70   1.568624 S    
O24   Cr6   1.921050 S    
S3    O33   1.502988 D    
C68   C76   1.554238 S    
C17   C35   1.559372 S    
C59   H41   1.113592 S    
C41   H19   1.113508 S    
C63   C81   1.202480 T    
C58   H32   1.109104 S    
O19   Cr1   1.919043 S    
C15   C24   1.565038 S    
O14   C7    1.273662 A    
S4    O37   1.502743 D    
