data_mof_unit_29912.cif
_audit_creation_date              2012-12-10T17:00:05-0500
_audit_creation_method            fapswitch 2.2
_symmetry_space_group_name_H-M    P1
_symmetry_Int_Tables_number       1
_space_group_crystal_system       triclinic
_cell_length_a                    14.965973
_cell_length_b                    15.149238
_cell_length_c                    10.056302
_cell_angle_alpha                 90.412883
_cell_angle_beta                  87.59139
_cell_angle_gamma                 90.097951
_cell_volume                      2277.92011089

loop_
_atom_site_label
_atom_site_type_symbol
_atom_type_description
_atom_site_fract_x
_atom_site_fract_y
_atom_site_fract_z
_atom_type_partial_charge
C1    C     C_R   0.374914 0.887633 0.502389 0.884725
C2    C     C_2   0.677288 0.256826 0.403029 0.041232
C3    C     C_2   0.179693 0.244349 0.400551 -0.009259
C4    C     C_2   0.177289 0.756825 0.403028 0.041193
C5    C     C_2   0.682287 0.811442 0.489175 -0.341743
C6    C     C_2   0.681118 0.190090 0.490873 -0.258199
C7    C     C_2   0.182288 0.311442 0.489182 -0.341840
C8    C     C_2   0.181118 0.690091 0.490874 -0.258194
C9    C     C_2   0.254949 0.184452 0.397075 -0.335961
C10   C     C_2   0.252115 0.817551 0.398025 -0.261579
C11   C     C_2   0.754925 0.684429 0.397090 -0.335986
C12   C     C_R   0.374829 0.112307 0.502804 0.985114
C13   C     C_2   0.752115 0.317552 0.398026 -0.261595
C14   C     C_2   0.287464 0.153448 0.510167 -0.181260
C15   C     C_2   0.286934 0.848198 0.510353 -0.191706
C16   C     C_2   0.787473 0.653462 0.510182 -0.181248
C17   C     C_2   0.786934 0.348198 0.510354 -0.191645
C18   C     C_2   0.572499 0.007350 0.921328 -0.013339
C19   C     C_2   0.072495 0.507384 0.921326 -0.013326
C20   C     C_2   0.572267 0.991067 0.070364 -0.028675
C21   C     C_2   0.072275 0.491105 0.070364 -0.028657
C22   C     C_2   0.607099 0.726248 0.307600 0.489000
C23   C     C_R   0.874914 0.387633 0.502389 0.884662
C24   C     C_2   0.603628 0.273646 0.311891 0.493211
C25   C     C_2   0.107142 0.226279 0.307534 0.488957
C26   C     C_2   0.103630 0.773644 0.311886 0.493254
C27   C     C_2   0.231755 0.151581 0.637819 0.418757
C28   C     C_2   0.235864 0.851418 0.641713 0.435135
C29   C     C_2   0.731800 0.651648 0.637869 0.418749
C30   C     C_2   0.735865 0.351416 0.641714 0.434965
C31   C     C_2   0.658767 0.030625 0.852915 0.565992
C32   C     C_2   0.158749 0.530695 0.852905 0.566248
C33   C     C_2   0.657594 0.967248 0.130007 0.549059
C34   C     C_R   0.874833 0.612314 0.502806 0.985104
C35   C     C_2   0.157620 0.467333 0.130005 0.548736
C36   C     C_R   0.617036 0.120691 0.498045 0.951368
C37   C     C_R   0.617213 0.879600 0.497444 0.965933
C38   C     C_R   0.117036 0.620691 0.498045 0.951375
C39   C     C_R   0.117213 0.379600 0.497445 0.965957
C40   C     C_2   0.679672 0.744332 0.400574 -0.009213
H1    H     H_    0.737039 0.818218 0.556317 0.155767
H2    H     H_    0.944553 0.522807 0.105382 0.174676
H3    H     H_    0.621788 0.687660 0.218005 0.074106
H4    H     H_    0.617174 0.311672 0.222207 0.055370
H5    H     H_    0.121856 0.187724 0.217919 0.074098
H6    H     H_    0.117178 0.811667 0.222200 0.055397
H7    H     H_    0.160191 0.162947 0.637130 0.102691
H8    H     H_    0.271241 0.855670 0.733544 0.092532
H9    H     H_    0.660222 0.662926 0.637196 0.102661
H10   H     H_    0.771243 0.355667 0.733544 0.092508
H11   H     H_    0.678242 0.001874 0.757568 0.092460
H12   H     H_    0.736302 0.184269 0.557226 0.132129
H13   H     H_    0.178257 0.501893 0.757599 0.092338
H14   H     H_    0.444048 0.977928 0.901405 0.170844
H15   H     H_    0.944058 0.477904 0.901405 0.170807
H16   H     H_    0.675444 0.995148 0.224401 0.094518
H17   H     H_    0.175417 0.495172 0.224458 0.094649
H18   H     H_    0.237022 0.318200 0.556360 0.155737
H19   H     H_    0.236301 0.684270 0.557229 0.132140
H20   H     H_    0.289639 0.174666 0.300977 0.212015
H21   H     H_    0.285497 0.827407 0.301173 0.178492
H22   H     H_    0.789583 0.674602 0.300978 0.212010
H23   H     H_    0.785496 0.327408 0.301173 0.178476
H24   H     H_    0.444567 0.022840 0.105381 0.174675
N1    N     N_2   0.501330 0.000000 0.852150 -0.233401
N2    N     N_2   0.001330 0.500000 0.852150 -0.233404
N3    N     N_2   0.501360 0.000000 0.147810 -0.239773
N4    N     N_2   0.001360 0.500000 0.147810 -0.239755
O1    O     O_R   0.409520 0.909540 0.613040 -0.640544
O2    O     O_R   0.590440 0.909540 0.613100 -0.644891
O3    O     O_R   0.090440 0.590460 0.613100 -0.628772
O4    O     O_R   0.090440 0.409540 0.613100 -0.644892
O5    O     O_R   0.590480 0.090460 0.386960 -0.618861
O6    O     O_R   0.590480 0.909540 0.386960 -0.602185
O7    O     O_R   0.090480 0.590460 0.386960 -0.618891
O8    O     O_R   0.090480 0.409540 0.386960 -0.602200
O9    O     O_2   0.530044 0.748997 0.333146 -0.561389
O10   O     O_2   0.526910 0.250545 0.339209 -0.539799
O11   O     O_2   0.030078 0.249003 0.333064 -0.561362
O12   O     O_R   0.409520 0.090460 0.613040 -0.557869
O13   O     O_2   0.026911 0.750545 0.339206 -0.539767
O14   O     O_2   0.264625 0.136970 0.744526 -0.533948
O15   O     O_2   0.154196 0.853139 0.648329 -0.524709
O16   O     O_2   0.764721 0.637202 0.744584 -0.533852
O17   O     O_2   0.654197 0.353138 0.648332 -0.524759
O18   O     O_2   0.710013 0.082136 0.904394 -0.586193
O19   O     O_2   0.209943 0.582291 0.904331 -0.586119
O20   O     O_2   0.709580 0.916351 0.072639 -0.573976
O21   O     O_2   0.209686 0.416548 0.072567 -0.574039
O22   O     O_R   0.909520 0.409540 0.613040 -0.640576
O23   O     O_R   0.909520 0.590460 0.613040 -0.557879
O24   O     O_R   0.409560 0.909540 0.386900 -0.577609
O25   O     O_R   0.409560 0.090460 0.386900 -0.604788
O26   O     O_R   0.909560 0.409540 0.386900 -0.577615
O27   O     O_R   0.909560 0.590460 0.386900 -0.604766
O28   O     O_R   0.590440 0.090460 0.613100 -0.628802
Zn1   Zn    Zn3+2 0.499970 0.000000 0.650990 0.986317
Zn2   Zn    Zn3+2 0.999970 0.500000 0.650990 0.986298
Zn3   Zn    Zn3+2 0.500030 0.000000 0.349010 0.989193
Zn4   Zn    Zn3+2 0.000030 0.500000 0.349010 0.989177

loop_
_geom_bond_atom_site_label_1
_geom_bond_atom_site_label_2
_ccdc_geom_bond_type
C37   O6    A    
C5    C37   S    
O12   Zn1   S    
C20   N3    D    
C4    C8    D    
C11   H22   S    
H14   N1    S    
O4    Zn2   S    
C18   N1    D    
C17   C23   S    
C19   C21   S    
C33   O20   D    
C3    C7    D    
C10   C15   D    
C8    H19   S    
C19   N2    D    
C2    C13   S    
C34   O23   A    
C16   C34   S    
C39   O4    A    
C1    C15   S    
C14   C27   S    
O25   Zn3   S    
C7    H18   S    
O2    Zn1   S    
N3    Zn3   S    
C33   H16   S    
C30   H10   S    
C31   O18   D    
C37   O2    A    
C28   O15   D    
H2    N4    S    
C17   C30   S    
C2    C6    D    
C8    C38   S    
C19   C32   S    
C38   O7    A    
O3    Zn2   S    
H24   N3    S    
C3    C25   S    
C34   O27   A    
C29   O16   D    
O27   Zn4   S    
C29   H9    S    
C16   C29   S    
C32   O19   D    
C1    O1    A    
C9    C14   D    
N4    Zn4   S    
C3    C9    S    
C11   C16   D    
C36   O28   A    
C22   H3    S    
C13   H23   S    
O26   Zn4   S    
C22   C40   S    
O28   Zn1   S    
C23   O22   A    
C39   O8    A    
C30   O17   D    
C20   C33   S    
C35   O21   D    
C24   O10   D    
C12   C14   S    
C26   O13   D    
C21   N4    D    
C2    C24   S    
C24   H4    S    
C12   O25   A    
C10   H21   S    
O8    Zn4   S    
C4    C10   S    
C25   H5    S    
C32   H13   S    
H15   N2    S    
C27   H7    S    
O5    Zn3   S    
C5    H1    S    
C38   O3    A    
C28   H8    S    
C25   O11   D    
C27   O14   D    
C22   O9    D    
C31   H11   S    
C4    C26   S    
O6    Zn3   S    
C21   C35   S    
C1    O24   A    
C23   O26   A    
C13   C17   D    
C35   H17   S    
C9    H20   S    
N2    Zn2   S    
N1    Zn1   S    
C15   C28   S    
C12   O12   A    
O7    Zn4   S    
C6    C36   S    
C18   C20   S    
O23   Zn2   S    
C11   C40   S    
C36   O5    A    
C26   H6    S    
C5    C40   D    
C7    C39   S    
C18   C31   S    
C6    H12   S    
O22   Zn2   S    
O24   Zn3   S    
O1    Zn1   S    
