data_mof_unit_43318.cif
_audit_creation_date              2013-03-05T15:54:21-0500
_audit_creation_method            fapswitch 2.2
_symmetry_space_group_name_H-M    P1
_symmetry_Int_Tables_number       1
_space_group_crystal_system       triclinic
_cell_length_a                    15.095918
_cell_length_b                    14.872282
_cell_length_c                    14.943699
_cell_angle_alpha                 109.408831
_cell_angle_beta                  109.1536
_cell_angle_gamma                 109.655654
_cell_volume                      2588.87415772

loop_
_atom_site_label
_atom_site_type_symbol
_atom_site_description
_atom_site_fract_x
_atom_site_fract_y
_atom_site_fract_z
_atom_type_partial_charge
C1    C     C_R   0.002214 0.803625 0.095081 -0.126741
H1    H     H_    0.982134 0.831641 0.158012 0.153726
N1    N     N_R   0.995640 0.706130 0.053910 -0.035994
C2    C     C_R   0.778611 0.230679 0.685247 -0.136146
N2    N     N_R   0.848310 0.293860 0.791110 -0.041372
C3    C     C_R   0.032194 0.594386 0.779308 -0.145123
H2    H     H_    0.060117 0.679864 0.803153 0.113061
N3    N     N_R   0.054010 0.556790 0.847890 -0.042894
C4    C     C_R   0.685504 0.408854 0.950128 -0.053913
H3    H     H_    0.623569 0.326338 0.917994 0.116240
N4    N     N_R   0.789940 0.443190 0.997130 -0.045469
C5    C     C_R   0.950556 0.410990 0.684584 -0.131479
H4    H     H_    0.913909 0.329233 0.618234 0.087191
N5    N     N_R   0.997630 0.443170 0.791110 -0.039755
C6    C     C_R   0.777327 0.593480 0.036718 -0.046092
H5    H     H_    0.799449 0.679082 0.075814 0.102598
N6    N     N_R   0.846320 0.556810 0.053910 -0.024523
C7    C     C_R   0.685584 0.229710 0.774634 -0.139963
H6    H     H_    0.620667 0.205285 0.792233 0.093273
N7    N     N_R   0.791080 0.293860 0.847890 -0.043630
C8    C     C_R   0.092811 0.804924 0.004054 -0.136130
H7    H     H_    0.153461 0.834327 0.981799 0.088347
N8    N     N_R   0.052880 0.706130 0.997130 -0.045354
C9    C     C_R   0.062802 0.868002 0.065755 0.056261
C10   C     C_R   0.676204 0.196137 0.672173 0.074352
C11   C     C_R   0.965515 0.504015 0.675690 0.083736
C12   C     C_R   0.675049 0.501225 0.968767 -0.055406
C13   C     C_R   0.981286 0.590745 0.289940 0.285339
N9    N     N_R   0.002370 0.556830 0.208890 -0.085499
C14   C     C_R   0.209646 0.409169 0.906027 -0.149382
H8    H     H_    0.180243 0.324291 0.850213 0.093840
N10   N     N_R   0.153680 0.443190 0.946090 -0.037085
C15   C     C_R   0.299379 0.801124 0.206368 -0.145403
H9    H     H_    0.345844 0.828456 0.169710 0.103647
N11   N     N_R   0.208920 0.706140 0.152110 -0.046089
C16   C     C_R   0.976723 0.254953 0.068621 -0.143941
H10   H     H_    0.950487 0.252912 0.126999 0.111162
N12   N     N_R   0.947120 0.293870 0.002870 -0.042432
C17   C     C_R   0.065722 0.250079 0.974538 -0.120962
H11   H     H_    0.118382 0.238723 0.943088 0.098665
N13   N     N_R   0.004360 0.293870 0.946090 -0.044075
C18   C     C_R   0.213941 0.802203 0.302936 -0.089807
H12   H     H_    0.190551 0.830943 0.362602 0.147035
N14   N     N_R   0.151690 0.706140 0.208890 -0.037067
C19   C     C_R   0.904264 0.408973 0.208912 -0.183974
H13   H     H_    0.847816 0.324367 0.179570 0.120927
N15   N     N_R   0.945990 0.443210 0.152110 -0.064059
C20   C     C_R   0.301367 0.592703 0.000262 -0.135083
H14   H     H_    0.358433 0.678507 0.034981 0.087382
N16   N     N_R   0.210060 0.556810 0.002870 -0.036980
Ni1   Ni    Ni4+2 0.999010 0.630300 0.130220 0.294501
Ni2   Ni    Ni4+2 0.000990 0.369700 0.869780 0.209262
Ni3   Ni    Ni4+2 0.130280 0.630280 0.000000 0.200968
Ni4   Ni    Ni4+2 0.869720 0.369720 0.000000 0.227329
C21   C     C_R   0.927495 0.500599 0.297267 -0.030721
C22   C     C_R   0.302430 0.501431 0.938310 0.024146
C23   C     C_R   0.305106 0.863755 0.301289 0.042918
C24   C     C_R   0.050206 0.225400 0.052325 0.071571
C25   C     C_3   0.474682 0.396674 0.849719 -0.357836
H15   H     H_    0.470522 0.318897 0.843354 0.180059
H16   H     H_    0.477796 0.398096 0.776761 0.156842
C26   C     C_3   0.371093 0.393231 0.845605 -0.394431
H17   H     H_    0.317545 0.380620 0.765361 0.151912
H18   H     H_    0.327840 0.321430 0.853057 0.179836
H19   H     H_    0.415097 0.445652 0.060561 0.203202
C27   C     C_3   0.568391 0.510337 0.060299 0.263129
C28   C     C_3   0.574913 0.602047 0.945075 -0.467445
C29   C     C_3   0.575078 0.501429 0.955694 0.223346
H20   H     H_    0.643156 0.680769 0.019042 0.159184
H21   H     H_    0.584298 0.600961 0.873949 0.182920
C30   C     C_3   0.399582 0.501812 0.940287 0.341306
C31   C     C_3   0.465509 0.512616 0.051279 -0.504141
C32   C     C_3   0.468507 0.599642 0.931462 -0.398691
H22   H     H_    0.422424 0.590977 0.850846 0.167368
H23   H     H_    0.488983 0.679708 0.995708 0.154222
H24   H     H_    0.638710 0.590529 0.131567 0.093229
H25   H     H_    0.488423 0.591622 0.119716 0.148797
C33   C     C_R   0.578691 0.102209 0.470600 0.156457
C34   C     C_R   0.577913 0.141655 0.569135 0.038453
C35   C     C_R   0.478517 0.121860 0.565398 -0.199721
H26   H     H_    0.474431 0.160023 0.638340 0.126875
C36   C     C_R   0.382459 0.039080 0.469035 -0.200572
H27   H     H_    0.307361 0.014671 0.470976 0.136732
C37   C     C_R   0.387765 0.977639 0.378394 0.038474
C38   C     C_R   0.484135 0.020876 0.375617 0.167140
C39   C     C_3   0.540319 0.965901 0.333873 -0.512408
C40   C     C_3   0.643750 0.055143 0.437974 -0.518493
H28   H     H_    0.515929 0.883551 0.327233 0.205433
H29   H     H_    0.539767 0.969406 0.260528 0.190893
H30   H     H_    0.677075 0.023028 0.490020 0.204574
H31   H     H_    0.702673 0.110048 0.424492 0.188367
C41   C     C_R   0.959961 0.605115 0.481866 0.253599
C42   C     C_R   0.900800 0.505606 0.383129 0.103874
C43   C     C_R   0.832777 0.410102 0.378039 -0.141603
H32   H     H_    0.781230 0.332567 0.302060 0.141764
C44   C     C_R   0.843615 0.411283 0.475141 -0.231609
H33   H     H_    0.799428 0.334569 0.471460 0.134375
C45   C     C_R   0.922689 0.507854 0.575945 0.028438
C46   C     C_R   0.969951 0.606569 0.576835 0.136055
C47   C     C_3   0.085408 0.698093 0.642286 -0.546273
C48   C     C_3   0.074391 0.696458 0.537760 -0.501572
H34   H     H_    0.096231 0.775173 0.702067 0.203663
H35   H     H_    0.143911 0.672585 0.675965 0.204376
H36   H     H_    0.079218 0.772793 0.537999 0.228667
C49   C     C_R   0.054170 0.034715 0.159599 0.164473
C50   C     C_R   0.099589 0.985091 0.106205 0.030464
C51   C     C_R   0.167836 0.046357 0.077836 -0.188427
H37   H     H_    0.211982 0.016133 0.044275 0.132817
C52   C     C_R   0.165679 0.139167 0.076032 -0.183640
H38   H     H_    0.208210 0.176844 0.041135 0.142284
C53   C     C_R   0.094439 0.169381 0.101462 0.023472
C54   C     C_R   0.051051 0.125388 0.156799 0.164822
C55   C     C_3   0.940806 0.085863 0.146413 -0.522009
C56   C     C_3   0.944874 0.987460 0.150319 -0.518283
H39   H     H_    0.941778 0.140789 0.218989 0.192915
H40   H     H_    0.876205 0.062243 0.066058 0.203163
H41   H     H_    0.949030 0.986218 0.225543 0.206078
H42   H     H_    0.882683 0.909149 0.072531 0.196871
H43   H     H_    0.800338 0.209272 0.623384 0.099279
N17   N     N_R   0.573838 0.422216 0.081852 0.237325
O1    O     O_R   0.494905 0.320737 0.018367 -0.444167
O2    O     O_R   0.656004 0.446492 0.169082 -0.378279
H44   H     H_    0.126408 0.669872 0.511336 0.178175
N18   N     N_R   0.960901 0.681682 0.315511 0.219953
O3    O     O_R   0.003327 0.758464 0.294764 -0.485598
O4    O     O_R   0.880918 0.674810 0.333877 -0.395392

loop_
_geom_bond_atom_site_label_1
_geom_bond_atom_site_label_2
_geom_bond_distance
_ccdc_geom_bond_type
C33   C40   1.497380 S    
C27   C29   1.564030 S    
C42   C43   1.404788 A    
C40   H31   1.112149 S    
N11   Ni3   1.863571 S    
C32   H23   1.110434 S    
C32   H22   1.112845 S    
N1    N8    1.395610 A    
C53   C54   1.402713 A    
C21   C42   1.452664 S    
N6    Ni1   1.886796 S    
C2    C10   1.375784 A    
C17   N13   1.339547 A    
N2    N7    1.395488 A    
C19   H13   1.080961 S    
C31   H25   1.114453 S    
N9    N15   1.380364 A    
C16   H10   1.074739 S    
C7    H6    1.074531 S    
C16   C24   1.384610 A    
C52   C53   1.408083 A    
C14   H8    1.080067 S    
C39   H28   1.112329 S    
C50   C51   1.408257 A    
C6    H5    1.079461 S    
C6    N6    1.322059 A    
C1    H1    1.077732 S    
N14   Ni1   1.886362 S    
N10   Ni2   1.886793 S    
C26   H18   1.112075 S    
C12   C29   1.457998 S    
N5    Ni2   1.852152 S    
C44   C45   1.409137 A    
C15   C23   1.369081 A    
C51   H37   1.081060 S    
N2    Ni2   1.886362 S    
C28   C32   1.537844 S    
C4    H3    1.073596 S    
N13   Ni2   1.852054 S    
C55   H40   1.112249 S    
C20   N16   1.319262 A    
C25   H15   1.106833 S    
C27   N17   1.470959 S    
C8    H7    1.080387 S    
C51   C52   1.400501 A    
C7    C10   1.384143 A    
C18   N14   1.339797 A    
C18   C23   1.386457 A    
C54   C55   1.500361 S    
C13   C21   1.375627 A    
N17   O2    1.301165 A    
N8    Ni3   1.877645 S    
C19   N15   1.341225 A    
C27   C31   1.527243 S    
C25   H16   1.113394 S    
N16   Ni3   1.878500 S    
C24   C53   1.462276 S    
C49   C56   1.496797 S    
C37   C38   1.399878 A    
N12   N13   1.395611 A    
C35   C36   1.393762 A    
C17   H11   1.078927 S    
C30   C32   1.554358 S    
N1    Ni1   1.852055 S    
C39   C40   1.503089 S    
C2    N2    1.321877 A    
C3    N3    1.324660 A    
C38   C39   1.500566 S    
C17   C24   1.394702 A    
C14   C22   1.378794 A    
C47   H35   1.112570 S    
C28   C29   1.557076 S    
C5    C11   1.383629 A    
C1    N1    1.327036 A    
C26   H17   1.113109 S    
C25   C29   1.558501 S    
C6    C12   1.384779 A    
C46   C47   1.499251 S    
N12   Ni4   1.877643 S    
C22   C30   1.455228 S    
C27   H24   1.116131 S    
C44   H33   1.082534 S    
C47   H34   1.111976 S    
C15   H9    1.079648 S    
C23   C37   1.446057 S    
C2    H43   1.066388 S    
C48   H44   1.112404 S    
C43   C44   1.399281 A    
N11   N14   1.395486 A    
C4    N4    1.316441 A    
N10   N16   1.380362 A    
C56   H42   1.112474 S    
N4    Ni4   1.878500 S    
C41   C48   1.499166 S    
C11   C45   1.446379 S    
N15   Ni4   1.863333 S    
C33   C38   1.372297 A    
N7    Ni4   1.863572 S    
C20   H14   1.080211 S    
C49   C54   1.378911 A    
C5    N5    1.338171 A    
C45   C46   1.393096 A    
C48   H36   1.111600 S    
C36   C37   1.404967 A    
C8    N8    1.339812 A    
C8    C9    1.385830 A    
C9    C50   1.461427 S    
C18   H12   1.075736 S    
N17   O1    1.301705 A    
C4    C12   1.382070 A    
N18   O4    1.302566 A    
C55   C56   1.504615 S    
N9    Ni1   1.852152 S    
C20   C22   1.374458 A    
C13   N9    1.333270 A    
C25   C26   1.527329 S    
N3    N5    1.380362 A    
C10   C34   1.446319 S    
C35   H26   1.081929 S    
C39   H29   1.111919 S    
N4    N6    1.380362 A    
N3    Ni3   1.863334 S    
C13   N18   1.443427 S    
C3    H2    1.077313 S    
H19   C31   1.114191 S    
C49   C50   1.399812 A    
C28   H21   1.113106 S    
C16   N12   1.328145 A    
C30   C31   1.549019 S    
C52   H38   1.081691 S    
C14   N10   1.321505 A    
C33   C34   1.397993 A    
C3    C11   1.378846 A    
C41   C42   1.399916 A    
C15   N11   1.316127 A    
C26   C30   1.552280 S    
C7    N7    1.335875 A    
C43   H32   1.082037 S    
C56   H41   1.111854 S    
C34   C35   1.406462 A    
C5    H4    1.074183 S    
C19   C21   1.379172 A    
C1    C9    1.377694 A    
C36   H27   1.081456 S    
C40   H30   1.112607 S    
C47   C48   1.506552 S    
C28   H20   1.111348 S    
C41   C46   1.369033 A    
N18   O3    1.297656 A    
C55   H39   1.111960 S    
