data_mof_unit_52217.cif
_audit_creation_date              2012-12-10T16:57:41-0500
_audit_creation_method            fapswitch 2.2
_symmetry_space_group_name_H-M    P1
_symmetry_Int_Tables_number       1
_space_group_crystal_system       triclinic
_cell_length_a                    7.912891
_cell_length_b                    8.572318
_cell_length_c                    19.142205
_cell_angle_alpha                 93.510145
_cell_angle_beta                  85.697811
_cell_angle_gamma                 92.581665
_cell_volume                      1291.29508598

loop_
_atom_site_label
_atom_site_type_symbol
_atom_type_description
_atom_site_fract_x
_atom_site_fract_y
_atom_site_fract_z
_atom_type_partial_charge
Br1   Br    Br    0.853949 0.330265 0.839858 -0.508181
Br2   Br    Br    0.133751 0.556130 0.147921 -0.506489
C1    C     C_R   0.544310 0.793881 0.498898 0.966577
C2    C     C_R   0.633296 0.424403 0.175904 -0.153998
C3    C     C_R   0.503486 0.434787 0.851899 0.009379
C4    C     C_R   0.484748 0.454150 0.144499 0.009565
C5    C     C_R   0.650786 0.407532 0.807685 0.292041
C6    C     C_R   0.339337 0.501160 0.186153 0.293792
C7    C     C_R   0.649407 0.431015 0.736675 -0.228010
C8    C     C_R   0.345345 0.517018 0.258616 -0.230701
C9    C     C_R   0.502867 0.480686 0.709180 -0.084537
C10   C     C_R   0.494109 0.486446 0.289813 -0.085923
C11   C     C_R   0.489811 0.442922 0.068466 0.316440
C12   C     C_R   0.455696 0.206120 0.501078 0.963628
C13   C     C_R   0.503021 0.427000 0.927357 0.319843
C14   C     C_3   0.021700 0.376856 0.417769 -0.157964
C15   C     C_3   0.921429 0.224982 0.399222 -0.398051
C16   C     C_3   0.008781 0.134220 0.336483 -0.905423
C17   C     C_3   0.978219 0.623401 0.582183 -0.158625
C18   C     C_3   0.078672 0.775304 0.600546 -0.401159
C19   C     C_3   0.990595 0.867634 0.662636 -0.890322
C20   C     C_2   0.567649 0.957155 0.500461 -0.378341
C21   C     C_2   0.432388 0.042854 0.499478 -0.376804
C22   C     C_R   0.501166 0.497708 0.634098 0.871109
C23   C     C_R   0.498364 0.497924 0.365796 0.871487
C24   C     C_R   0.355788 0.504753 0.753178 -0.171100
C25   C     C_R   0.638129 0.440255 0.248030 -0.170854
C26   C     C_R   0.356161 0.481549 0.824135 -0.152062
H1    H     H_    0.240794 0.542036 0.732961 0.175429
H2    H     H_    0.136887 0.100974 0.348827 0.264716
H3    H     H_    0.932298 0.025815 0.323714 0.276310
H4    H     H_    0.912382 0.150486 0.444885 0.228019
H5    H     H_    0.792683 0.248816 0.385253 0.269042
H6    H     H_    0.025471 0.455511 0.373688 0.166887
H7    H     H_    0.147126 0.337730 0.424953 0.236965
H8    H     H_    0.863027 0.901051 0.649676 0.263438
H9    H     H_    0.977260 0.796647 0.709546 0.277182
H10   H     H_    0.067296 0.976040 0.675197 0.278592
H11   H     H_    0.206929 0.751262 0.615081 0.270612
H12   H     H_    0.754355 0.415131 0.270901 0.177034
H13   H     H_    0.088910 0.848879 0.554572 0.228079
H14   H     H_    0.852845 0.662497 0.574924 0.237400
H15   H     H_    0.973935 0.545006 0.626414 0.166035
H16   H     H_    0.242456 0.504217 0.857723 0.200281
H17   H     H_    0.745922 0.388109 0.144474 0.199302
H18   H     H_    0.762426 0.407318 0.702950 0.175659
H19   H     H_    0.234291 0.555520 0.290276 0.173736
H20   H     H_    0.695897 0.006403 0.503517 0.172527
H21   H     H_    0.304161 0.993620 0.496391 0.172288
H22   H     H_    0.020859 0.206262 0.289899 0.278229
N1    N     N_R   0.636536 0.488518 0.961422 -0.099444
N2    N     N_R   0.356629 0.379966 0.034471 -0.099011
N3    N     N_R   0.630508 0.495404 0.030897 -0.128224
N4    N     N_R   0.362641 0.373146 0.964869 -0.129613
N5    N     N_2   0.950330 0.457950 0.481240 -0.063852
N6    N     N_2   0.049670 0.542050 0.518760 -0.063502
O1    O     O_R   0.389250 0.738570 0.504600 -0.624385
O2    O     O_R   0.610750 0.261430 0.495400 -0.625625
O3    O     O_R   0.678400 0.711620 0.492580 -0.642069
O4    O     O_R   0.321600 0.288380 0.507420 -0.642777
O5    O     O_R   0.355380 0.513500 0.607880 -0.629463
O6    O     O_R   0.644620 0.486500 0.392120 -0.629600
O7    O     O_R   0.644530 0.486550 0.595850 -0.655066
O8    O     O_R   0.355470 0.513450 0.404150 -0.653449
Zn1   Zn    Zn3+2 0.306930 0.517990 0.508030 0.921853
Zn2   Zn    Zn3+2 0.693070 0.482010 0.491970 0.921147

loop_
_geom_bond_atom_site_label_1
_geom_bond_atom_site_label_2
_ccdc_geom_bond_type
C12   C21   S    
C17   N6    S    
C20   H20   S    
N5    N6    D    
C3    C5    A    
C22   O5    A    
C16   H2    S    
C13   N1    A    
C3    C26   A    
C12   O4    A    
C10   C23   S    
C24   C26   A    
C17   C18   S    
O5    Zn1   S    
C17   H14   S    
C25   H12   S    
C2    H17   S    
O8    Zn1   S    
N5    Zn2   S    
C18   H13   S    
O7    Zn2   S    
C7    H18   S    
O3    Zn2   S    
C19   H8    S    
C4    C11   S    
C7    C9    A    
C15   H5    S    
C26   H16   S    
C8    C10   A    
C2    C4    A    
C17   H15   S    
O4    Zn1   S    
C15   C16   S    
C22   O7    A    
C11   N3    A    
C23   O6    A    
C14   H7    S    
C12   O2    A    
C3    C13   S    
C21   H21   S    
C15   H4    S    
O6    Zn2   S    
C10   C25   A    
N6    Zn1   S    
C11   N2    A    
C13   N4    A    
C1    O1    A    
C9    C22   S    
C2    C25   A    
C19   H9    S    
C18   C19   S    
C16   H22   S    
C24   H1    S    
C6    C8    A    
O1    Zn1   S    
C8    H19   S    
C5    C7    A    
C18   H11   S    
C20   C21   D    
C1    C20   S    
C4    C6    A    
C16   H3    S    
C14   N5    S    
C9    C24   A    
C14   H6    S    
Br1   C5    S    
O2    Zn2   S    
Br2   C6    S    
C19   H10   S    
N2    N4    A    
C14   C15   S    
N1    N3    A    
C23   O8    A    
C1    O3    A    
