data_mof_unit_58598.cif
_audit_creation_date              2012-12-11T14:25:48-0500
_audit_creation_method            fapswitch 2.2
_symmetry_space_group_name_H-M    P1
_symmetry_Int_Tables_number       1
_space_group_crystal_system       triclinic
_cell_length_a                    6.930115
_cell_length_b                    14.802829
_cell_length_c                    16.150064
_cell_angle_alpha                 90.741206
_cell_angle_beta                  89.937513
_cell_angle_gamma                 90.03742
_cell_volume                      1656.61932521

loop_
_atom_site_label
_atom_site_type_symbol
_atom_type_description
_atom_site_fract_x
_atom_site_fract_y
_atom_site_fract_z
_atom_type_partial_charge
O1    O     O_R   0.494490 0.416160 0.413410 -0.549576
O2    O     O_R   0.823830 0.407240 0.585990 -0.542082
O3    O     O_R   0.994160 0.583840 0.586590 -0.531019
C1    C     C_R   0.654184 0.385779 0.613972 0.790296
O4    O     O_R   0.824200 0.405280 0.414020 -0.548430
O5    O     O_R   0.994530 0.581860 0.413390 -0.531742
C2    C     C_R   0.654948 0.383117 0.385650 0.725183
O6    O     O_R   0.494110 0.418140 0.586610 -0.526102
O7    O     O_3   0.660810 0.557940 0.500000 -0.367519
V1    V     V_3+5 0.935650 0.489250 0.500000 1.479640
O8    O     O_R   0.324250 0.592760 0.414010 -0.536910
C3    C     C_R   0.154560 0.616517 0.387405 0.770016
O9    O     O_R   0.323880 0.594720 0.585980 -0.533718
C4    C     C_R   0.154968 0.616649 0.615003 0.721819
V2    V     V_3+5 0.435660 0.510750 0.500000 1.493334
O10   O     O_3   0.160630 0.442060 0.500000 -0.380216
C5    C     C_3   0.102147 0.637123 0.773268 -0.054473
C6    C     C_3   0.069476 0.713324 0.841432 -0.387537
H1    H     H_    0.150376 0.700755 0.899381 0.161192
H2    H     H_    0.915989 0.715267 0.861937 0.158764
H3    H     H_    0.843059 0.727306 0.659067 0.186203
H4    H     H_    0.829013 0.834838 0.762289 0.147747
C7    C     C_3   0.987843 0.757614 0.668253 -0.308192
C8    C     C_3   0.337049 0.738622 0.695298 -0.354957
C9    C     C_3   0.144200 0.684594 0.686865 -0.011509
H5    H     H_    0.364082 0.777725 0.637999 0.142423
H6    H     H_    0.462409 0.692786 0.702088 0.202125
C10   C     C_3   0.122166 0.808212 0.808593 0.079071
C11   C     C_3   0.979074 0.830524 0.737935 -0.325761
C12   C     C_3   0.328924 0.804134 0.770593 -0.304149
H7    H     H_    0.433757 0.781520 0.818201 0.177380
H8    H     H_    0.374534 0.872614 0.750656 0.137643
H9    H     H_    0.022622 0.791033 0.608701 0.149604
H10   H     H_    0.015560 0.897422 0.711651 0.140339
C13   C     C_2   0.987721 0.734223 0.300631 0.005915
C14   C     C_2   0.144610 0.682269 0.318539 -0.343375
H11   H     H_    0.269257 0.682827 0.278027 0.159248
C15   C     C_2   0.974478 0.789128 0.223269 -0.179023
C16   C     C_2   0.127269 0.817841 0.179287 -0.325493
H12   H     H_    0.832087 0.812304 0.205145 0.167879
H13   H     H_    0.272401 0.800621 0.198411 0.158124
C17   C     C_2   0.788098 0.206480 0.776796 -0.067398
C18   C     C_2   0.621694 0.175062 0.811607 -0.369351
H14   H     H_    0.483505 0.200077 0.791122 0.186911
C19   C     C_2   0.792364 0.276261 0.711021 -0.168161
C20   C     C_2   0.637474 0.318416 0.679958 -0.311926
H15   H     H_    0.933755 0.293524 0.686560 0.164282
H16   H     H_    0.493360 0.304254 0.702173 0.165476
C21   C     C_2   0.779471 0.207590 0.212388 -0.122131
C22   C     C_2   0.614312 0.180047 0.175645 -0.297325
H17   H     H_    0.476514 0.207868 0.194568 0.128144
C23   C     C_2   0.791782 0.276297 0.280715 -0.130237
C24   C     C_2   0.638293 0.314659 0.318459 -0.299104
H18   H     H_    0.935926 0.295284 0.300762 0.133845
O11   O     O_R   0.770850 0.076180 0.907410 -0.534956
O12   O     O_R   0.440600 0.088970 0.079950 -0.546606
O13   O     O_R   0.270430 0.912340 0.080550 -0.545145
C25   C     C_R   0.609256 0.111212 0.108362 0.741428
O14   O     O_R   0.441120 0.087010 0.907980 -0.512420
O15   O     O_R   0.270950 0.910370 0.907350 -0.541818
C26   C     C_R   0.611036 0.108060 0.879186 0.752860
O16   O     O_R   0.770320 0.078150 0.080620 -0.541745
O17   O     O_3   0.604200 0.936340 0.994000 -0.382423
V3    V     V_3+5 0.329300 0.004970 0.993950 1.490016
O18   O     O_R   0.941240 0.899420 0.907920 -0.547401
C27   C     C_R   0.110330 0.878325 0.878292 0.699004
O19   O     O_R   0.940720 0.901380 0.079890 -0.544137
C28   C     C_R   0.110095 0.880669 0.108891 0.741945
V4    V     V_3+5 0.829310 0.983370 0.993880 1.448092
O20   O     O_3   0.104280 0.052120 0.993920 -0.352722
C29   C     C_2   0.921596 0.577146 0.770497 0.716534
O21   O     O_2   0.764856 0.609472 0.753167 -0.579602
O22   O     O_R   0.932052 0.485698 0.791148 -0.640275
H19   H     H_    0.801126 0.455175 0.790593 0.308792
C30   C     C_2   0.820862 0.741643 0.358404 0.778070
O23   O     O_2   0.656568 0.744995 0.331051 -0.581906
O24   O     O_R   0.852025 0.748844 0.443821 -0.670274
H20   H     H_    0.727431 0.754504 0.476448 0.281506
C31   C     C_2   0.981385 0.172321 0.800580 0.839649
O25   O     O_2   0.095983 0.223362 0.834417 -0.531328
O26   O     O_R   0.037384 0.083705 0.781921 -0.656120
H21   H     H_    0.933223 0.048730 0.751372 0.226973
C32   C     C_2   0.275020 0.576922 0.795938 0.788226
O27   O     O_2   0.316388 0.512042 0.751633 -0.545052
O28   O     O_R   0.388321 0.595402 0.865840 -0.664825
H22   H     H_    0.496435 0.550098 0.873152 0.314435
H23   H     H_    0.915590 0.179030 0.191393 0.137324
H24   H     H_    0.492999 0.296395 0.300245 0.128712

loop_
_geom_bond_atom_site_label_1
_geom_bond_atom_site_label_2
_ccdc_geom_bond_type
C25   O16   A    
C12   H8    S    
H4    C11   S    
C16   C28   S    
C21   H23   S    
O2    C1    A    
C13   C14   D    
C8    H6    S    
C1    O6    A    
O26   H21   S    
C16   H13   S    
C1    C20   S    
O24   H20   S    
C13   C30   S    
O14   V3    S    
C7    C11   S    
C10   C11   S    
C8    H5    S    
O5    C3    A    
C12   H7    S    
V2    O10   S    
C6    H1    S    
O22   H19   S    
O8    V2    S    
O17   V4    S    
C7    H9    S    
O12   V3    S    
O1    V2    S    
V3    O20   S    
C3    C14   S    
O7    V1    S    
O15   C27   A    
C17   C31   S    
O9    C4    A    
C23   H18   S    
C22   H17   S    
O4    C2    A    
C19   H15   S    
C20   H16   S    
O14   C26   A    
O19   C28   A    
C22   C25   S    
C13   C15   S    
C6    C10   S    
C8    C9    S    
C31   O26   S    
O28   H22   S    
C11   H10   S    
C31   O25   D    
O16   V4    S    
C5    C32   S    
C17   C19   S    
C10   C27   S    
C30   O23   D    
C32   O27   D    
C21   C23   S    
C5    C6    S    
C30   O24   S    
O11   V4    S    
O3    C4    A    
C32   O28   S    
C5    C29   S    
O6    V2    S    
O9    V2    S    
C18   H14   S    
C17   C18   D    
C2    C24   S    
O13   C28   A    
O2    V1    S    
C23   C24   D    
C18   C26   S    
O13   V3    S    
C29   O22   S    
C14   H11   S    
O1    C2    A    
O5    V1    S    
O8    C3    A    
O15   V3    S    
C5    C9    S    
H3    C7    S    
O7    V2    S    
C29   O21   D    
O18   C27   A    
O3    V1    S    
V1    O10   S    
C15   H12   S    
C15   C16   D    
O18   V4    S    
O11   C26   A    
C10   C12   S    
O12   C25   A    
C24   H24   S    
C6    H2    S    
C7    C9    S    
C4    C9    S    
V4    O20   S    
C8    C12   S    
O17   V3    S    
C19   C20   D    
O4    V1    S    
C21   C22   D    
O19   V4    S    
