data_mof_unit_56920.cif
_audit_creation_date              2012-12-11T14:28:29-0500
_audit_creation_method            fapswitch 2.2
_symmetry_space_group_name_H-M    P1
_symmetry_Int_Tables_number       1
_space_group_crystal_system       triclinic
_cell_length_a                    10.972604
_cell_length_b                    19.336318
_cell_length_c                    18.432308
_cell_angle_alpha                 89.928788
_cell_angle_beta                  90.521533
_cell_angle_gamma                 90.229272
_cell_volume                      3910.58220092

loop_
_atom_site_label
_atom_site_type_symbol
_atom_type_description
_atom_site_fract_x
_atom_site_fract_y
_atom_site_fract_z
_atom_type_partial_charge
C1    C     C_R   0.318956 0.967933 0.644612 0.590871
C2    C     C_3   0.155307 0.782299 0.031843 -0.110490
C3    C     C_3   0.998503 0.209047 0.979779 -0.094290
C4    C     C_3   0.492421 0.290800 0.479795 -0.088220
C5    C     C_3   0.458526 0.268208 0.013490 -0.089804
C6    C     C_3   0.443757 0.732355 0.507763 -0.112735
C7    C     C_3   0.498503 0.709047 0.979779 -0.094290
C8    C     C_3   0.124641 0.788732 0.508368 -0.090953
C9    C     C_3   0.060760 0.811209 0.977448 -0.059275
C10   C     C_3   0.058579 0.193712 0.481717 -0.071291
C11   C     C_3   0.130110 0.212361 0.008876 -0.088316
C12   C     C_3   0.624643 0.288731 0.508368 -0.090951
C13   C     C_3   0.137330 0.232646 0.538141 -0.081384
C14   C     C_3   0.560760 0.311209 0.977448 -0.059276
C15   C     C_3   0.558580 0.693712 0.481717 -0.071292
C16   C     C_3   0.630110 0.712361 0.008876 -0.088316
C17   C     C_3   0.080279 0.746192 0.572842 0.039549
C18   C     C_3   0.085054 0.749426 0.927389 0.047282
C19   C     C_3   0.081047 0.252516 0.427323 0.044875
C20   C     C_3   0.083456 0.254235 0.072905 0.043695
C21   C     C_3   0.580278 0.246192 0.572843 0.039550
C22   C     C_3   0.585054 0.249426 0.927389 0.047282
C23   C     C_3   0.581047 0.752516 0.427323 0.044876
C24   C     C_3   0.151869 0.280480 0.967806 -0.078260
C25   C     C_3   0.583456 0.754235 0.072905 0.043695
C26   C     C_3   0.948622 0.748717 0.546023 -0.149618
C27   C     C_3   0.983043 0.706834 0.961675 -0.157881
C28   C     C_3   0.966602 0.290797 0.451665 -0.155573
C29   C     C_3   0.952701 0.250707 0.045505 -0.153602
C30   C     C_3   0.448621 0.248718 0.546023 -0.149617
C31   C     C_3   0.483043 0.206833 0.961675 -0.157881
C32   C     C_3   0.466602 0.790796 0.451665 -0.155574
C33   C     C_3   0.452701 0.750707 0.045505 -0.153602
C34   C     C_3   0.969967 0.680431 0.503842 -0.142801
C35   C     C_3   0.646684 0.220873 0.467390 -0.084804
C36   C     C_3   0.076977 0.678315 0.016453 -0.135027
C37   C     C_3   0.046024 0.329357 0.508100 -0.146768
C38   C     C_3   0.973888 0.319151 0.003317 -0.148475
C39   C     C_3   0.469964 0.180431 0.503843 -0.142805
C40   C     C_3   0.576978 0.178315 0.016453 -0.135027
C41   C     C_3   0.546022 0.829357 0.508100 -0.146770
C42   C     C_3   0.473888 0.819151 0.003317 -0.148475
C43   C     C_3   0.102683 0.678461 0.532357 -0.117800
C44   C     C_3   0.178572 0.720571 0.981534 -0.142571
C45   C     C_3   0.160310 0.291104 0.483309 -0.126298
C46   C     C_3   0.655307 0.282299 0.031843 -0.110490
C47   C     C_3   0.106047 0.322322 0.032558 -0.115683
C48   C     C_3   0.602680 0.178460 0.532358 -0.117800
C49   C     C_3   0.678572 0.220571 0.981534 -0.142571
C50   C     C_3   0.660309 0.791105 0.483309 -0.126297
C51   C     C_3   0.606046 0.822322 0.032558 -0.115683
C52   C     C_3   0.637329 0.732647 0.538141 -0.081384
C53   C     C_3   0.651869 0.780480 0.967807 -0.078259
C54   C     C_3   0.015471 0.723035 0.439246 0.062117
C55   C     C_3   0.054957 0.739973 0.066537 0.080445
C56   C     C_3   0.024112 0.271377 0.562317 0.059253
C57   C     C_R   0.322484 0.968859 0.853698 0.586706
C58   C     C_3   0.020692 0.276843 0.939114 0.056188
C59   C     C_3   0.515471 0.223035 0.439246 0.062116
C60   C     C_3   0.554956 0.239973 0.066537 0.080445
C61   C     C_3   0.524111 0.771377 0.562317 0.059254
C62   C     C_3   0.520692 0.776843 0.939114 0.056188
C63   C     C_R   0.339135 0.987627 0.418565 -0.003354
C64   C     C_R   0.322783 0.005401 0.068868 -0.007919
C65   C     C_R   0.322904 0.996969 0.569888 -0.006284
C66   C     C_R   0.339131 0.014040 0.917504 0.000139
C67   C     C_R   0.839135 0.487627 0.418565 -0.003353
C68   C     C_R   0.322350 0.031547 0.353971 0.585215
C69   C     C_R   0.822783 0.505401 0.068868 -0.007921
C70   C     C_R   0.822905 0.496969 0.569888 -0.006285
C71   C     C_R   0.839132 0.514040 0.917504 0.000139
C72   C     C_R   0.561413 0.992526 0.426815 -0.073357
C73   C     C_R   0.546779 0.987897 0.074305 -0.097039
C74   C     C_R   0.546774 0.014893 0.575748 -0.097232
C75   C     C_R   0.561199 0.011278 0.925512 -0.074483
C76   C     C_R   0.061413 0.492525 0.426814 -0.073358
C77   C     C_R   0.046779 0.487897 0.074305 -0.097039
C78   C     C_R   0.046774 0.514893 0.575747 -0.097232
C79   C     C_R   0.318762 0.032604 0.144266 0.598018
C80   C     C_R   0.061199 0.511278 0.925512 -0.074483
C81   C     C_R   0.667046 0.000342 0.467885 -0.132928
C82   C     C_R   0.659662 0.991648 0.040788 -0.153851
C83   C     C_R   0.659815 0.010580 0.542496 -0.152644
C84   C     C_R   0.666867 0.002715 0.966284 -0.132256
C85   C     C_R   0.167045 0.500342 0.467884 -0.132925
C86   C     C_R   0.159662 0.491648 0.040788 -0.153851
C87   C     C_R   0.159814 0.510582 0.542495 -0.152643
C88   C     C_R   0.166867 0.502714 0.966284 -0.132256
C89   C     C_R   0.438251 0.002769 0.535953 -0.030720
C90   C     C_R   0.818956 0.467933 0.644612 0.590872
C91   C     C_R   0.446348 0.008578 0.958801 -0.016843
C92   C     C_R   0.446270 0.995001 0.459876 -0.021166
C93   C     C_R   0.438382 0.000777 0.034840 -0.022647
C94   C     C_R   0.938251 0.502768 0.535953 -0.030719
C95   C     C_R   0.946348 0.508578 0.958801 -0.016842
C96   C     C_R   0.946269 0.495000 0.459876 -0.021166
C97   C     C_R   0.938382 0.500777 0.034840 -0.022646
C98   C     C_R   0.215909 0.989996 0.524669 -0.058353
C99   C     C_R   0.232568 0.033807 0.951187 -0.060875
C100  C     C_R   0.232609 0.967775 0.452508 -0.071969
C101  C     C_R   0.822484 0.468859 0.853698 0.586705
C102  C     C_R   0.215626 0.012372 0.023746 -0.059587
C103  C     C_R   0.715909 0.489996 0.524670 -0.058356
C104  C     C_R   0.732568 0.533807 0.951187 -0.060875
C105  C     C_R   0.732608 0.467775 0.452508 -0.071970
C106  C     C_R   0.715626 0.512372 0.023746 -0.059587
C107  C     C_R   0.092937 0.002104 0.546366 0.242502
C108  C     C_R   0.135238 0.060758 0.909235 0.218957
C109  C     C_R   0.134509 0.940667 0.411075 0.273107
C110  C     C_R   0.092375 0.001107 0.045953 0.281395
C111  C     C_R   0.592937 0.502106 0.546366 0.242522
C112  C     C_R   0.822350 0.531547 0.353971 0.585215
C113  C     C_R   0.635238 0.560758 0.909236 0.218958
C114  C     C_R   0.634508 0.440667 0.411075 0.273106
C115  C     C_R   0.592375 0.501106 0.045952 0.281393
C116  C     C_R   0.996973 0.981363 0.501516 -0.186355
C117  C     C_R   0.017201 0.049569 0.933030 -0.185688
C118  C     C_R   0.016736 0.951845 0.434651 -0.149318
C119  C     C_R   0.996950 0.021252 0.000628 -0.147269
C120  C     C_R   0.496972 0.481367 0.501516 -0.186345
C121  C     C_R   0.517201 0.549568 0.933030 -0.185688
C122  C     C_R   0.516735 0.451847 0.434651 -0.149323
C123  C     C_R   0.818762 0.532604 0.144266 0.598018
C124  C     C_R   0.496950 0.521251 0.000627 -0.147269
C125  C     C_R   0.132190 0.757519 0.644374 0.531967
C126  C     C_R   0.129439 0.756865 0.854118 0.544624
C127  C     C_R   0.131022 0.242680 0.355171 0.541558
C128  C     C_R   0.132387 0.242592 0.144561 0.545699
C129  C     C_R   0.632190 0.257519 0.644374 0.531965
C130  C     C_R   0.629440 0.256865 0.854118 0.544622
C131  C     C_R   0.631022 0.742680 0.355171 0.541558
C132  C     C_R   0.632387 0.742592 0.144561 0.545699
C133  C     C_R   0.496659 0.787069 0.637281 0.559890
C134  C     C_3   0.146684 0.720875 0.467390 -0.084803
C135  C     C_R   0.494770 0.788618 0.862322 0.583164
C136  C     C_R   0.493251 0.210950 0.361999 0.584711
C137  C     C_R   0.537804 0.228840 0.143196 0.593921
C138  C     C_R   0.996659 0.287069 0.637281 0.559889
C139  C     C_R   0.994770 0.288618 0.862322 0.583163
C140  C     C_R   0.993252 0.710950 0.361999 0.584710
C141  C     C_R   0.037804 0.728840 0.143196 0.593920
C142  C     C_3   0.992419 0.790800 0.479796 -0.088224
C143  C     C_3   0.958526 0.768208 0.013490 -0.089804
C144  C     C_3   0.943757 0.232355 0.507763 -0.112736
Cr1   Cr    Cr6+3 0.488160 0.884660 0.750000 1.012064
Cr2   Cr    Cr6+3 0.333410 0.272740 0.250000 1.039208
Cr3   Cr    Cr6+3 0.833410 0.227260 0.750000 1.100831
Cr4   Cr    Cr6+3 0.833410 0.772740 0.250000 1.039212
Cr5   Cr    Cr6+3 0.488160 0.115340 0.250000 1.019049
Cr6   Cr    Cr6+3 0.988160 0.384660 0.750000 1.012059
Cr7   Cr    Cr6+3 0.988160 0.615340 0.250000 1.019049
Cr8   Cr    Cr6+3 0.173480 0.883120 0.750000 1.077436
Cr9   Cr    Cr6+3 0.173480 0.116880 0.250000 1.116138
Cr10  Cr    Cr6+3 0.673480 0.383120 0.750000 1.077450
Cr11  Cr    Cr6+3 0.673480 0.616880 0.250000 1.116138
Cr12  Cr    Cr6+3 0.333410 0.727260 0.750000 1.100823
H1    H     H_    0.189640 0.832623 0.512763 0.116055
H2    H     H_    0.939138 0.064891 0.900860 0.100244
H3    H     H_    0.938964 0.936879 0.401706 0.158608
H4    H     H_    0.905187 0.014804 0.018267 0.146901
H5    H     H_    0.405330 0.488351 0.518956 0.126003
H6    H     H_    0.439138 0.564891 0.900859 0.100243
H7    H     H_    0.438963 0.436881 0.401706 0.158606
H8    H     H_    0.405187 0.514804 0.018266 0.146901
H9    H     H_    0.940690 0.833044 0.455079 0.127287
H10   H     H_    0.869122 0.787123 0.031719 0.157740
H11   H     H_    0.859441 0.206623 0.525630 0.149239
H12   H     H_    0.052547 0.865885 0.959654 0.161822
H13   H     H_    0.948625 0.166404 0.954829 0.127326
H14   H     H_    0.440694 0.333045 0.455078 0.127291
H15   H     H_    0.369122 0.287123 0.031719 0.157740
H16   H     H_    0.359442 0.706623 0.525629 0.149238
H17   H     H_    0.448626 0.666404 0.954829 0.127326
H18   H     H_    0.874965 0.764160 0.583116 0.128813
H19   H     H_    0.913303 0.676119 0.931820 0.162930
H20   H     H_    0.898367 0.315075 0.415134 0.177286
H21   H     H_    0.877750 0.235340 0.082112 0.130916
H22   H     H_    0.374964 0.264163 0.583114 0.128815
H23   H     H_    0.063821 0.137812 0.468544 0.154091
H24   H     H_    0.413303 0.176119 0.931820 0.162930
H25   H     H_    0.398366 0.815074 0.415134 0.177286
H26   H     H_    0.377750 0.735340 0.082112 0.130916
H27   H     H_    0.903259 0.637500 0.499410 0.122008
H28   H     H_    0.085832 0.624422 0.035113 0.165072
H29   H     H_    0.043204 0.383608 0.524453 0.155452
H30   H     H_    0.908369 0.362375 0.998304 0.118620
H31   H     H_    0.403255 0.137502 0.499411 0.122007
H32   H     H_    0.585832 0.124422 0.035113 0.165072
H33   H     H_    0.543201 0.883608 0.524452 0.155451
H34   H     H_    0.195257 0.168852 0.013723 0.118018
H35   H     H_    0.408368 0.862375 0.998304 0.118620
H36   H     H_    0.156700 0.637200 0.557627 0.162276
H37   H     H_    0.264075 0.696204 0.966033 0.129109
H38   H     H_    0.246118 0.318765 0.472500 0.123432
H39   H     H_    0.157883 0.364462 0.058298 0.153637
H40   H     H_    0.656694 0.137199 0.557628 0.162279
H41   H     H_    0.764075 0.196204 0.966033 0.129108
H42   H     H_    0.746116 0.818767 0.472500 0.123431
H43   H     H_    0.657883 0.864462 0.058298 0.153637
H44   H     H_    0.225341 0.708087 0.432542 0.162140
H45   H     H_    0.689643 0.332621 0.512763 0.116055
H46   H     H_    0.224275 0.813705 0.061095 0.158020
H47   H     H_    0.201802 0.206859 0.575737 0.169352
H48   H     H_    0.232113 0.294112 0.934373 0.160728
H49   H     H_    0.725340 0.208084 0.432543 0.162139
H50   H     H_    0.724275 0.313705 0.061095 0.158019
H51   H     H_    0.701801 0.706859 0.575738 0.169353
H52   H     H_    0.732113 0.794113 0.934373 0.160728
H53   H     H_    0.753684 0.999088 0.440837 0.114381
H54   H     H_    0.740389 0.982788 0.073165 0.148015
H55   H     H_    0.740727 0.019082 0.575006 0.139769
H56   H     H_    0.552547 0.365885 0.959654 0.161822
H57   H     H_    0.753455 0.003756 0.939136 0.110854
H58   H     H_    0.253682 0.499089 0.440836 0.114379
H59   H     H_    0.240389 0.482788 0.073165 0.148016
H60   H     H_    0.240727 0.519085 0.575004 0.139752
H61   H     H_    0.253455 0.503756 0.939136 0.110853
H62   H     H_    0.570768 0.981338 0.369624 0.148705
H63   H     H_    0.545806 0.972722 0.130764 0.149221
H64   H     H_    0.545692 0.029405 0.632369 0.151670
H65   H     H_    0.570063 0.022181 0.868179 0.144107
H66   H     H_    0.070767 0.481336 0.369623 0.148705
H67   H     H_    0.563822 0.637812 0.468545 0.154088
H68   H     H_    0.045806 0.472722 0.130764 0.149221
H69   H     H_    0.045692 0.529406 0.632369 0.151667
H70   H     H_    0.070063 0.522181 0.868179 0.144105
H71   H     H_    0.032018 0.859060 0.246108 0.418911
H72   H     H_    0.877094 0.893357 0.135607 0.368535
H73   H     H_    0.922035 0.976531 0.662273 0.312086
H74   H     H_    0.988143 0.073186 0.786904 0.342383
H75   H     H_    0.532015 0.359059 0.246110 0.418910
H76   H     H_    0.377094 0.393356 0.135607 0.368535
H77   H     H_    0.422000 0.476558 0.662288 0.312082
H78   H     H_    0.695257 0.668852 0.013723 0.118018
H79   H     H_    0.488144 0.573188 0.786904 0.342378
H80   H     H_    0.905331 0.988345 0.518956 0.125999
O1    O     O_R   0.575450 0.828820 0.667950 -0.509451
O2    O     O_R   0.416860 0.942890 0.825320 -0.536335
O3    O     O_R   0.416860 0.057110 0.325320 -0.537989
O4    O     O_R   0.416860 0.057110 0.174680 -0.526835
O5    O     O_R   0.916860 0.442890 0.674680 -0.542966
O6    O     O_R   0.916860 0.442890 0.825320 -0.536336
O7    O     O_R   0.916860 0.557110 0.325320 -0.537989
O8    O     O_R   0.916860 0.557110 0.174680 -0.526835
O9    O     O_R   0.213790 0.953680 0.668330 -0.411706
O10   O     O_R   0.213790 0.953680 0.831670 -0.473858
O11   O     O_R   0.213790 0.046320 0.331670 -0.461036
O12   O     O_R   0.575450 0.828820 0.832050 -0.491024
O13   O     O_R   0.213790 0.046320 0.168330 -0.411971
O14   O     O_R   0.713790 0.453680 0.668330 -0.411689
O15   O     O_R   0.713790 0.453680 0.831670 -0.473857
O16   O     O_R   0.713790 0.546320 0.331670 -0.461036
O17   O     O_R   0.713790 0.546320 0.168330 -0.411971
O18   O     O_R   0.121360 0.817890 0.672660 -0.507212
O19   O     O_R   0.121360 0.817890 0.827340 -0.515814
O20   O     O_R   0.121360 0.182110 0.327340 -0.514335
O21   O     O_R   0.121360 0.182110 0.172660 -0.498415
O22   O     O_R   0.621360 0.317890 0.672660 -0.507202
O23   O     O_R   0.575450 0.171180 0.332050 -0.495715
O24   O     O_R   0.621360 0.317890 0.827340 -0.515815
O25   O     O_R   0.621360 0.682110 0.327340 -0.514335
O26   O     O_R   0.621360 0.682110 0.172660 -0.498415
O27   O     O_R   0.206850 0.711370 0.665820 -0.525135
O28   O     O_R   0.206850 0.711370 0.834180 -0.540669
O29   O     O_R   0.206850 0.288630 0.334180 -0.531854
O30   O     O_R   0.206850 0.288630 0.165820 -0.546930
O31   O     O_R   0.706850 0.211370 0.665820 -0.525134
O32   O     O_R   0.706850 0.211370 0.834180 -0.540668
O33   O     O_R   0.706850 0.788630 0.334180 -0.531853
O34   O     O_R   0.575450 0.171180 0.167950 -0.521603
O35   O     O_R   0.706850 0.788630 0.165820 -0.546929
O36   O     O_R   0.457710 0.733190 0.672630 -0.391681
O37   O     O_R   0.457710 0.733190 0.827370 -0.423656
O38   O     O_R   0.457710 0.266810 0.327370 -0.461662
O39   O     O_R   0.457710 0.266810 0.172630 -0.503578
O40   O     O_R   0.957710 0.233190 0.672630 -0.391683
O41   O     O_R   0.957710 0.233190 0.827370 -0.423656
O42   O     O_R   0.957710 0.766810 0.327370 -0.461655
O43   O     O_R   0.957710 0.766810 0.172630 -0.503576
O44   O     O_3   0.331690 0.831680 0.750000 -0.341856
O45   O     O_R   0.075450 0.328820 0.667950 -0.509451
O46   O     O_3   0.331690 0.168320 0.250000 -0.320377
O47   O     O_3   0.831690 0.331680 0.750000 -0.341858
O48   O     O_3   0.831690 0.668320 0.250000 -0.320377
O49   O     O_2   0.253488 0.918168 0.281627 -0.239545
O50   O     O_2   0.186833 0.819071 0.350141 -0.329139
O51   O     O_3   0.021749 0.893224 0.285023 -0.478284
O52   O     O_2   0.150812 0.905004 0.145164 -0.274472
O53   O     O_2   0.001261 0.994062 0.179622 -0.253962
O54   O     O_3   0.930068 0.897995 0.092659 -0.600992
O55   O     O_2   0.152994 0.095200 0.648736 -0.196347
O56   O     O_R   0.075450 0.328820 0.832050 -0.491025
O57   O     O_2   0.946429 0.100695 0.598202 -0.337908
O58   O     O_3   0.993753 0.999542 0.684774 -0.504603
O59   O     O_2   0.199372 0.182485 0.851959 -0.296226
O60   O     O_2   0.258714 0.083773 0.781683 -0.230866
O61   O     O_3   0.031391 0.117446 0.779958 -0.385744
O62   O     O_2   0.753491 0.418166 0.281629 -0.239546
O63   O     O_2   0.686829 0.319071 0.350142 -0.329138
O64   O     O_3   0.521751 0.393226 0.285021 -0.478284
O65   O     O_2   0.650811 0.405004 0.145166 -0.274465
O66   O     O_2   0.501259 0.494063 0.179622 -0.253961
O67   O     O_R   0.075450 0.671180 0.332050 -0.495715
O68   O     O_3   0.430068 0.397995 0.092659 -0.600992
O69   O     O_2   0.653000 0.595200 0.648737 -0.196350
O70   O     O_2   0.446432 0.600698 0.598207 -0.337923
O71   O     O_3   0.493760 0.499542 0.684775 -0.504594
O72   O     O_2   0.699374 0.682485 0.851959 -0.296228
O73   O     O_2   0.758714 0.583774 0.781683 -0.230863
O74   O     O_3   0.531391 0.617448 0.779959 -0.385752
O75   O     O_R   0.075450 0.671180 0.167950 -0.521603
O76   O     O_R   0.416860 0.942890 0.674680 -0.542964
S1    S     S_3+6 0.154747 0.891841 0.330315 0.039890
S2    S     S_3+6 0.046436 0.948735 0.119342 -0.006833
S3    S     S_3+6 0.047760 0.053070 0.620522 0.025476
S4    S     S_3+6 0.160193 0.111429 0.829337 0.064937
S5    S     S_3+6 0.654747 0.391841 0.330315 0.039891
S6    S     S_3+6 0.546436 0.448735 0.119342 -0.006830
S7    S     S_3+6 0.547763 0.553072 0.620524 0.025471
S8    S     S_3+6 0.660194 0.611429 0.829338 0.064937

loop_
_geom_bond_atom_site_label_1
_geom_bond_atom_site_label_2
_ccdc_geom_bond_type
C81   H53   S    
C71   C104  A    
O53   S2    D    
O69   S7    D    
C73   C82   A    
C6    C32   S    
C2    H46   S    
C73   C93   A    
C74   C83   A    
Cr9   O21   S    
C50   H42   S    
C61   C133  S    
C65   C89   A    
C90   O14   A    
C55   C141  S    
C47   H39   S    
C52   C61   S    
C117  C119  A    
C86   C88   A    
C71   C95   A    
C69   C123  S    
C54   C134  S    
C45   H38   S    
C88   H61   S    
C73   H63   S    
O55   S3    D    
Cr3   O32   S    
C37   C56   S    
C37   H29   S    
C50   C52   S    
C28   C144  S    
C41   C61   S    
C4    C12   S    
C21   C48   S    
C100  C109  A    
C29   H21   S    
C22   C130  S    
C7    C33   S    
C8    H1    S    
Cr3   O41   S    
C109  C118  A    
C9    C143  S    
C11   C20   S    
C140  O42   A    
O71   S7    S    
C141  O43   A    
O72   S8    D    
C70   C103  A    
C3    H13   S    
C137  O39   A    
C13   H47   S    
C17   C43   S    
C7    C62   S    
C18   C44   S    
C137  O34   A    
C94   C96   A    
Cr8   O9    S    
C22   C49   S    
C34   C54   S    
C82   C84   A    
C64   C79   S    
C36   C44   S    
C37   C45   S    
Cr10  O24   S    
C16   C25   S    
C69   C106  A    
C127  O29   A    
C46   C60   S    
C139  O41   A    
Cr2   O38   S    
C130  O24   A    
C95   C97   A    
C111  S7    S    
C72   H62   S    
C106  C115  A    
C8    C17   S    
Cr4   O43   S    
C41   H33   S    
C31   H24   S    
C2    C55   S    
C11   H34   S    
C80   C88   A    
C36   C55   S    
C1    O9    A    
C76   C96   A    
C13   C45   S    
C78   C94   A    
C138  O45   A    
Cr5   O3    S    
C116  C118  A    
Cr6   O47   S    
C20   C47   S    
C3    C11   S    
Cr7   O7    S    
O58   S3    S    
Cr11  O25   S    
C107  S3    S    
C67   C112  S    
C74   H64   S    
C33   H26   S    
C113  S8    S    
C51   C53   S    
C115  S6    S    
C76   C85   A    
C78   C87   A    
Cr7   O75   S    
C40   C60   S    
Cr6   O56   S    
C57   C66   S    
H76   O68   S    
C6    H16   S    
C64   C102  A    
C99   C108  A    
C4    H14   S    
O66   S6    D    
C10   H23   S    
C6    C61   S    
C103  C111  A    
Cr5   O34   S    
C75   C84   A    
C40   C49   S    
C59   C136  S    
C3    C29   S    
Cr12  O28   S    
Cr6   O5    S    
C2    C44   S    
C29   C38   S    
C1    C65   S    
C87   H60   S    
C77   C97   A    
C42   C62   S    
Cr10  O22   S    
C75   C91   A    
C13   C56   S    
C133  O1    A    
C79   O4    A    
H77   O71   S    
C81   C83   A    
C5    H15   S    
C55   C143  S    
C144  H11   S    
C8    C134  S    
C32   H25   S    
Cr10  O14   S    
C38   H30   S    
C135  O37   A    
Cr6   O45   S    
C62   C135  S    
Cr2   O29   S    
C101  O6    A    
C27   C143  S    
Cr1   O2    S    
C30   H22   S    
C23   C131  S    
C34   H27   S    
C103  C105  A    
C114  S5    S    
C10   C144  S    
C12   C35   S    
C19   C28   S    
O62   S5    D    
C21   C129  S    
C1    O76   A    
C43   H36   S    
Cr7   O67   S    
C84   H57   S    
C132  O26   A    
C46   H50   S    
C63   C68   S    
C5    C60   S    
C117  H2    S    
Cr4   O33   S    
C9    H12   S    
C34   C43   S    
C57   O10   A    
C110  C119  A    
H72   O54   S    
C19   C45   S    
C40   H32   S    
C80   C95   A    
C128  O21   A    
O51   S1    S    
H74   O61   S    
Cr7   O48   S    
C18   C126  S    
Cr1   O76   S    
C28   C37   S    
O59   S4    D    
Cr4   O42   S    
C30   C39   S    
C125  O18   A    
C107  C116  A    
H79   O74   S    
C104  C113  A    
C9    C18   S    
C113  C121  A    
C128  O30   A    
C80   H70   S    
C25   C132  S    
C25   C33   S    
C82   H54   S    
C69   C97   A    
O60   S4    D    
C52   H51   S    
C104  C106  A    
C118  H3    S    
C14   C46   S    
C46   C49   S    
C44   H37   S    
C70   C94   A    
C65   C98   A    
Cr12  O44   S    
H75   O64   S    
C72   C92   A    
O73   S8    D    
C26   H18   S    
C53   H52   S    
C31   C40   S    
C35   C59   S    
Cr5   O23   S    
C38   C58   S    
C42   H35   S    
C141  O75   A    
Cr8   O10   S    
C72   C81   A    
Cr2   O46   S    
C130  O32   A    
C78   H69   S    
C71   C101  S    
Cr4   O35   S    
Cr10  O47   S    
C101  O15   A    
C35   C48   S    
C108  C117  A    
C139  O56   A    
Cr2   O39   S    
C27   H19   S    
C28   H20   S    
C133  O36   A    
C49   H41   S    
C35   H49   S    
C108  S4    S    
C98   C107  A    
C43   C134  S    
C91   C93   A    
Cr3   O47   S    
C77   H68   S    
O68   S6    S    
C16   H78   S    
C10   C19   S    
C39   C59   S    
C116  H80   S    
C136  O23   A    
C126  O28   A    
C15   C52   S    
C5    C14   S    
O57   S3    D    
C7    C16   S    
C54   C142  S    
C98   C100  A    
C102  C110  A    
C33   C42   S    
C41   C50   S    
O63   S5    D    
C115  C124  A    
C109  S1    S    
C136  O38   A    
O61   S4    S    
C23   C50   S    
C68   O3    A    
Cr8   O19   S    
Cr11  O16   S    
Cr12  O36   S    
C27   C36   S    
C21   C30   S    
C14   H56   S    
C23   C32   S    
C14   C22   S    
O74   S8    S    
C121  H6    S    
Cr9   O11   S    
C15   H67   S    
C123  O17   A    
H73   O58   S    
C56   C144  S    
C3    C58   S    
Cr6   O6    S    
C99   C102  A    
C67   C105  A    
C24   C58   S    
O54   S2    S    
C8    C142  S    
C85   H58   S    
C39   C48   S    
C124  H8    S    
C58   C139  S    
Cr11  O17   S    
O65   S6    D    
O52   S2    D    
C132  O35   A    
C143  H10   S    
C134  H44   S    
C17   C26   S    
C74   C89   A    
C64   C93   A    
C20   C128  S    
H71   O51   S    
Cr10  O15   S    
O50   S1    D    
C11   C24   S    
Cr5   O4    S    
Cr11  O48   S    
Cr2   O30   S    
C86   H59   S    
C121  C124  A    
Cr8   O44   S    
C6    C15   S    
C16   C53   S    
Cr11  O26   S    
C26   C34   S    
C112  O7    A    
C54   C140  S    
C119  H4    S    
Cr1   O1    S    
C63   C92   A    
Cr5   O46   S    
C126  O19   A    
C36   H28   S    
Cr3   O40   S    
C129  O31   A    
C60   C137  S    
C39   H31   S    
C15   C23   S    
Cr7   O8    S    
C48   H40   S    
O70   S7    D    
C79   O13   A    
C125  O27   A    
C70   C90   S    
C123  O8    A    
C120  C122  A    
C112  O16   A    
C20   C29   S    
C85   C87   A    
C68   O11   A    
C22   C31   S    
C127  O20   A    
C105  C114  A    
Cr3   O31   S    
C129  O22   A    
C76   H66   S    
Cr9   O13   S    
C12   C21   S    
C122  H7    S    
C138  O40   A    
C111  C120  A    
C66   C99   A    
Cr9   O46   S    
C25   C51   S    
C63   C100  A    
Cr12  O27   S    
C56   C138  S    
C53   C62   S    
C131  O33   A    
C32   C41   S    
Cr12  O37   S    
C12   H45   S    
C89   C92   A    
C38   C47   S    
C51   H43   S    
C120  H5    S    
C140  O67   A    
Cr9   O20   S    
O49   S1    D    
C77   C86   A    
C67   C96   A    
Cr1   O44   S    
C24   H48   S    
Cr4   O48   S    
Cr1   O12   S    
C24   C47   S    
C135  O12   A    
C18   C27   S    
C57   O2    A    
C10   C13   S    
C66   C91   A    
O64   S5    S    
C42   C51   S    
C142  H9    S    
Cr8   O18   S    
C2    C9    S    
C17   C125  S    
C7    H17   S    
C4    C59   S    
C19   C127  S    
C4    C30   S    
C114  C122  A    
C75   H65   S    
C90   O5    A    
C110  S2    S    
C131  O25   A    
C26   C142  S    
C83   H55   S    
C5    C31   S    
