data_mof_unit_48215.cif
_audit_creation_date              2012-12-10T16:59:20-0500
_audit_creation_method            fapswitch 2.2
_symmetry_space_group_name_H-M    P1
_symmetry_Int_Tables_number       1
_space_group_crystal_system       triclinic
_cell_length_a                    7.733241
_cell_length_b                    8.60801
_cell_length_c                    27.708967
_cell_angle_alpha                 91.056315
_cell_angle_beta                  86.321294
_cell_angle_gamma                 93.339705
_cell_volume                      1837.39871834

loop_
_atom_site_label
_atom_site_type_symbol
_atom_type_description
_atom_site_fract_x
_atom_site_fract_y
_atom_site_fract_z
_atom_type_partial_charge
C1    C     C_R   0.545152 0.794435 0.499534 0.889952
C2    C     C_R   0.513841 0.644125 0.127928 -0.022675
C3    C     C_R   0.510426 0.498031 0.646432 -0.035451
C4    C     C_R   0.489559 0.501888 0.353564 -0.035616
C5    C     C_R   0.533439 0.642594 0.025644 0.047929
C6    C     C_R   0.466482 0.357111 0.974359 0.047930
C7    C     C_R   0.454568 0.359594 0.025642 0.047968
C8    C     C_R   0.545356 0.640110 0.974360 0.047971
C9    C     C_R   0.488962 0.502171 0.050926 0.071883
C10   C     C_R   0.510964 0.497533 0.949077 0.071877
C11   C     C_R   0.564030 0.781359 0.052833 -0.225483
C12   C     C_R   0.454848 0.205565 0.500466 0.889949
C13   C     C_R   0.435889 0.218346 0.947169 -0.225494
C14   C     C_R   0.554678 0.781632 0.102903 -0.139286
C15   C     C_R   0.445255 0.218073 0.897100 -0.139287
C16   C     C_R   0.503085 0.499727 0.593933 0.873116
C17   C     C_R   0.496914 0.500265 0.406066 0.873142
C18   C     C_R   0.591403 0.775745 0.947172 -0.225824
C19   C     C_R   0.408527 0.223958 0.052831 -0.225808
C20   C     C_2   0.565820 0.957235 0.506034 0.186847
C21   C     C_2   0.434180 0.042765 0.493966 0.186843
C22   C     C_R   0.567816 0.629578 0.821551 0.506577
C23   C     C_R   0.520589 0.495454 0.897799 -0.049580
C24   C     C_R   0.432123 0.370128 0.178453 0.506595
C25   C     C_R   0.491722 0.356959 0.821552 0.508011
C26   C     C_R   0.508240 0.642742 0.178450 0.508080
C27   C     C_R   0.363607 0.493446 0.726111 -0.099293
C28   C     C_R   0.636269 0.504832 0.273867 -0.099436
C29   C     C_R   0.356447 0.495879 0.676212 -0.200343
C30   C     C_R   0.643436 0.502517 0.323768 -0.200224
C31   C     C_R   0.671478 0.497977 0.667225 -0.200177
C32   C     C_R   0.328600 0.503347 0.332782 -0.200089
C33   C     C_R   0.678149 0.496126 0.717190 -0.092189
C34   C     C_R   0.479345 0.504249 0.102204 -0.049570
C35   C     C_R   0.321922 0.505106 0.282815 -0.092438
C36   C     C_R   0.524242 0.493682 0.746496 0.321231
C37   C     C_R   0.475729 0.506024 0.253499 0.321568
C38   C     C_R   0.563684 0.633428 0.872074 -0.021593
C39   C     C_R   0.436254 0.366274 0.127929 -0.021634
C40   C     C_R   0.599805 0.772142 0.897104 -0.140555
C41   C     C_R   0.400129 0.227561 0.102900 -0.140565
C42   C     C_R   0.486099 0.355579 0.872075 -0.022646
H1    H     H_    0.792002 0.499928 0.644994 0.161125
H2    H     H_    0.230772 0.495554 0.661041 0.162849
H3    H     H_    0.755088 0.505198 0.250927 0.136628
H4    H     H_    0.244700 0.491909 0.749039 0.136783
H5    H     H_    0.580703 0.890728 0.121955 0.194165
H6    H     H_    0.419233 0.108976 0.878048 0.194181
H7    H     H_    0.596034 0.893045 0.036867 0.140054
H8    H     H_    0.403874 0.106661 0.963136 0.140057
H9    H     H_    0.622524 0.887819 0.963138 0.140879
H10   H     H_    0.377410 0.111884 0.036865 0.140875
H11   H     H_    0.781816 0.938815 0.538559 0.344686
H12   H     H_    0.208146 0.502618 0.355021 0.161393
H13   H     H_    0.218182 0.061184 0.461443 0.344703
H14   H     H_    0.014383 0.383219 0.463504 0.191650
H15   H     H_    0.985617 0.616780 0.536496 0.191622
H16   H     H_    0.802342 0.496519 0.733188 0.135559
H17   H     H_    0.197803 0.505836 0.266826 0.135426
H18   H     H_    0.634587 0.879409 0.878053 0.192978
H19   H     H_    0.365350 0.120294 0.121951 0.192963
H20   H     H_    0.769041 0.501697 0.338925 0.162834
N1    N     N_R   0.530378 0.492975 0.797662 -0.361716
N2    N     N_R   0.469575 0.506728 0.202337 -0.361774
N3    N     N_2   0.950320 0.457960 0.486880 -0.157589
N4    N     N_2   0.049680 0.542040 0.513120 -0.157584
O1    O     O_R   0.389250 0.738570 0.503220 -0.554296
O2    O     O_2   0.393364 0.238431 0.203594 -0.531056
O3    O     O_2   0.541977 0.775683 0.203617 -0.528663
O4    O     O_2   0.458043 0.224002 0.796387 -0.528720
O5    O     O_3   0.707718 0.022087 0.529231 -0.762180
O6    O     O_3   0.292281 0.977912 0.470769 -0.762206
O7    O     O_R   0.610750 0.261430 0.496780 -0.554294
O8    O     O_R   0.678390 0.711630 0.494810 -0.645379
O9    O     O_R   0.321610 0.288370 0.505190 -0.645379
O10   O     O_R   0.355440 0.513440 0.575450 -0.625418
O11   O     O_R   0.644560 0.486560 0.424550 -0.625425
O12   O     O_R   0.644590 0.486500 0.567040 -0.624683
O13   O     O_R   0.355410 0.513500 0.432960 -0.624746
O14   O     O_2   0.606527 0.761293 0.796414 -0.531127
Zn1   Zn    Zn3+2 0.306940 0.517990 0.505620 0.989298
Zn2   Zn    Zn3+2 0.693060 0.482010 0.494380 0.989313

loop_
_geom_bond_atom_site_label_1
_geom_bond_atom_site_label_2
_ccdc_geom_bond_type
C33   H16   S    
C40   H18   S    
C27   C29   A    
C41   H19   S    
H15   N4    S    
C33   C36   A    
C39   C41   A    
C23   C42   A    
C31   H1    S    
C1    O8    A    
C28   C37   A    
C35   C37   A    
C5    C11   A    
C30   H20   S    
C11   C14   A    
H14   N3    S    
C22   C38   A    
C17   O13   A    
C24   C39   A    
C35   H17   S    
C25   N1    A    
C3    C29   A    
C26   N2    A    
C18   C40   A    
C22   N1    A    
C14   H5    S    
C19   H10   S    
C31   C33   A    
C20   O5    S    
C36   N1    S    
H13   O6    S    
C2    C34   A    
C24   N2    A    
C12   O7    A    
C15   H6    S    
O8    Zn2   S    
C32   H12   S    
C18   H9    S    
C28   H3    S    
C21   O6    S    
C34   C39   A    
C32   C35   A    
O13   Zn1   S    
O9    Zn1   S    
C12   C21   S    
C8    C18   A    
C25   C42   A    
C5    C9    A    
C11   H7    S    
O12   Zn2   S    
C17   O11   A    
C2    C26   A    
C3    C31   A    
C4    C32   A    
C4    C17   S    
C27   H4    S    
O1    Zn1   S    
C7    C19   A    
C13   C15   A    
C29   H2    S    
C9    C34   A    
C27   C36   A    
H11   O5    S    
O7    Zn2   S    
C37   N2    S    
C7    C9    A    
C1    C20   S    
C16   O10   A    
C15   C42   A    
O10   Zn1   S    
C6    C10   A    
C5    C8    A    
C6    C7    A    
C10   C23   A    
C23   C38   A    
C28   C30   A    
C22   O14   S    
N4    Zn1   S    
C38   C40   A    
N3    Zn2   S    
O11   Zn2   S    
C1    O1    A    
C16   O12   A    
C2    C14   A    
C24   O2    S    
C13   H8    S    
C20   C21   D    
C8    C10   A    
N3    N4    D    
C12   O9    A    
C26   O3    S    
C25   O4    S    
C4    C30   A    
C3    C16   S    
C19   C41   A    
C6    C13   A    
