data_mof_unit_28519.cif
_audit_creation_date              2012-12-10T18:31:48-0500
_audit_creation_method            fapswitch 2.2
_symmetry_space_group_name_H-M    P1
_symmetry_Int_Tables_number       1
_space_group_crystal_system       triclinic
_cell_length_a                    10.630124
_cell_length_b                    14.953761
_cell_length_c                    15.236115
_cell_angle_alpha                 81.497786
_cell_angle_beta                  89.718077
_cell_angle_gamma                 104.044235
_cell_volume                      2321.61998226

loop_
_atom_site_label
_atom_site_type_symbol
_atom_type_description
_atom_site_fract_x
_atom_site_fract_y
_atom_site_fract_z
_atom_type_partial_charge
C1    C     C_R   0.481134 0.441300 0.662938 0.858405
C2    C     C_3   0.121159 0.500062 0.500750 0.186233
C3    C     C_3   0.068202 0.487409 0.407757 -0.407850
C4    C     C_3   0.103180 0.594427 0.523929 -0.380229
C5    C     C_R   0.478047 0.403568 0.757233 -0.052066
C6    C     C_R   0.559895 0.592144 0.243328 -0.072038
C7    C     C_R   0.407377 0.277725 0.879737 -0.162767
C8    C     C_R   0.409637 0.312116 0.789654 -0.243252
C9    C     C_R   0.545579 0.459910 0.815272 -0.221293
C10   C     C_R   0.550914 0.425370 0.905113 0.023387
C11   C     C_R   0.473034 0.335010 0.938660 0.052494
C12   C     C_R   0.741978 0.500413 0.500526 0.830293
C13   C     C_R   0.615332 0.484107 0.964237 0.041244
C14   C     C_R   0.565371 0.464781 0.052699 -0.041534
C15   C     C_R   0.493576 0.373282 0.086493 -0.324746
C16   C     C_R   0.455300 0.306289 0.030620 0.502595
C17   C     C_R   0.724544 0.561734 0.939691 0.168860
C18   C     C_R   0.755870 0.630061 0.995687 -0.298552
C19   C     C_R   0.686837 0.619936 0.076334 0.140286
C20   C     C_R   0.590681 0.536950 0.104906 0.123786
C21   C     C_R   0.717305 0.689143 0.131532 -0.196919
C22   C     C_R   0.656224 0.674240 0.215883 -0.205553
C23   C     C_R   0.521397 0.558555 0.337003 0.851244
C24   C     C_R   0.520882 0.528691 0.184698 -0.239368
C25   C     C_R   0.723550 0.847399 0.618634 0.072003
C26   C     C_R   0.672298 0.754313 0.607583 0.000354
C27   C     C_R   0.517532 0.795179 0.507892 -0.087171
C28   C     C_R   0.562890 0.890296 0.514455 -0.026280
C29   C     C_R   0.669691 0.916485 0.569415 0.098595
C30   C     C_R   0.505112 0.959659 0.469058 0.097459
C31   C     C_R   0.547832 0.053064 0.485617 0.082781
C32   C     C_R   0.663976 0.078356 0.529804 -0.192493
C33   C     C_R   0.722306 0.011511 0.572116 -0.255493
C34   C     C_R   0.257870 0.499649 0.500334 0.817415
C35   C     C_R   0.407063 0.939493 0.407362 -0.238635
C36   C     C_R   0.349309 0.008044 0.366932 -0.192068
C37   C     C_R   0.380151 0.096738 0.391342 0.116183
C38   C     C_R   0.475277 0.118966 0.454722 -0.126686
C39   C     C_R   0.315196 0.163111 0.354028 -0.327676
C40   C     C_R   0.342269 0.249909 0.381617 -0.102574
C41   C     C_R   0.488403 0.205120 0.487081 0.592684
C42   C     C_3   0.899644 0.420328 0.571370 -0.384721
C43   C     C_3   0.043953 0.419686 0.571087 -0.417102
C44   C     C_3   0.924061 0.488225 0.407825 -0.395809
C45   C     C_3   0.960475 0.594918 0.524205 -0.398990
C46   C     C_3   0.878722 0.501103 0.501032 0.170911
H1    H     H_    0.841335 0.351955 0.556787 0.202050
H2    H     H_    0.158002 0.653735 0.474438 0.171677
H3    H     H_    0.909294 0.545848 0.356810 0.159878
H4    H     H_    0.123769 0.544579 0.356645 0.154549
H5    H     H_    0.438818 0.470236 0.204845 0.146519
H6    H     H_    0.688835 0.724024 0.260897 0.155843
H7    H     H_    0.836483 0.690491 0.977399 0.143510
H8    H     H_    0.348931 0.208103 0.903468 0.181210
H9    H     H_    0.352407 0.268857 0.746261 0.143607
H10   H     H_    0.584624 0.533010 0.791229 0.150275
H11   H     H_    0.867226 0.428896 0.638576 0.161560
H12   H     H_    0.467778 0.351777 0.156374 0.166255
H13   H     H_    0.792753 0.752314 0.111374 0.136693
H14   H     H_    0.809159 0.035823 0.607160 0.141919
H15   H     H_    0.295530 0.302819 0.351374 0.157185
H16   H     H_    0.276524 0.990475 0.318537 0.140693
H17   H     H_    0.712580 0.698783 0.639546 0.147201
H18   H     H_    0.439541 0.769038 0.466605 0.134767
H19   H     H_    0.081947 0.427918 0.638161 0.157846
H20   H     H_    0.712965 0.150295 0.531315 0.194983
H21   H     H_    0.375164 0.872070 0.386719 0.132055
H22   H     H_    0.244787 0.148194 0.303639 0.173252
H23   H     H_    0.054694 0.351183 0.556157 0.179516
H24   H     H_    0.866280 0.421494 0.389339 0.183306
H25   H     H_    0.079396 0.420241 0.389570 0.176520
H26   H     H_    0.946845 0.654336 0.474878 0.180157
H27   H     H_    0.929496 0.605832 0.590982 0.170945
H28   H     H_    0.141031 0.605466 0.590572 0.179529
N1    N     N_R   0.573860 0.731700 0.552730 -0.120642
N2    N     N_R   0.426060 0.268290 0.447230 -0.129239
O1    O     O_R   0.462770 0.383110 0.605620 -0.571593
O2    O     O_R   0.510160 0.531900 0.639510 -0.621697
O3    O     O_R   0.661510 0.425600 0.483070 -0.582420
O4    O     O_R   0.708900 0.574390 0.516960 -0.635332
O5    O     O_R   0.489840 0.468100 0.360490 -0.616162
O6    O     O_R   0.537230 0.616890 0.394380 -0.610306
O7    O     O_R   0.291100 0.425610 0.483040 -0.629870
O8    O     O_R   0.338490 0.574400 0.516930 -0.626073
Zn1   Zn    Zn3+2 0.468350 0.400660 0.477370 0.962517
Zn2   Zn    Zn3+2 0.531650 0.599340 0.522630 0.921183
O9    O     O_3   0.380198 0.218273 0.064310 -0.618155
C47   C     C_3   0.457685 0.168035 0.115776 -0.338553
H29   H     H_    0.484768 0.196854 0.178157 0.176989
H30   H     H_    0.546163 0.166149 0.077313 0.160197
H31   H     H_    0.400456 0.094970 0.135001 0.194785
C48   C     C_3   0.823471 0.565851 0.865233 -0.420402
C49   C     C_3   0.876911 0.478934 0.875981 -0.848815
H32   H     H_    0.916740 0.467589 0.942855 0.263346
H33   H     H_    0.800216 0.416300 0.866826 0.261819
H34   H     H_    0.956018 0.488242 0.825034 0.240450
H35   H     H_    0.785733 0.577047 0.798245 0.192014
H36   H     H_    0.907882 0.626528 0.865889 0.210669
O10   O     O_3   0.556977 0.225791 0.561205 -0.614184
C50   C     C_3   0.481990 0.175246 0.637352 -0.324147
H37   H     H_    0.476763 0.099481 0.643774 0.162880
H38   H     H_    0.381835 0.185767 0.637100 0.153083
H39   H     H_    0.529607 0.200054 0.696864 0.199383
C51   C     C_3   0.834680 0.874158 0.680361 -0.404452
C52   C     C_3   0.873725 0.793182 0.737787 -0.941611
H40   H     H_    0.788838 0.748668 0.779142 0.261350
H41   H     H_    0.913909 0.751131 0.695791 0.254481
H42   H     H_    0.950135 0.821141 0.782922 0.257237
H43   H     H_    0.921683 0.916994 0.639942 0.209484
H44   H     H_    0.805846 0.917322 0.726625 0.212942

loop_
_geom_bond_atom_site_label_1
_geom_bond_atom_site_label_2
_ccdc_geom_bond_type
C44   H3    S    
O9    C47   S    
C49   H32   S    
C23   O6    A    
C1    O1    A    
C39   H22   S    
C2    C4    S    
C19   C20   A    
C48   H36   S    
C7    C8    A    
C45   C46   S    
C7    C11   A    
C52   H41   S    
C30   C35   A    
C1    C5    S    
C22   H6    S    
C36   C37   A    
C19   C21   A    
O8    Zn2   S    
C21   H13   S    
C51   H43   S    
C27   N1    A    
C15   C16   A    
C6    C22   A    
C12   O3    A    
C29   C33   A    
C42   H11   S    
C45   H27   S    
C18   C19   A    
C42   C46   S    
C48   C49   S    
O4    Zn2   S    
C18   H7    S    
C20   C24   A    
C16   O9    S    
C41   O10   S    
C44   H24   S    
C9    C10   A    
C4    H28   S    
O2    Zn2   S    
C24   H5    S    
O1    Zn1   S    
C43   H23   S    
C21   C22   A    
C45   H26   S    
C1    O2    A    
C17   C48   S    
C34   O8    A    
C36   H16   S    
C8    H9    S    
C51   C52   S    
C3    H4    S    
C44   C46   S    
C48   H35   S    
C17   C18   A    
C4    C45   S    
C25   C29   A    
C52   H42   S    
C3    C44   S    
C14   C20   A    
C38   C41   A    
C12   C46   S    
C10   C11   A    
C39   C40   A    
C25   C26   A    
O6    Zn2   S    
C50   H39   S    
C40   H15   S    
C40   N2    A    
C35   C36   A    
C3    H25   S    
C26   H17   S    
C5    C9    A    
C37   C38   A    
C11   C16   A    
N1    Zn2   S    
C31   C32   A    
C47   H31   S    
C35   H21   S    
C2    C43   S    
C43   H19   S    
C6    C24   A    
C50   H38   S    
C26   N1    A    
C9    H10   S    
O7    Zn1   S    
C47   H30   S    
C33   H14   S    
C15   H12   S    
C34   O7    A    
O3    Zn1   S    
C32   H20   S    
C4    H2    S    
C28   C29   A    
C23   O5    A    
C10   C13   A    
C5    C8    A    
C25   C51   S    
C49   H34   S    
C52   H40   S    
C31   C38   A    
C13   C17   A    
C32   C33   A    
C28   C30   A    
C2    C3    S    
C37   C39   A    
O10   C50   S    
C41   N2    A    
C51   H44   S    
C2    C34   S    
C30   C31   A    
C6    C23   S    
C12   O4    A    
C50   H37   S    
C42   H1    S    
C27   H18   S    
C47   H29   S    
C49   H33   S    
C42   C43   S    
C27   C28   A    
C14   C15   A    
C7    H8    S    
C13   C14   A    
N2    Zn1   S    
O5    Zn1   S    
