data_mof_unit_63656.cif
_audit_creation_date              2012-12-10T21:15:17-0500
_audit_creation_method            fapswitch 2.2
_symmetry_space_group_name_H-M    P1
_symmetry_Int_Tables_number       1
_space_group_crystal_system       triclinic
_cell_length_a                    17.488541
_cell_length_b                    16.7431
_cell_length_c                    14.172642
_cell_angle_alpha                 89.959773
_cell_angle_beta                  90.151692
_cell_angle_gamma                 90.000799
_cell_volume                      4149.90962088

loop_
_atom_site_label
_atom_site_type_symbol
_atom_type_description
_atom_site_fract_x
_atom_site_fract_y
_atom_site_fract_z
_atom_type_partial_charge
C1    C     C_R   0.353318 0.499933 0.498513 1.072325
C2    C     C_R   0.646682 0.499931 0.498451 1.069734
C3    C     C_1   0.965987 0.462633 0.479481 0.213144
C4    C     C_1   0.033964 0.462611 0.479520 0.213190
C5    C     C_R   0.449493 0.832355 0.442205 -0.252770
C6    C     C_R   0.551155 0.167679 0.557020 -0.253891
C7    C     C_R   0.550581 0.832265 0.557763 -0.248985
C8    C     C_R   0.448899 0.167706 0.443033 -0.252798
C9    C     C_R   0.450384 0.748132 0.443240 0.047507
C10   C     C_R   0.550215 0.251903 0.555989 0.028679
C11   C     C_R   0.549653 0.748044 0.556731 0.043374
C12   C     C_R   0.449801 0.251927 0.444035 0.026830
C13   C     C_R   0.500042 0.875573 0.499990 0.147266
C14   C     C_R   0.500037 0.124430 0.500030 0.150640
C15   C     C_1   0.500051 0.963425 0.500010 -0.021455
C16   C     C_1   0.500052 0.036578 0.500027 -0.025845
C17   C     C_R   0.500006 0.499998 0.328734 0.973362
C18   C     C_R   0.500054 0.499975 0.671263 1.019744
C19   C     C_1   0.500022 0.500019 0.227415 -0.122885
C20   C     C_1   0.500082 0.499927 0.772609 -0.089015
C21   C     C_1   0.500038 0.500026 0.142301 0.008399
C22   C     C_1   0.500088 0.499927 0.857725 0.018423
C23   C     C_1   0.500061 0.500000 0.042573 0.031895
C24   C     C_1   0.500077 0.499963 0.957453 0.032512
C25   C     C_R   0.848556 0.457597 0.568754 0.516436
C26   C     C_R   0.151489 0.459786 0.569469 0.515745
C27   C     C_R   0.153869 0.493620 0.402848 0.518848
C28   C     C_R   0.846042 0.495821 0.403456 0.519016
C29   C     C_R   0.770412 0.472643 0.576536 -0.176131
C30   C     C_R   0.229659 0.474944 0.577085 -0.177303
C31   C     C_R   0.232247 0.508956 0.407680 -0.181386
C32   C     C_R   0.767674 0.511091 0.408417 -0.181851
C33   C     C_R   0.729495 0.498590 0.495559 -0.219863
C34   C     C_R   0.270506 0.498646 0.495391 -0.219712
C35   C     C_R   0.885442 0.469169 0.482922 -0.161396
C36   C     C_R   0.114523 0.469112 0.483058 -0.161863
H1    H     H_    0.409589 0.863421 0.396570 0.155162
H2    H     H_    0.591535 0.136636 0.602035 0.150882
H3    H     H_    0.590502 0.863261 0.603392 0.152699
H4    H     H_    0.408534 0.136686 0.398027 0.150441
H5    H     H_    0.411230 0.715427 0.398437 0.168769
H6    H     H_    0.589814 0.284648 0.600172 0.133930
H7    H     H_    0.588804 0.715259 0.601518 0.142881
H8    H     H_    0.410193 0.284686 0.399837 0.130248
N1    N     N_R   0.500000 0.707230 0.500000 -0.095470
N2    N     N_R   0.500000 0.292770 0.500000 -0.090161
O1    O     O_R   0.389110 0.566570 0.500000 -0.571823
O2    O     O_R   0.610890 0.433430 0.500000 -0.638367
O3    O     O_R   0.610890 0.566570 0.500000 -0.570633
O4    O     O_R   0.389110 0.433430 0.500000 -0.639749
O5    O     O_R   0.500000 0.566560 0.373710 -0.554985
O6    O     O_R   0.500000 0.433440 0.626290 -0.609055
O7    O     O_R   0.500000 0.566560 0.626290 -0.605792
O8    O     O_R   0.500000 0.433440 0.373710 -0.636171
Zn1   Zn    Zn3+2 0.500000 0.588860 0.500000 1.036656
Zn2   Zn    Zn3+2 0.500000 0.411140 0.500000 0.961058
F1    F     F_    0.889611 0.434007 0.645577 -0.632131
F2    F     F_    0.110488 0.438304 0.646926 -0.631500
F3    F     F_    0.115095 0.504256 0.320412 -0.633966
F4    F     F_    0.884755 0.508516 0.321632 -0.633497
C37   C     C_2   0.734277 0.461221 0.670507 0.455598
H9    H     H_    0.762231 0.424465 0.723439 0.139170
O9    O     O_2   0.674801 0.494748 0.691505 -0.623379
C38   C     C_2   0.265885 0.466032 0.671602 0.473032
H10   H     H_    0.237936 0.430787 0.725775 0.137905
O10   O     O_2   0.325430 0.500032 0.691595 -0.614478
C39   C     C_2   0.271253 0.533893 0.319144 0.432506
H11   H     H_    0.244097 0.522961 0.251427 0.145726
O11   O     O_2   0.332261 0.569117 0.320020 -0.609102
C40   C     C_2   0.728625 0.538036 0.320450 0.445967
H12   H     H_    0.755872 0.528845 0.252603 0.142394
O12   O     O_2   0.667474 0.572959 0.321979 -0.584688

loop_
_geom_bond_atom_site_label_1
_geom_bond_atom_site_label_2
_ccdc_geom_bond_type
C10   N2    A    
C7    C11   A    
C23   C24   T    
C6    H2    S    
C6    C10   A    
C9    N1    A    
C40   H12   S    
C2    O3    A    
C30   C38   S    
C27   C36   A    
C10   H6    S    
C1    O4    A    
C9    H5    S    
C18   O7    A    
C13   C15   S    
C3    C35   S    
C8    C12   A    
C32   C33   A    
C17   O5    A    
C32   C40   S    
O7    Zn1   S    
C31   C34   A    
C18   O6    A    
C12   H8    S    
C29   C37   S    
C27   F3    S    
C38   H10   S    
C31   C39   S    
C26   F2    S    
N1    Zn1   S    
C5    C9    A    
C28   F4    S    
C25   F1    S    
C25   C35   A    
C22   C24   S    
O1    Zn1   S    
C17   C19   S    
C20   C22   T    
C1    C34   S    
C26   C30   A    
C28   C35   A    
C14   C16   S    
C21   C23   S    
C25   C29   A    
C37   H9    S    
O8    Zn2   S    
C11   H7    S    
C11   N1    A    
C6    C14   A    
C5    H1    S    
C30   C34   A    
C39   O11   D    
C27   C31   A    
C39   H11   S    
C29   C33   A    
C7    C13   A    
C4    C36   S    
C2    C33   S    
C18   C20   S    
C12   N2    A    
C26   C36   A    
O2    Zn2   S    
C7    H3    S    
C1    O1    A    
C40   O12   D    
C8    C14   A    
C8    H4    S    
O5    Zn1   S    
C2    O2    A    
O3    Zn1   S    
O6    Zn2   S    
C5    C13   A    
C17   O8    A    
C28   C32   A    
O4    Zn2   S    
C3    C4    T    
C15   C16   T    
C37   O9    D    
C38   O10   D    
C19   C21   T    
N2    Zn2   S    
