data_mof_unit_54442.cif
_audit_creation_date              2013-03-05T16:45:51-0500
_audit_creation_method            fapswitch 2.2
_symmetry_space_group_name_H-M    P1
_symmetry_Int_Tables_number       1
_space_group_crystal_system       triclinic
_cell_length_a                    18.337818
_cell_length_b                    18.31595
_cell_length_c                    18.338767
_cell_angle_alpha                 59.943505
_cell_angle_beta                  60.11629
_cell_angle_gamma                 59.942244
_cell_volume                      4355.48255988

loop_
_atom_site_label
_atom_site_type_symbol
_atom_site_description
_atom_site_fract_x
_atom_site_fract_y
_atom_site_fract_z
_atom_type_partial_charge
Zn1   Zn    Zn3+2 0.206620 0.206630 0.380140 0.972905
Zn2   Zn    Zn3+2 0.793380 0.793370 0.619860 0.972924
Zn3   Zn    Zn3+2 0.206630 0.380140 0.206620 0.970624
Zn4   Zn    Zn3+2 0.793370 0.619860 0.793380 0.970627
Zn5   Zn    Zn3+2 0.380140 0.206620 0.206630 0.961025
Zn6   Zn    Zn3+2 0.619860 0.793380 0.793370 0.961024
Zn7   Zn    Zn3+2 0.206620 0.206620 0.206620 0.991737
Zn8   Zn    Zn3+2 0.793380 0.793380 0.793380 0.991661
O1    O     O_3   0.250000 0.250000 0.250000 -0.493165
O2    O     O_3   0.750000 0.750000 0.750000 -0.493156
O3    O     O_R   0.305080 0.134200 0.134200 -0.618950
O4    O     O_R   0.694920 0.865800 0.865800 -0.619039
O5    O     O_R   0.134200 0.134200 0.305080 -0.627107
O6    O     O_R   0.865800 0.865800 0.694920 -0.627124
O7    O     O_R   0.134200 0.305080 0.134200 -0.630525
O8    O     O_R   0.865800 0.694920 0.865800 -0.630562
O9    O     O_R   0.134200 0.305090 0.426530 -0.638725
O10   O     O_R   0.865800 0.694910 0.573470 -0.638721
O11   O     O_R   0.305090 0.426530 0.134200 -0.646687
O12   O     O_R   0.694910 0.573470 0.865800 -0.646675
O13   O     O_R   0.426530 0.134200 0.305090 -0.648958
O14   O     O_R   0.573470 0.865800 0.694910 -0.648969
O15   O     O_R   0.134190 0.426530 0.134200 -0.620506
O16   O     O_R   0.865810 0.573470 0.865800 -0.620487
O17   O     O_R   0.426530 0.134200 0.134190 -0.642516
O18   O     O_R   0.573470 0.865800 0.865810 -0.642477
O19   O     O_R   0.134200 0.134190 0.426530 -0.634321
O20   O     O_R   0.865800 0.865810 0.573470 -0.634309
O21   O     O_R   0.426530 0.305080 0.134210 -0.632879
O22   O     O_R   0.573470 0.694920 0.865790 -0.632900
O23   O     O_R   0.305080 0.134210 0.426530 -0.625659
O24   O     O_R   0.694920 0.865790 0.573470 -0.625652
O25   O     O_R   0.134210 0.426530 0.305080 -0.646922
O26   O     O_R   0.865790 0.573470 0.694920 -0.646919
C1    C     C_R   0.389835 0.110137 0.110156 0.773660
C2    C     C_R   0.610165 0.889865 0.889842 0.773687
C3    C     C_R   0.110126 0.110167 0.389819 0.777020
C4    C     C_R   0.889873 0.889834 0.610181 0.777029
C5    C     C_R   0.110116 0.389913 0.110190 0.778593
C6    C     C_R   0.889884 0.610087 0.889810 0.778601
C7    C     C_R   0.110751 0.390681 0.389512 0.789069
C8    C     C_R   0.889252 0.609319 0.610488 0.789071
C9    C     C_R   0.390382 0.389819 0.108770 0.796605
C10   C     C_R   0.609617 0.610181 0.891229 0.796579
C11   C     C_R   0.389846 0.111557 0.390205 0.784565
C12   C     C_R   0.610154 0.888442 0.609796 0.784584
H1    H     H_    0.818560 0.277775 0.555560 0.134612
H2    H     H_    0.181443 0.722221 0.444450 0.134564
H3    H     H_    0.287030 0.528777 0.808247 0.135850
H4    H     H_    0.712972 0.471220 0.191752 0.135813
H5    H     H_    0.547160 0.813164 0.281018 0.131861
H6    H     H_    0.452820 0.186831 0.718987 0.131831
C13   C     C_R   0.176284 0.930427 0.390891 -0.127595
C14   C     C_R   0.823717 0.069571 0.609115 -0.127628
C15   C     C_R   0.925674 0.405112 0.182005 -0.126102
C16   C     C_R   0.074327 0.594887 0.817994 -0.126110
C17   C     C_R   0.395119 0.179030 0.928869 -0.087276
C18   C     C_R   0.604871 0.820969 0.071133 -0.087471
C19   C     C_R   0.209049 0.843561 0.390567 -0.099745
C20   C     C_R   0.790953 0.156437 0.609441 -0.099631
C21   C     C_R   0.836202 0.412028 0.217566 -0.126129
C22   C     C_R   0.163799 0.587970 0.782433 -0.126157
C23   C     C_R   0.397227 0.213330 0.841010 -0.090159
C24   C     C_R   0.602758 0.786666 0.158993 -0.090654
C25   C     C_R   0.155584 0.789957 0.444269 -0.145011
C26   C     C_R   0.844417 0.210040 0.555738 -0.145052
C27   C     C_R   0.782579 0.465592 0.163843 -0.126868
C28   C     C_R   0.217422 0.534405 0.836156 -0.126847
C29   C     C_R   0.450844 0.159824 0.787427 -0.128335
C30   C     C_R   0.549140 0.840172 0.212577 -0.128485
C31   C     C_R   0.069085 0.822964 0.498535 -0.145142
C32   C     C_R   0.930915 0.177036 0.501469 -0.145173
C33   C     C_R   0.818166 0.512470 0.074279 -0.124005
C34   C     C_R   0.181835 0.487528 0.925720 -0.123995
C35   C     C_R   0.502645 0.071754 0.821418 -0.138129
C36   C     C_R   0.497345 0.928245 0.178584 -0.138258
C37   C     C_R   0.033598 0.911636 0.499026 0.080134
C38   C     C_R   0.966401 0.088365 0.500976 0.080141
C39   C     C_R   0.909113 0.506039 0.036385 0.090255
C40   C     C_R   0.090888 0.493960 0.963614 0.090241
C41   C     C_R   0.501015 0.034948 0.910850 0.117466
C42   C     C_R   0.498979 0.965052 0.089149 0.117090
C43   C     C_R   0.087999 0.966150 0.444437 0.070066
C44   C     C_R   0.912000 0.033850 0.555566 0.070041
C45   C     C_R   0.963587 0.451667 0.090980 0.085291
C46   C     C_R   0.036414 0.548332 0.909019 0.085295
C47   C     C_R   0.446481 0.089371 0.965351 0.119047
C48   C     C_R   0.553513 0.910630 0.034649 0.118957
C49   C     C_R   0.946015 0.945924 0.554134 -0.145084
C50   C     C_R   0.053984 0.054076 0.445866 -0.145082
C51   C     C_R   0.946009 0.553884 0.945886 -0.125927
C52   C     C_R   0.053992 0.446115 0.054114 -0.125934
C53   C     C_R   0.554080 0.945994 0.945940 -0.115566
C54   C     C_R   0.445918 0.054008 0.054058 -0.115733
H7    H     H_    0.221318 0.968606 0.349235 0.136797
H8    H     H_    0.778683 0.031392 0.650772 0.136842
H9    H     H_    0.964356 0.363418 0.226793 0.119892
H10   H     H_    0.035645 0.636580 0.773206 0.119893
H11   H     H_    0.353543 0.223952 0.967215 0.115994
H12   H     H_    0.646448 0.776047 0.032785 0.116028
H13   H     H_    0.276497 0.817527 0.348973 0.171974
H14   H     H_    0.723506 0.182468 0.651039 0.172206
H15   H     H_    0.808285 0.375998 0.287238 0.136215
H16   H     H_    0.191717 0.623999 0.712761 0.136211
H17   H     H_    0.357560 0.281963 0.814228 0.133101
H18   H     H_    0.642421 0.718032 0.185777 0.133127
H19   H     H_    0.030994 0.777821 0.540369 0.127697
H20   H     H_    0.969005 0.222179 0.459634 0.127707
H21   H     H_    0.773457 0.554056 0.035514 0.119162
H22   H     H_    0.226545 0.445942 0.964485 0.119176
H23   H     H_    0.544343 0.033445 0.776490 0.121212
H24   H     H_    0.455646 0.966553 0.223512 0.121260
H25   H     H_    0.214209 0.723273 0.080722 0.183460
H26   H     H_    0.785864 0.276723 0.919311 0.183461
H27   H     H_    0.702428 0.062442 0.034746 0.193763
H28   H     H_    0.297430 0.937791 0.964426 0.193807
H29   H     H_    0.098829 0.280831 0.673425 0.165975
H30   H     H_    0.901173 0.719156 0.326596 0.165971
C55   C     C_R   0.208591 0.657845 0.217254 -0.182079
C56   C     C_R   0.791464 0.342126 0.782784 -0.182058
C57   C     C_R   0.672917 0.162120 0.083398 -0.156017
C58   C     C_R   0.327066 0.837827 0.916081 -0.155828
C59   C     C_R   0.225028 0.269895 0.568941 -0.179347
C60   C     C_R   0.774960 0.730098 0.431059 -0.179348
H31   H     H_    0.262109 0.676032 0.205865 0.171388
H32   H     H_    0.737951 0.323923 0.794188 0.171419
H33   H     H_    0.707408 0.114950 0.131575 0.192839
H34   H     H_    0.292646 0.884858 0.867826 0.192816
H35   H     H_    0.209827 0.341659 0.537406 0.144301
H36   H     H_    0.790151 0.658335 0.462584 0.144304
C61   C     C_R   0.166806 0.608238 0.302889 -0.162065
C62   C     C_R   0.833236 0.391732 0.697140 -0.162041
C63   C     C_R   0.631654 0.252253 0.076553 -0.114556
C64   C     C_R   0.368360 0.747636 0.923146 -0.114567
C65   C     C_R   0.307443 0.212414 0.532234 -0.120888
C66   C     C_R   0.692544 0.787583 0.467760 -0.120940
H37   H     H_    0.188049 0.588829 0.357473 0.134451
H38   H     H_    0.811985 0.411124 0.642567 0.134479
H39   H     H_    0.634330 0.274306 0.119773 0.152278
H40   H     H_    0.365780 0.725398 0.880014 0.152209
H41   H     H_    0.355809 0.240261 0.472425 0.109941
H42   H     H_    0.644167 0.759739 0.527556 0.109956
C67   C     C_R   0.096929 0.585065 0.318300 0.076180
C68   C     C_R   0.903107 0.414926 0.681708 0.076168
C69   C     C_R   0.586175 0.313421 0.014883 0.077257
C70   C     C_R   0.413758 0.686645 0.984910 0.077207
C71   C     C_R   0.327167 0.119354 0.572497 0.092758
C72   C     C_R   0.672832 0.880642 0.427507 0.092725
C73   C     C_R   0.068893 0.612770 0.247017 -0.158513
C74   C     C_R   0.931153 0.387241 0.752978 -0.158557
C75   C     C_R   0.583190 0.283880 0.959344 -0.260429
C76   C     C_R   0.416622 0.716425 0.040331 -0.260255
C77   C     C_R   0.264002 0.084568 0.650655 -0.232831
C78   C     C_R   0.736010 0.915425 0.349368 -0.232764
H43   H     H_    0.013792 0.596119 0.259576 0.158107
H44   H     H_    0.986251 0.403908 0.740401 0.158105
H45   H     H_    0.547950 0.331646 0.911843 0.164802
H46   H     H_    0.451801 0.668797 0.087905 0.164733
H47   H     H_    0.279690 0.012676 0.681685 0.169948
H48   H     H_    0.720331 0.987315 0.318347 0.170042
C79   C     C_R   0.111817 0.661248 0.160184 0.403240
C80   C     C_R   0.888242 0.338765 0.839819 0.403247
C81   C     C_R   0.625292 0.193243 0.965283 0.364011
C82   C     C_R   0.374498 0.807129 0.034160 0.364168
C83   C     C_R   0.180776 0.142021 0.687980 0.355297
C84   C     C_R   0.819238 0.857968 0.312050 0.355278
C85   C     C_R   0.181111 0.684580 0.146376 -0.170007
C86   C     C_R   0.818952 0.315414 0.853649 -0.170014
C87   C     C_R   0.669803 0.132618 0.028265 -0.154004
C88   C     C_R   0.330071 0.867571 0.971085 -0.153949
C89   C     C_R   0.162048 0.235054 0.646232 -0.175257
C90   C     C_R   0.837954 0.764936 0.353785 -0.175245
C91   C     C_R   0.993745 0.589244 0.467392 -0.264692
C92   C     C_R   0.006266 0.410755 0.532608 -0.264706
C93   C     C_R   0.591522 0.463899 0.959027 -0.249925
C94   C     C_R   0.408474 0.536102 0.040984 -0.249965
C95   C     C_R   0.469319 0.999824 0.586663 -0.258800
C96   C     C_R   0.530681 0.000174 0.413338 -0.258760
H49   H     H_    0.989538 0.658516 0.441819 0.186504
H50   H     H_    0.010474 0.341483 0.558182 0.186499
H51   H     H_    0.662298 0.435721 0.926630 0.179569
H52   H     H_    0.337694 0.564281 0.073362 0.179588
H53   H     H_    0.446294 0.001416 0.653190 0.168002
H54   H     H_    0.553706 0.998581 0.346811 0.168010
C97   C     C_R   0.945544 0.551649 0.555943 -0.063371
C98   C     C_R   0.054466 0.448351 0.444057 -0.063372
C99   C     C_R   0.552465 0.555048 0.948381 -0.058670
C100  C     C_R   0.447531 0.444955 0.051626 -0.058669
C101  C     C_R   0.554374 0.942879 0.553247 -0.049594
C102  C     C_R   0.445625 0.057119 0.446753 -0.049603
C103  C     C_R   0.952151 0.460790 0.589392 0.009534
C104  C     C_R   0.047865 0.539207 0.410609 0.009529
C105  C     C_R   0.459674 0.591626 0.990462 0.021004
C106  C     C_R   0.540312 0.408385 0.009519 0.021032
C107  C     C_R   0.585396 0.942219 0.465766 0.024449
C108  C     C_R   0.414603 0.057778 0.534235 0.024460
N1    N     N_R   0.084783 0.687180 0.086767 0.224340
O27   O     O_R   0.124131 0.732517 0.006506 -0.357229
O28   O     O_R   0.021719 0.664268 0.099134 -0.378076
N2    N     N_R   0.915288 0.312852 0.913221 0.224346
O29   O     O_R   0.875964 0.267504 0.993489 -0.357177
O30   O     O_R   0.978341 0.335793 0.900835 -0.378073
N3    N     N_R   0.623090 0.163040 0.907700 0.193949
O31   O     O_R   0.660774 0.079010 0.914127 -0.402853
O32   O     O_R   0.584806 0.219513 0.847166 -0.441782
N4    N     N_R   0.376610 0.837592 0.091587 0.194082
O33   O     O_R   0.338979 0.921695 0.084889 -0.402525
O34   O     O_R   0.414794 0.781294 0.152224 -0.441668
N5    N     N_R   0.115800 0.106101 0.767539 0.218247
O35   O     O_R   0.037586 0.159087 0.800448 -0.366841
O36   O     O_R   0.133998 0.020011 0.807581 -0.362132
N6    N     N_R   0.884228 0.893883 0.232510 0.218243
O37   O     O_R   0.962450 0.840895 0.199618 -0.366857
O38   O     O_R   0.866036 0.979973 0.192467 -0.362021

loop_
_geom_bond_atom_site_label_1
_geom_bond_atom_site_label_2
_geom_bond_distance
_ccdc_geom_bond_type
C83   C89   1.405929 A    
Zn7   O5    1.938912 S    
C57   C87   1.397590 A    
N3    O31   1.301638 A    
C62   C68   1.402055 A    
C63   C69   1.401590 A    
C42   C54   1.414602 A    
H3    C28   1.082564 S    
C31   H19   1.081330 S    
C13   H7    1.081335 S    
C82   N4    1.439731 S    
C82   C88   1.407164 A    
O26   C8    1.270621 A    
C16   H10   1.081946 S    
H27   C87   1.082430 S    
C64   C70   1.401597 A    
C14   C44   1.418333 A    
C13   C19   1.393109 A    
Zn3   O25   1.939818 S    
C14   C20   1.393108 A    
C38   C50   1.415345 A    
C84   C90   1.405926 A    
N3    O32   1.301576 A    
C4    C49   1.455715 S    
C81   N3    1.439731 S    
Zn5   O1    1.949696 S    
C3    C50   1.455716 S    
O14   C12   1.282815 A    
C61   H37   1.083288 S    
C75   H45   1.083071 S    
C95   C108  1.389229 A    
C11   C102  1.454460 S    
C57   H33   1.082535 S    
C46   C51   1.413837 A    
O10   C8    1.285663 A    
C64   H40   1.083102 S    
Zn4   O16   1.935814 S    
C56   H32   1.082241 S    
C15   C45   1.417223 A    
Zn2   O10   1.936875 S    
C91   H49   1.085200 S    
C28   C34   1.393340 A    
C17   H11   1.081538 S    
C47   C54   1.414400 A    
C80   N2    1.439695 S    
Zn1   O23   1.935022 S    
Zn2   O24   1.935025 S    
N1    O28   1.301688 A    
C21   C27   1.389545 A    
C58   C64   1.396206 A    
C68   C74   1.405208 A    
H6    C29   1.082596 S    
C84   N6    1.439673 S    
C73   C79   1.406600 A    
Zn3   O15   1.935816 S    
C2    C53   1.455653 S    
C26   C32   1.393174 A    
C32   H20   1.081329 S    
N2    O29   1.301627 A    
C58   C88   1.397580 A    
C96   H54   1.085165 S    
C67   C73   1.405209 A    
C32   C38   1.418230 A    
C67   C104  1.481781 S    
Zn3   O11   1.939769 S    
C27   C33   1.393340 A    
H5    C30   1.082595 S    
O20   C4    1.276424 A    
C94   C105  1.385649 A    
O4    C2    1.276660 A    
C81   C87   1.407153 A    
H4    C27   1.082564 S    
H1    C26   1.082680 S    
O5    C3    1.276480 A    
C42   C48   1.412812 A    
C102  C108  1.414443 A    
C92   C103  1.387167 A    
C93   H51   1.082402 S    
C75   C81   1.408061 A    
C77   C83   1.406007 A    
Zn7   O7    1.933635 S    
C20   C26   1.388744 A    
Zn8   O8    1.933637 S    
C34   C40   1.417242 A    
C59   H35   1.082593 S    
C58   H34   1.082544 S    
O22   C10   1.272078 A    
C72   C78   1.404319 A    
O13   C11   1.282819 A    
C20   H14   1.082784 S    
O12   C10   1.284417 A    
C45   C52   1.413837 A    
O11   C9    1.284396 A    
C97   C103  1.417705 A    
C19   C25   1.388743 A    
C22   H16   1.082629 S    
C18   C24   1.393017 A    
C74   C80   1.406593 A    
Zn4   O26   1.939816 S    
C95   C101  1.397955 A    
C60   C66   1.395668 A    
H28   C88   1.082445 S    
C39   C51   1.413605 A    
C19   H13   1.082783 S    
Zn1   O1    1.949824 S    
C23   C29   1.389026 A    
C18   H12   1.081540 S    
C36   C42   1.417408 A    
N4    O33   1.301644 A    
C35   C41   1.417407 A    
C95   H53   1.085166 S    
C93   C99   1.397614 A    
C17   C47   1.417553 A    
C59   C65   1.395667 A    
C69   C75   1.403682 A    
C40   C52   1.413605 A    
Zn7   O3    1.938887 S    
C24   C30   1.389028 A    
C78   H48   1.083284 S    
C16   C46   1.417223 A    
Zn3   O1    1.943976 S    
O6    C4    1.276478 A    
C41   C53   1.414606 A    
H29   C89   1.079207 S    
C72   C107  1.481653 S    
C55   C61   1.395693 A    
C60   C90   1.396826 A    
H30   C90   1.079213 S    
C36   H24   1.081528 S    
C91   C97   1.397067 A    
C15   H9    1.081946 S    
N5    O35   1.301147 A    
C33   C39   1.417241 A    
C60   H36   1.082590 S    
C71   C108  1.481660 S    
C79   C85   1.405833 A    
N6    O37   1.301146 A    
C70   C105  1.479249 S    
H26   C86   1.080840 S    
O7    C5    1.274458 A    
C69   C106  1.479199 S    
C66   C72   1.403259 A    
C66   H42   1.083133 S    
O8    C6    1.274458 A    
C76   H46   1.083073 S    
C70   C76   1.403720 A    
C55   H31   1.082245 S    
C8    C97   1.455703 S    
O18   C2    1.276141 A    
Zn6   O22   1.936889 S    
O17   C1    1.276146 A    
C63   H39   1.083097 S    
C65   C71   1.403262 A    
C30   C36   1.393127 A    
H2    C25   1.082680 S    
Zn5   O17   1.938188 S    
C23   H17   1.082647 S    
C44   C49   1.415287 A    
C12   C101  1.454454 S    
Zn4   O2    1.943979 S    
Zn2   O2    1.949821 S    
Zn5   O21   1.936889 S    
C92   H50   1.085198 S    
C5    C52   1.452387 S    
C31   C37   1.418230 A    
C61   C67   1.402059 A    
C77   H47   1.083288 S    
C56   C86   1.396854 A    
O21   C9    1.272091 A    
C1    C54   1.455654 S    
Zn7   O1    1.947804 S    
C43   C50   1.415288 A    
C48   C53   1.414397 A    
O16   C6    1.274623 A    
C94   C100  1.397592 A    
Zn8   O6    1.938914 S    
C93   C106  1.385652 A    
C21   H15   1.082630 S    
C56   C62   1.395687 A    
O24   C12   1.277148 A    
C17   C23   1.393018 A    
N6    O38   1.301595 A    
C76   C82   1.408110 A    
C18   C48   1.417554 A    
H25   C85   1.080851 S    
C24   H18   1.082647 S    
C37   C49   1.415343 A    
C68   C103  1.481771 S    
C79   N1    1.439694 S    
C74   H44   1.083263 S    
C96   C107  1.389227 A    
C91   C104  1.387174 A    
C35   H23   1.081526 S    
C22   C28   1.389545 A    
C13   C43   1.418332 A    
C99   C105  1.416737 A    
O25   C7    1.270618 A    
O3    C1    1.276655 A    
C73   H43   1.083261 S    
C25   C31   1.393174 A    
C92   C98   1.397062 A    
C101  C107  1.414437 A    
C41   C47   1.412813 A    
C83   N5    1.439681 S    
Zn6   O18   1.938185 S    
C9    C100  1.456705 S    
O19   C3    1.276421 A    
C96   C102  1.397961 A    
C15   C21   1.393419 A    
N5    O36   1.301595 A    
C39   C45   1.411852 A    
C7    C98   1.455698 S    
C29   C35   1.393128 A    
C55   C85   1.396852 A    
C16   C22   1.393420 A    
C33   H21   1.081919 S    
C6    C51   1.452387 S    
C98   C104  1.417706 A    
N1    O27   1.301628 A    
C71   C77   1.404327 A    
O9    C7    1.285661 A    
Zn6   O2    1.949698 S    
C94   H52   1.082383 S    
C10   C99   1.456714 S    
C100  C106  1.416686 A    
Zn4   O12   1.939766 S    
C38   C44   1.412702 A    
C40   C46   1.411852 A    
C65   H41   1.083141 S    
Zn5   O13   1.935084 S    
Zn1   O9    1.936876 S    
Zn8   O2    1.947802 S    
O23   C11   1.277147 A    
Zn1   O19   1.938146 S    
C37   C43   1.412701 A    
C80   C86   1.405832 A    
C78   C84   1.406007 A    
Zn2   O20   1.938147 S    
C57   C63   1.396211 A    
C34   H22   1.081919 S    
N4    O34   1.301588 A    
C62   H38   1.083288 S    
C14   H8    1.081336 S    
O15   C5    1.274625 A    
N2    O30   1.301692 A    
C59   C89   1.396832 A    
Zn8   O4    1.938888 S    
Zn6   O14   1.935087 S    
