data_mof_unit_17419.cif
_audit_creation_date              2012-12-11T16:21:25-0500
_audit_creation_method            fapswitch 2.2
_symmetry_space_group_name_H-M    P1
_symmetry_Int_Tables_number       1
_space_group_crystal_system       triclinic
_cell_length_a                    7.276276
_cell_length_b                    36.998988
_cell_length_c                    41.214041
_cell_angle_alpha                 90.000431
_cell_angle_beta                  89.999146
_cell_angle_gamma                 89.999557
_cell_volume                      11095.4317982

loop_
_atom_site_label
_atom_site_type_symbol
_atom_type_description
_atom_site_fract_x
_atom_site_fract_y
_atom_site_fract_z
_atom_type_partial_charge
O1    O     O_R   0.564240 0.782760 0.216890 -0.535880
O2    O     O_R   0.435760 0.217240 0.783110 -0.537351
O3    O     O_R   0.435760 0.217240 0.716890 -0.535878
O4    O     O_R   0.564240 0.782760 0.283110 -0.537350
O5    O     O_R   0.064240 0.717240 0.283110 -0.535879
O6    O     O_R   0.935760 0.282760 0.716890 -0.537350
O7    O     O_R   0.935760 0.282760 0.783110 -0.535879
O8    O     O_R   0.064240 0.717240 0.216890 -0.537352
O9    O     O_R   0.234510 0.787070 0.282870 -0.538157
O10   O     O_R   0.765490 0.212930 0.717130 -0.541515
O11   O     O_R   0.765490 0.212930 0.782870 -0.538155
O12   O     O_R   0.234510 0.787070 0.217130 -0.541510
O13   O     O_R   0.734510 0.712930 0.217130 -0.538154
O14   O     O_R   0.265490 0.287070 0.782870 -0.541511
O15   O     O_R   0.265490 0.287070 0.717130 -0.538156
O16   O     O_R   0.734510 0.712930 0.282870 -0.541511
C1    C     C_R   0.402970 0.795630 0.293575 0.702164
C2    C     C_R   0.596803 0.204169 0.706530 0.702411
C3    C     C_R   0.597028 0.204371 0.793575 0.702165
C4    C     C_R   0.403200 0.795832 0.206531 0.702407
C5    C     C_R   0.902973 0.704370 0.206425 0.702171
C6    C     C_R   0.096799 0.295832 0.793470 0.702411
C7    C     C_R   0.097028 0.295629 0.706425 0.702164
C8    C     C_R   0.903199 0.704168 0.293469 0.702403
O17   O     O_3   0.397750 0.727090 0.250000 -0.376526
O18   O     O_3   0.602250 0.272910 0.750000 -0.376526
O19   O     O_3   0.897750 0.772910 0.250000 -0.376525
O20   O     O_3   0.102250 0.227090 0.750000 -0.376526
V1    V     V_3+5 0.122890 0.754250 0.250000 1.401321
V2    V     V_3+5 0.877110 0.245750 0.750000 1.401319
V3    V     V_3+5 0.622890 0.745750 0.250000 1.401320
V4    V     V_3+5 0.377110 0.254250 0.750000 1.401320
C9    C     C_R   0.960537 0.612375 0.428673 0.559679
C10   C     C_R   0.118438 0.388921 0.571657 0.546879
C11   C     C_R   0.039337 0.387614 0.928678 0.559692
C12   C     C_R   0.881588 0.611078 0.071659 0.546873
C13   C     C_R   0.460561 0.887628 0.071330 0.559697
C14   C     C_R   0.618465 0.111078 0.928342 0.546883
C15   C     C_R   0.539754 0.112389 0.571309 0.559702
C16   C     C_R   0.381227 0.888957 0.428318 0.546966
O21   O     O_2   0.935537 0.647871 0.434725 -0.528353
O22   O     O_2   0.173533 0.354643 0.566157 -0.535226
O23   O     O_2   0.064304 0.352117 0.934730 -0.528313
O24   O     O_2   0.826531 0.645358 0.066158 -0.535221
O25   O     O_2   0.435526 0.852133 0.065279 -0.528354
O26   O     O_2   0.673565 0.145356 0.933841 -0.535227
O27   O     O_2   0.565042 0.147876 0.565258 -0.528327
O28   O     O_2   0.325809 0.854697 0.433808 -0.535259
N1    N     N_R   0.970355 0.600418 0.397255 -0.561785
N2    N     N_R   0.069063 0.399265 0.602349 -0.559146
N3    N     N_R   0.029577 0.399573 0.897261 -0.561790
N4    N     N_R   0.930930 0.600732 0.102352 -0.559148
N5    N     N_R   0.470420 0.899585 0.102748 -0.561781
N6    N     N_R   0.569072 0.100735 0.897651 -0.559147
N7    N     N_R   0.529621 0.100440 0.602726 -0.561774
N8    N     N_R   0.430972 0.899277 0.397639 -0.559154
C17   C     C_R   0.003034 0.564737 0.390514 0.562944
C18   C     C_R   0.017093 0.434109 0.608744 0.569818
C19   C     C_R   0.996954 0.435255 0.890519 0.562955
C20   C     C_R   0.982846 0.565885 0.108747 0.569820
C21   C     C_R   0.503150 0.935264 0.109488 0.562935
C22   C     C_R   0.517089 0.065891 0.891258 0.569814
C23   C     C_R   0.496582 0.064771 0.609463 0.562957
C24   C     C_R   0.483352 0.934099 0.391254 0.569767
C25   C     C_R   0.099486 0.635865 0.352603 -0.132381
C26   C     C_R   0.224594 0.371892 0.649094 -0.115361
C27   C     C_R   0.900473 0.364125 0.852608 -0.132385
C28   C     C_R   0.775404 0.628107 0.149096 -0.115360
C29   C     C_R   0.599524 0.864131 0.147398 -0.132392
C30   C     C_R   0.724600 0.128108 0.850906 -0.115368
C31   C     C_R   0.400506 0.135882 0.647384 -0.132374
C32   C     C_R   0.275408 0.871897 0.350902 -0.115386
C33   C     C_R   0.085645 0.661178 0.327724 -0.196612
C34   C     C_R   0.232720 0.346891 0.674432 -0.209751
C35   C     C_R   0.914333 0.338815 0.827727 -0.196662
C36   C     C_R   0.767279 0.653109 0.174434 -0.209750
C37   C     C_R   0.585665 0.838818 0.172275 -0.196617
C38   C     C_R   0.732724 0.153109 0.825567 -0.209750
C39   C     C_R   0.414354 0.161188 0.672268 -0.196700
C40   C     C_R   0.267270 0.846892 0.325566 -0.209753
C41   C     C_R   0.758522 0.665380 0.337182 -0.204204
C42   C     C_R   0.933928 0.323858 0.659020 -0.178875
C43   C     C_R   0.241458 0.334621 0.837183 -0.204142
C44   C     C_R   0.066078 0.676139 0.159022 -0.178881
C45   C     C_R   0.258539 0.834629 0.162821 -0.204198
C46   C     C_R   0.433929 0.176141 0.840980 -0.178876
C47   C     C_R   0.741484 0.165381 0.662817 -0.204149
C48   C     C_R   0.566074 0.823862 0.340976 -0.178879
C49   C     C_R   0.773167 0.640248 0.362899 0.176392
C50   C     C_R   0.923761 0.348929 0.633169 0.160120
C51   C     C_R   0.226795 0.359748 0.862904 0.176321
C52   C     C_R   0.076246 0.651067 0.133171 0.160134
C53   C     C_R   0.273201 0.859763 0.137106 0.176382
C54   C     C_R   0.423764 0.151070 0.866832 0.160121
C55   C     C_R   0.726837 0.140258 0.637093 0.176311
C56   C     C_R   0.576242 0.848935 0.366826 0.160077
C57   C     C_R   0.946881 0.625814 0.370917 0.356058
C58   C     C_R   0.072114 0.373115 0.628355 0.340022
C59   C     C_R   0.053070 0.374177 0.870923 0.356105
C60   C     C_R   0.927887 0.626882 0.128357 0.340023
C61   C     C_R   0.446926 0.874190 0.129087 0.356077
C62   C     C_R   0.572119 0.126885 0.871645 0.340027
C63   C     C_R   0.553111 0.125832 0.629068 0.355997
C64   C     C_R   0.427902 0.873123 0.371637 0.340103
C65   C     C_R   0.007447 0.550988 0.448303 -0.045012
C66   C     C_R   0.056252 0.449671 0.551738 -0.043146
C67   C     C_R   0.992481 0.449004 0.948307 -0.045017
C68   C     C_R   0.943711 0.550324 0.051741 -0.043146
C69   C     C_R   0.507513 0.949014 0.051699 -0.045012
C70   C     C_R   0.556279 0.050329 0.948263 -0.043144
C71   C     C_R   0.492515 0.051012 0.551676 -0.045019
C72   C     C_R   0.443782 0.949689 0.448245 -0.043145
C73   C     C_R   0.975548 0.587844 0.454690 -0.033743
C74   C     C_R   0.110736 0.413757 0.545769 -0.026737
C75   C     C_R   0.024313 0.412146 0.954696 -0.033767
C76   C     C_R   0.889285 0.586241 0.045770 -0.026737
C77   C     C_R   0.475570 0.912159 0.045312 -0.033750
C78   C     C_R   0.610778 0.086242 0.954230 -0.026737
C79   C     C_R   0.524777 0.087856 0.545291 -0.033771
C80   C     C_R   0.388896 0.913796 0.454204 -0.026746
C81   C     C_R   0.959305 0.599432 0.486834 -0.130588
C82   C     C_R   0.156274 0.403398 0.514170 -0.132887
C83   C     C_R   0.040491 0.400556 0.986840 -0.130577
C84   C     C_R   0.843794 0.596603 0.014170 -0.132889
C85   C     C_R   0.459279 0.900571 0.013170 -0.130588
C86   C     C_R   0.656344 0.096601 0.985828 -0.132891
C87   C     C_R   0.541422 0.099431 0.513150 -0.130565
C88   C     C_R   0.342924 0.903463 0.485790 -0.132904
C89   C     C_R   0.023798 0.539487 0.415861 -0.033650
C90   C     C_R   0.010863 0.459962 0.583647 -0.034054
C91   C     C_R   0.976195 0.460506 0.915865 -0.033654
C92   C     C_R   0.989056 0.540031 0.083652 -0.034054
C93   C     C_R   0.523914 0.960513 0.084140 -0.033648
C94   C     C_R   0.510864 0.040039 0.916354 -0.034053
C95   C     C_R   0.475784 0.039524 0.584115 -0.033643
C96   C     C_R   0.489598 0.959955 0.416349 -0.034039
C97   C     C_R   0.915106 0.676631 0.319781 -0.079048
C98   C     C_R   0.087802 0.322563 0.679686 -0.084517
C99   C     C_R   0.084882 0.323368 0.819782 -0.079048
C100  C     C_R   0.912200 0.677436 0.179687 -0.084519
C101  C     C_R   0.415116 0.823371 0.180220 -0.079044
C102  C     C_R   0.587803 0.177437 0.820314 -0.084517
C103  C     C_R   0.584897 0.176634 0.680217 -0.079042
C104  C     C_R   0.412194 0.822565 0.320312 -0.084518
H1    H     H_    0.624746 0.676029 0.330764 0.135673
H2    H     H_    0.823642 0.304868 0.663145 0.142011
H3    H     H_    0.375238 0.323973 0.830765 0.135691
H4    H     H_    0.176366 0.695129 0.163147 0.142011
H5    H     H_    0.124755 0.823983 0.169239 0.135671
H6    H     H_    0.323640 0.195132 0.836855 0.142009
H7    H     H_    0.875260 0.176026 0.669239 0.135701
H8    H     H_    0.676362 0.804871 0.336852 0.142006
H9    H     H_    0.937489 0.627705 0.492489 0.168409
H10   H     H_    0.201403 0.376105 0.508951 0.168629
H11   H     H_    0.062253 0.372282 0.992495 0.168418
H12   H     H_    0.798707 0.623898 0.008951 0.168630
H13   H     H_    0.437427 0.872299 0.007515 0.168412
H14   H     H_    0.701484 0.123893 0.991045 0.168629
H15   H     H_    0.563530 0.127696 0.507496 0.168418
H16   H     H_    0.297469 0.876189 0.490999 0.168618
C105  C     C_R   0.998892 0.511703 0.532523 0.035091
C106  C     C_R   0.062842 0.488867 0.467473 0.035042
C107  C     C_R   0.000991 0.488288 0.032528 0.035090
C108  C     C_R   0.937160 0.511128 0.967476 0.035042
C109  C     C_R   0.498905 0.988298 0.967479 0.035092
C110  C     C_R   0.562938 0.011133 0.032527 0.035042
C111  C     C_R   0.501545 0.011704 0.467467 0.035088
C112  C     C_R   0.436724 0.988907 0.532500 0.035038
C113  C     C_R   0.084493 0.463908 0.493566 0.035383
C114  C     C_R   0.996327 0.537464 0.506788 0.035368
C115  C     C_R   0.915513 0.536088 0.993568 0.035383
C116  C     C_R   0.003543 0.462527 0.006793 0.035368
C117  C     C_R   0.584569 0.036091 0.006434 0.035383
C118  C     C_R   0.496342 0.962538 0.993214 0.035368
C119  C     C_R   0.415084 0.963951 0.506405 0.035379
C120  C     C_R   0.504076 0.037470 0.493197 0.035363
C121  C     C_R   0.046737 0.475207 0.525847 0.064100
C122  C     C_R   0.022524 0.525681 0.474292 0.065063
C123  C     C_R   0.953214 0.524787 0.025851 0.064101
C124  C     C_R   0.977408 0.474312 0.974296 0.065066
C125  C     C_R   0.546776 0.024793 0.974154 0.064098
C126  C     C_R   0.522584 0.974320 0.025709 0.065062
C127  C     C_R   0.453279 0.975227 0.474134 0.064104
C128  C     C_R   0.477451 0.025705 0.525687 0.065071
C129  C     C_R   0.952704 0.521009 0.564841 -0.174290
C130  C     C_R   0.077613 0.478243 0.434564 -0.175308
C131  C     C_R   0.047131 0.478981 0.064848 -0.174290
C132  C     C_R   0.922453 0.521753 0.934567 -0.175310
C133  C     C_R   0.452692 0.978994 0.935162 -0.174288
C134  C     C_R   0.577765 0.021755 0.065435 -0.175307
C135  C     C_R   0.548180 0.020983 0.435162 -0.174298
C136  C     C_R   0.421546 0.978296 0.565406 -0.175320
C137  C     C_R   0.958345 0.495645 0.589773 -0.129867
C138  C     C_R   0.057992 0.503027 0.409384 -0.128762
C139  C     C_R   0.041509 0.504346 0.089778 -0.129868
C140  C     C_R   0.942070 0.496968 0.909388 -0.128761
C141  C     C_R   0.458330 0.004358 0.910230 -0.129869
C142  C     C_R   0.558153 0.996971 0.090616 -0.128767
C143  C     C_R   0.542546 0.995615 0.410234 -0.129882
C144  C     C_R   0.441187 0.003078 0.590588 -0.128782
O29   O     O_2   0.970787 0.443686 0.639257 -0.520859
O30   O     O_2   0.014087 0.553650 0.359387 -0.520817
O31   O     O_2   0.029122 0.556307 0.139261 -0.520858
O32   O     O_2   0.985957 0.446342 0.859392 -0.520812
O33   O     O_2   0.470766 0.056315 0.860746 -0.520861
O34   O     O_2   0.514249 0.946350 0.140614 -0.520822
O35   O     O_2   0.530046 0.943651 0.360754 -0.520882
O36   O     O_2   0.485209 0.053692 0.640589 -0.520843
C145  C     C_R   0.968923 0.574847 0.512348 -0.174850
C146  C     C_R   0.143272 0.427843 0.488593 -0.175396
C147  C     C_R   0.030877 0.425142 0.012354 -0.174853
C148  C     C_R   0.856790 0.572156 0.988594 -0.175398
C149  C     C_R   0.468894 0.925156 0.987655 -0.174847
C150  C     C_R   0.643362 0.072155 0.011404 -0.175393
C151  C     C_R   0.531854 0.074843 0.487638 -0.174864
C152  C     C_R   0.355893 0.927911 0.511366 -0.175401
H17   H     H_    0.352524 0.346733 0.690023 0.145326
H18   H     H_    0.209184 0.668303 0.314542 0.144252
H19   H     H_    0.647473 0.653268 0.190025 0.145325
H20   H     H_    0.790797 0.331688 0.814546 0.144253
H21   H     H_    0.852529 0.153267 0.809976 0.145326
H22   H     H_    0.709203 0.831688 0.185455 0.144255
H23   H     H_    0.147456 0.846731 0.309978 0.145336
H24   H     H_    0.290812 0.168314 0.685449 0.144252
H25   H     H_    0.338060 0.390388 0.645422 0.137629
H26   H     H_    0.229194 0.623580 0.357718 0.135164
H27   H     H_    0.661935 0.609612 0.145424 0.137627
H28   H     H_    0.770751 0.376405 0.857726 0.135178
H29   H     H_    0.838068 0.109612 0.854577 0.137627
H30   H     H_    0.729243 0.876410 0.142281 0.135177
H31   H     H_    0.161944 0.890394 0.354574 0.137608
H32   H     H_    0.270785 0.123603 0.642265 0.135285
H33   H     H_    0.920725 0.504222 0.614013 0.170186
H34   H     H_    0.069486 0.493349 0.384658 0.170397
H35   H     H_    0.079093 0.495767 0.114020 0.170187
H36   H     H_    0.930628 0.506647 0.884660 0.170397
H37   H     H_    0.420692 0.995780 0.885990 0.170185
H38   H     H_    0.569690 0.006649 0.115342 0.170396
H39   H     H_    0.580514 0.004171 0.386004 0.170183
H40   H     H_    0.429382 0.993409 0.615313 0.170398
H41   H     H_    0.906756 0.547606 0.571668 0.123820
H42   H     H_    0.099653 0.450635 0.427277 0.123789
H43   H     H_    0.093032 0.452380 0.071675 0.123822
H44   H     H_    0.900472 0.549362 0.927279 0.123791
H45   H     H_    0.406730 0.952397 0.928336 0.123819
H46   H     H_    0.599845 0.049361 0.072722 0.123787
H47   H     H_    0.594481 0.047560 0.428348 0.123829
H48   H     H_    0.399179 0.950698 0.572691 0.123796
H49   H     H_    0.957799 0.586244 0.536308 0.123402
H50   H     H_    0.183925 0.417684 0.465186 0.123686
H51   H     H_    0.041945 0.413745 0.036314 0.123405
H52   H     H_    0.816172 0.582317 0.965186 0.123687
H53   H     H_    0.457728 0.913759 0.963696 0.123401
H54   H     H_    0.684037 0.082314 0.034810 0.123683
H55   H     H_    0.543305 0.086228 0.463679 0.123410
H56   H     H_    0.314885 0.917775 0.534762 0.123689
C153  C     C_3   0.601620 0.626940 0.379545 -0.366664
C154  C     C_3   0.499881 0.657351 0.397073 -0.699709
H57   H     H_    0.592177 0.670737 0.414842 0.265983
H58   H     H_    0.448433 0.677770 0.379558 0.214343
H59   H     H_    0.380324 0.645995 0.410370 0.227470
H60   H     H_    0.514555 0.614330 0.360760 0.171686
H61   H     H_    0.630541 0.605294 0.397435 0.194424
C155  C     C_3   0.757949 0.351168 0.610691 -0.349623
C156  C     C_3   0.609628 0.322461 0.615879 -0.741483
H62   H     H_    0.667292 0.294996 0.612023 0.232623
H63   H     H_    0.551132 0.324546 0.640642 0.221567
H64   H     H_    0.496638 0.326695 0.598178 0.262803
H65   H     H_    0.693663 0.378243 0.613478 0.189335
H66   H     H_    0.805444 0.348634 0.585193 0.211619
C157  C     C_3   0.398320 0.373049 0.879563 -0.366675
C158  C     C_3   0.500109 0.342623 0.897060 -0.699771
H67   H     H_    0.407707 0.329151 0.914759 0.265942
H68   H     H_    0.551969 0.322275 0.879515 0.214289
H69   H     H_    0.619378 0.353983 0.910431 0.227546
H70   H     H_    0.485373 0.385688 0.860793 0.171716
H71   H     H_    0.369356 0.394668 0.897475 0.194444
C159  C     C_3   0.242068 0.648823 0.110695 -0.349627
C160  C     C_3   0.390383 0.677533 0.115881 -0.741473
H72   H     H_    0.332715 0.704997 0.112021 0.232636
H73   H     H_    0.448870 0.675452 0.140645 0.221560
H74   H     H_    0.503381 0.673296 0.098181 0.262796
H75   H     H_    0.306355 0.621750 0.113486 0.189324
H76   H     H_    0.194587 0.651353 0.085196 0.211626
C161  C     C_3   0.101668 0.873079 0.120462 -0.366698
C162  C     C_3   0.999944 0.842674 0.102923 -0.699694
H77   H     H_    0.092272 0.829284 0.085161 0.266016
H78   H     H_    0.948428 0.822256 0.120434 0.214347
H79   H     H_    0.880441 0.854036 0.089618 0.227456
H80   H     H_    0.014592 0.885684 0.139248 0.171699
H81   H     H_    0.130605 0.894729 0.102578 0.194423
C163  C     C_3   0.257952 0.148831 0.889310 -0.349626
C164  C     C_3   0.109628 0.177539 0.884123 -0.741467
H82   H     H_    0.167290 0.205004 0.887979 0.232623
H83   H     H_    0.051134 0.175454 0.859360 0.221565
H84   H     H_    0.996638 0.173304 0.901824 0.262811
H85   H     H_    0.193668 0.121757 0.886523 0.189340
H86   H     H_    0.305448 0.151365 0.914808 0.211614
C165  C     C_3   0.898388 0.126957 0.620441 -0.366540
C166  C     C_3   0.000238 0.157386 0.602958 -0.699744
H87   H     H_    0.907864 0.170881 0.585269 0.266042
H88   H     H_    0.052157 0.177715 0.620514 0.214216
H89   H     H_    0.119473 0.146024 0.589577 0.227465
H90   H     H_    0.985397 0.114309 0.639213 0.171683
H91   H     H_    0.869449 0.105343 0.602522 0.194443
C167  C     C_3   0.742023 0.851169 0.389311 -0.349610
C168  C     C_3   0.890286 0.822446 0.384137 -0.741375
H92   H     H_    0.832542 0.794986 0.387989 0.232581
H93   H     H_    0.948863 0.824524 0.359379 0.221562
H94   H     H_    0.003233 0.826670 0.401848 0.262909
H95   H     H_    0.806373 0.878236 0.386520 0.189437
H96   H     H_    0.694470 0.848649 0.414807 0.211486

loop_
_geom_bond_atom_site_label_1
_geom_bond_atom_site_label_2
_ccdc_geom_bond_type
C69   C126  A    
C112  C119  A    
C155  H65   S    
C32   H31   S    
C135  H47   S    
C149  H53   S    
C10   O22   S    
C20   C92   A    
C21   C93   A    
O15   V4    S    
O16   V3    S    
C19   C91   A    
C114  C122  A    
C15   O27   S    
C157  C158  S    
C66   C90   A    
C85   C149  A    
C158  H67   S    
C17   O30   S    
C11   C75   A    
C66   C121  A    
C21   O34   S    
C36   C100  A    
C70   C78   A    
C163  H85   S    
C138  H34   S    
N6    C62   S    
C75   C83   A    
C69   C93   A    
C39   H24   S    
C53   C61   A    
C72   C80   A    
C6    C99   S    
O10   V2    S    
O12   C4    A    
C80   C88   A    
C167  C168  S    
O13   C5    A    
C107  C116  A    
O6    V2    S    
C23   O36   S    
C56   C64   A    
C11   N3    A    
C12   O24   S    
C13   O25   S    
C43   C51   A    
C166  H87   S    
C119  C127  A    
C133  C141  A    
C120  C128  A    
O1    C4    A    
C162  H79   S    
O2    C3    A    
C153  H61   S    
C108  C132  A    
C29   C61   A    
O7    C6    A    
C111  C135  A    
C112  C136  A    
C118  C149  A    
C119  C152  A    
C42   C98   A    
C40   H23   S    
C162  H78   S    
C87   C151  A    
C106  C113  A    
C33   C97   A    
O10   C2    A    
C158  H69   S    
C26   H25   S    
C136  C144  A    
C52   C159  S    
C37   C101  A    
N1    C57   S    
C157  H71   S    
C13   C77   A    
C54   C62   A    
C168  H93   S    
O17   V3    S    
C24   C96   A    
O18   V4    S    
O12   V1    S    
O19   V1    S    
C29   C37   A    
C110  C126  A    
C90   C137  A    
C118  C126  A    
C31   C39   A    
C1    C104  S    
O8    V1    S    
C65   C73   A    
C2    C103  S    
C46   H6    S    
C36   H19   S    
C26   C34   A    
O1    V3    S    
N1    C17   A    
O2    V4    S    
C153  C154  S    
N4    C20   A    
C45   C53   A    
C19   O32   S    
C39   C103  A    
C70   C125  A    
C155  C156  S    
C40   C104  A    
N7    C23   A    
C82   C146  A    
C11   O23   S    
C165  H90   S    
C12   N4    A    
C166  H89   S    
C13   N5    A    
C160  H73   S    
C115  C123  A    
C141  H37   S    
C72   C96   A    
C113  C121  A    
C55   C63   A    
C157  H70   S    
C24   O35   S    
C134  H46   S    
N2    C58   S    
C45   C101  A    
C52   C60   A    
C165  H91   S    
C109  C118  A    
N4    C60   S    
C68   C123  A    
C47   C55   A    
C28   C60   A    
C164  H82   S    
C151  H55   S    
C120  C151  A    
C156  H63   S    
C88   C152  A    
C159  H75   S    
C107  C123  A    
O14   C6    A    
C70   C94   A    
C27   C35   A    
C12   C76   A    
C31   C63   A    
C106  C122  A    
C155  H66   S    
C4    C101  S    
C130  C138  A    
C143  H39   S    
C8    C97   S    
C28   C36   A    
C161  H81   S    
C9    C73   A    
C167  H95   S    
C136  H48   S    
C168  H94   S    
C26   C58   A    
C154  H57   S    
C30   H29   S    
C32   C40   A    
C35   C99   A    
C53   C161  S    
C115  C148  A    
C15   C79   A    
C113  C146  A    
C33   H18   S    
C14   O26   S    
C37   H22   S    
C73   C81   A    
C158  H68   S    
C159  C160  S    
C44   C52   A    
C51   C59   A    
C77   C85   A    
C146  H50   S    
C79   C87   A    
C94   C141  A    
C48   C56   A    
C150  H54   S    
C7    C98   S    
C163  H86   S    
C116  C147  A    
C43   C99   A    
C89   C138  A    
C69   C77   A    
C83   H11   S    
C41   C97   A    
C34   C98   A    
O11   C3    A    
C81   H9    S    
C164  H84   S    
C38   C102  A    
C85   H13   S    
C9    N1    A    
C105  C129  A    
C86   C150  A    
C15   N7    A    
O11   V2    S    
N5    C61   S    
C16   N8    A    
C92   C139  A    
C109  C133  A    
C160  H72   S    
C148  H52   S    
C108  C124  A    
C27   C59   A    
C41   C49   A    
C116  C124  A    
C117  C125  A    
C152  H56   S    
O7    V2    S    
C44   C100  A    
C139  H35   S    
C84   C148  A    
C137  H33   S    
C42   H2    S    
C166  H88   S    
C72   C127  A    
C44   H4    S    
C153  H60   S    
N2    C18   A    
N8    C64   S    
C131  H43   S    
C95   C144  A    
C129  H41   S    
C32   C64   A    
C142  H38   S    
C168  H92   S    
C165  C166  S    
C144  H40   S    
C47   C103  A    
C161  C162  S    
C14   N6    A    
O4    C1    A    
C16   C80   A    
C3    C102  S    
C132  H44   S    
C134  C142  A    
C130  H42   S    
C110  C117  A    
C76   C84   A    
O13   V3    S    
O14   V4    S    
C30   C62   A    
N6    C22   A    
C42   C50   A    
C9    O21   S    
C68   C76   A    
C117  C150  A    
C71   C95   A    
C140  H36   S    
C35   H20   S    
C18   C90   A    
C25   H26   S    
O3    V4    S    
O4    V3    S    
C14   C78   A    
C5    C100  S    
C145  H49   S    
C93   C142  A    
C67   C124  A    
C30   C38   A    
C91   C140  A    
C65   C122  A    
C28   H27   S    
C114  C145  A    
C66   C74   A    
C17   C89   A    
C163  C164  S    
C135  C143  A    
C51   C157  S    
C162  H77   S    
N7    C63   S    
C25   C33   A    
O3    C2    A    
C107  C131  A    
C160  H74   S    
C16   O28   S    
C96   C143  A    
C46   C54   A    
C56   C167  S    
C111  C127  A    
C18   O29   S    
C112  C128  A    
C83   C147  A    
C31   H32   S    
C81   C145  A    
C156  H62   S    
C22   O33   S    
O9    V1    S    
O15   C7    A    
O16   C8    A    
C47   H7    S    
C82   H10   S    
N5    C21   A    
O5    V1    S    
C86   H14   S    
N3    C59   S    
C10   N2    A    
C68   C92   A    
C133  H45   S    
C46   C102  A    
C54   C163  S    
C49   C153  S    
C67   C91   A    
C106  C130  A    
C65   C89   A    
C161  H80   S    
C167  H96   S    
C49   C57   A    
C110  C134  A    
C23   C95   A    
C154  H58   S    
C20   O31   S    
N8    C24   A    
O8    C5    A    
C67   C75   A    
C43   H3    S    
C105  C114  A    
C71   C79   A    
O9    C1    A    
C41   H1    S    
C84   H12   S    
C154  H59   S    
N3    C19   A    
C87   H15   S    
C50   C155  S    
C88   H16   S    
C131  C139  A    
C55   C165  S    
C129  C137  A    
C48   H8    S    
C10   C74   A    
C109  C125  A    
C22   C94   A    
O20   V2    S    
C25   C57   A    
C164  H83   S    
C29   H30   S    
O5    C8    A    
C27   H28   S    
O6    C7    A    
C34   H17   S    
C71   C128  A    
C48   C104  A    
C156  H64   S    
C45   H5    S    
C38   H21   S    
C74   C82   A    
C132  C140  A    
C108  C115  A    
C159  H76   S    
C78   C86   A    
C147  H51   S    
C105  C121  A    
C50   C58   A    
C111  C120  A    
