data_mof_unit_65672.cif
_audit_creation_date              2013-03-05T16:51:50-0500
_audit_creation_method            fapswitch 2.2
_symmetry_space_group_name_H-M    P1
_symmetry_Int_Tables_number       1
_space_group_crystal_system       triclinic
_cell_length_a                    15.082425
_cell_length_b                    15.853667
_cell_length_c                    17.002152
_cell_angle_alpha                 89.780507
_cell_angle_beta                  83.64951
_cell_angle_gamma                 90.004134
_cell_volume                      4040.43814617

loop_
_atom_site_label
_atom_site_type_symbol
_atom_site_description
_atom_site_fract_x
_atom_site_fract_y
_atom_site_fract_z
_atom_type_partial_charge
O1    O     O_R   0.426350 0.621980 0.500000 -0.568831
O2    O     O_R   0.573650 0.378020 0.500000 -0.568832
O3    O     O_R   0.573690 0.621980 0.499960 -0.624350
O4    O     O_R   0.426310 0.378020 0.500040 -0.624350
C1    C     C_R   0.499994 0.661083 0.500293 0.913409
C2    C     C_R   0.500006 0.338917 0.499707 0.913409
O5    O     O_R   0.417630 0.500010 0.615820 -0.572249
O6    O     O_R   0.582370 0.499990 0.384180 -0.572249
O7    O     O_R   0.564960 0.500010 0.615780 -0.586374
O8    O     O_R   0.435040 0.499990 0.384220 -0.586374
C3    C     C_R   0.486505 0.497347 0.652879 1.018402
C4    C     C_R   0.513495 0.502653 0.347120 1.018401
Zn1   Zn    Zn3+2 0.401630 0.500000 0.500020 1.130256
Zn2   Zn    Zn3+2 0.598370 0.500000 0.499980 1.130256
C5    C     C_R   0.474650 0.487365 0.737948 -0.407079
C6    C     C_R   0.525350 0.512635 0.262051 -0.407079
C7    C     C_R   0.529230 0.431390 0.775906 0.256847
C8    C     C_R   0.470770 0.568610 0.224094 0.256848
C9    C     C_R   0.520847 0.429399 0.858063 -0.203837
C10   C     C_R   0.479153 0.570600 0.141937 -0.203837
C11   C     C_R   0.458854 0.481289 0.901687 -0.229773
C12   C     C_R   0.541146 0.518711 0.098312 -0.229773
C13   C     C_R   0.400151 0.531464 0.864127 0.670420
C14   C     C_R   0.599849 0.468536 0.135873 0.670420
C15   C     C_R   0.408200 0.534842 0.782175 0.530139
C16   C     C_R   0.591800 0.465158 0.217825 0.530139
C17   C     C_2   0.461666 0.489287 0.986109 0.568903
C18   C     C_2   0.538334 0.510713 0.013891 0.568903
H1    H     H_    0.436456 0.611691 0.111635 0.249491
H2    H     H_    0.563544 0.388309 0.888364 0.249491
C19   C     C_R   0.435649 0.043835 0.462471 0.541764
C20   C     C_R   0.564351 0.956165 0.537529 0.541764
C21   C     C_R   0.499971 0.086946 0.499930 -0.394605
C22   C     C_R   0.500028 0.913054 0.500070 -0.394605
C23   C     C_R   0.564318 0.043667 0.537463 0.563520
C24   C     C_R   0.435682 0.956333 0.462537 0.563520
C25   C     C_1   0.499971 0.175783 0.499832 0.277915
C26   C     C_1   0.500029 0.824217 0.500168 0.277915
C27   C     C_1   0.500016 0.749418 0.500249 -0.038923
C28   C     C_1   0.499984 0.250582 0.499751 -0.038922
C29   C     C_R   0.039462 0.510878 0.569988 0.609040
C30   C     C_R   0.960538 0.489122 0.430012 0.609040
C31   C     C_R   0.095144 0.501395 0.498417 -0.346963
C32   C     C_R   0.904855 0.498604 0.501583 -0.346963
C33   C     C_R   0.054985 0.490557 0.427503 0.130866
C34   C     C_R   0.945014 0.509442 0.572497 0.130866
C35   C     C_1   0.193004 0.500527 0.499396 0.411571
C36   C     C_1   0.806996 0.499473 0.500604 0.411571
N1    N     N_1   0.729450 0.499980 0.500020 -0.065019
N2    N     N_1   0.270550 0.500020 0.499980 -0.065019
N3    N     N_R   0.591681 0.375573 0.732421 0.259789
O9    O     O_R   0.666373 0.356589 0.759916 -0.231952
O10   O     O_R   0.568108 0.333133 0.672793 -0.362447
N4    N     N_R   0.408319 0.624427 0.267579 0.259789
O11   O     O_R   0.333627 0.643411 0.240084 -0.231952
O12   O     O_R   0.431891 0.666867 0.327207 -0.362447
F1    F     F_    0.645438 0.412047 0.253920 -0.554002
F2    F     F_    0.354561 0.587953 0.746079 -0.554002
F3    F     F_    0.615080 0.522034 0.964683 -0.575515
F4    F     F_    0.384920 0.477967 0.035317 -0.575515
F5    F     F_    0.339585 0.581440 0.906722 -0.518594
F6    F     F_    0.660415 0.418560 0.093278 -0.518594
F7    F     F_    0.373444 0.913855 0.426279 -0.528353
F8    F     F_    0.626556 0.086145 0.573721 -0.528353
F9    F     F_    0.373371 0.086473 0.426157 -0.545012
F10   F     F_    0.626629 0.913527 0.573843 -0.545013
N5    N     N_R   0.891065 0.519036 0.647325 0.264259
O13   O     O_R   0.817135 0.476865 0.662854 -0.300173
O14   O     O_R   0.917914 0.566740 0.702147 -0.194540
N6    N     N_R   0.108935 0.480964 0.352675 0.264259
O15   O     O_R   0.182865 0.523134 0.337146 -0.300173
O16   O     O_R   0.082086 0.433259 0.297853 -0.194540
F11   F     F_    0.077632 0.519328 0.638284 -0.548003
F12   F     F_    0.922368 0.480671 0.361716 -0.548003

loop_
_geom_bond_atom_site_label_1
_geom_bond_atom_site_label_2
_geom_bond_distance
_ccdc_geom_bond_type
O6    Zn2   2.009905 S    
C29   C34   1.420587 A    
C19   C21   1.397798 A    
N4    O12   1.300708 A    
C23   F8    1.358596 S    
N3    O9    1.301412 A    
C25   C28   1.185832 T    
C24   F7    1.358596 S    
C29   C31   1.408548 A    
C18   F3    1.362576 S    
C20   F10   1.358546 S    
C8    C10   1.388790 A    
O6    C4    1.273775 A    
O7    Zn2   1.977576 S    
C7    N3    1.438037 S    
C11   C13   1.394911 A    
C17   F4    1.362575 S    
C11   C17   1.446708 S    
O3    C1    1.272209 A    
C34   N5    1.440940 S    
C12   C18   1.446710 S    
O5    C3    1.273775 A    
C31   C33   1.418865 A    
O7    C3    1.278480 A    
C2    C28   1.400433 S    
O2    C2    1.272484 A    
O3    Zn2   1.969362 S    
C30   C32   1.408549 A    
C22   C26   1.408392 S    
O1    C1    1.272485 A    
O8    C4    1.278482 A    
O4    C2    1.272211 A    
C36   N1    1.170752 T    
C21   C23   1.397725 A    
C14   C16   1.386030 A    
C35   N2    1.170752 T    
C22   C24   1.397724 A    
C10   H1    1.084155 S    
C13   C15   1.386030 A    
C6    C16   1.405038 A    
C26   C27   1.185832 T    
O2    Zn2   1.969409 S    
C16   F1    1.358696 S    
C12   C14   1.394911 A    
C30   F12   1.358968 S    
Zn2   N1    1.977079 S    
C5    C15   1.405039 A    
C15   F2    1.358696 S    
C8    N4    1.438037 S    
C30   C33   1.420587 A    
C29   F11   1.358969 S    
N5    O13   1.301317 A    
C20   C23   1.387216 A    
C32   C36   1.477956 S    
O5    Zn1   2.009904 S    
N6    O15   1.301316 A    
O1    Zn1   1.969407 S    
C6    C8    1.412409 A    
C13   F5    1.358244 S    
N5    O14   1.301382 A    
C17   C18   1.340747 D    
C5    C7    1.412408 A    
C1    C27   1.400433 S    
C19   F9    1.358547 S    
C19   C24   1.387216 A    
C7    C9    1.388792 A    
C14   F6    1.358244 S    
C4    C6    1.445679 S    
C9    C11   1.397302 A    
C33   N6    1.440938 S    
N4    O11   1.301411 A    
C9    H2    1.084154 S    
C3    C5    1.445679 S    
N6    O16   1.301383 A    
C32   C34   1.418864 A    
C21   C25   1.408392 S    
Zn1   N2    1.977081 S    
O4    Zn1   1.969363 S    
C10   C12   1.397301 A    
C31   C35   1.477955 S    
N3    O10   1.300708 A    
O8    Zn1   1.977576 S    
C20   C22   1.397799 A    
