data_mof_unit_13489.cif
_audit_creation_date              2012-12-11T14:21:14-0500
_audit_creation_method            fapswitch 2.2
_symmetry_space_group_name_H-M    P1
_symmetry_Int_Tables_number       1
_space_group_crystal_system       triclinic
_cell_length_a                    11.534965
_cell_length_b                    11.535053
_cell_length_c                    19.551059
_cell_angle_alpha                 90.621974
_cell_angle_beta                  90.11687
_cell_angle_gamma                 59.97922
_cell_volume                      2252.25155749

loop_
_atom_site_label
_atom_site_type_symbol
_atom_type_description
_atom_site_fract_x
_atom_site_fract_y
_atom_site_fract_z
_atom_type_partial_charge
C1    C     C_R   0.640502 0.117455 0.599231 0.545243
C2    C     C_1   0.641336 0.704016 0.668007 0.004200
C3    C     C_1   0.126751 0.198483 0.859287 0.006737
C4    C     C_1   0.171444 0.170365 0.727689 -0.030656
C5    C     C_1   0.150163 0.182096 0.798920 -0.029388
C6    C     C_1   0.195200 0.161134 0.667361 0.003886
C7    C     C_1   0.678518 0.191025 0.860801 0.006817
C8    C     C_1   0.658469 0.167291 0.729042 -0.030722
C9    C     C_1   0.665591 0.180763 0.800351 -0.029345
C10   C     C_1   0.652936 0.149839 0.668629 0.003602
C11   C     C_R   0.659820 0.681141 0.190600 0.024481
C12   C     C_R   0.612511 0.746015 0.598642 0.543598
C13   C     C_R   0.533558 0.730548 0.221315 0.067008
C14   C     C_R   0.531234 0.703109 0.290694 -0.003408
C15   C     C_R   0.762382 0.653939 0.301720 -0.166535
C16   C     C_R   0.773582 0.643609 0.231341 -0.158196
C17   C     C_R   0.413237 0.788326 0.182862 0.279346
C18   C     C_R   0.300096 0.789882 0.210031 -0.111417
C19   C     C_R   0.303735 0.743434 0.275533 -0.178805
C20   C     C_R   0.418282 0.698123 0.315230 -0.106474
C21   C     C_R   0.641622 0.683963 0.332447 -0.000742
C22   C     C_R   0.150370 0.191451 0.190778 0.004588
C23   C     C_R   0.240929 0.145382 0.598174 0.543982
C24   C     C_R   0.199628 0.266871 0.223232 0.025166
C25   C     C_R   0.188686 0.279823 0.294599 0.036449
C26   C     C_R   0.148654 0.091297 0.299291 -0.154553
C27   C     C_R   0.123778 0.104967 0.229523 -0.141447
C28   C     C_R   0.248114 0.338859 0.186292 -0.057799
C29   C     C_R   0.264576 0.437671 0.218520 -0.079862
C30   C     C_R   0.232162 0.466067 0.287281 -0.135104
C31   C     C_R   0.188226 0.392969 0.324155 -0.086172
C32   C     C_R   0.181748 0.177659 0.332963 -0.001898
C33   C     C_R   0.663506 0.181551 0.190859 -0.002955
C34   C     C_R   0.646533 0.111006 0.401873 0.543939
C35   C     C_R   0.736969 0.050580 0.216533 -0.024002
C36   C     C_R   0.760906 0.034323 0.287251 0.020421
C37   C     C_R   0.585330 0.266851 0.305250 -0.145184
C38   C     C_R   0.587368 0.288968 0.235679 -0.144662
C39   C     C_R   0.800734 0.937636 0.172418 -0.042101
C40   C     C_R   0.907491 0.818494 0.195415 0.366450
C41   C     C_R   0.945549 0.807722 0.263425 -0.125808
C42   C     C_R   0.874108 0.913679 0.309032 -0.154782
C43   C     C_R   0.672006 0.140335 0.332235 0.011354
C44   C     C_R   0.081825 0.230998 0.928593 0.542738
C45   C     C_R   0.616145 0.736998 0.402350 0.546909
C46   C     C_R   0.683818 0.604396 0.929479 0.552242
C47   C     C_R   0.708250 0.206533 0.930154 0.543018
C48   C     C_R   0.086418 0.233623 0.124129 0.531044
C49   C     C_R   0.681501 0.616218 0.124116 0.593787
C50   C     C_R   0.704926 0.209541 0.125314 0.529174
C51   C     C_R   0.241119 0.143748 0.401737 0.542229
C52   C     C_1   0.670268 0.646426 0.860126 0.006629
C53   C     C_1   0.654808 0.683777 0.728440 -0.030700
C54   C     C_1   0.663379 0.666682 0.799702 -0.030035
Cr1   Cr    Cr6+3 0.404720 0.198220 0.499960 1.021645
Cr2   Cr    Cr6+3 0.698290 0.897110 0.500380 1.021720
Cr3   Cr    Cr6+3 0.396970 0.904720 0.499610 1.024044
Cr4   Cr    Cr6+3 0.926180 0.151990 0.028120 1.036803
Cr5   Cr    Cr6+3 0.921330 0.451820 0.027470 1.085000
Cr6   Cr    Cr6+3 0.626260 0.446870 0.028710 1.047983
H1    H     H_    0.848465 0.635469 0.332170 0.130322
H2    H     H_    0.298402 0.494874 0.189722 0.136434
H3    H     H_    0.241687 0.544048 0.312809 0.089044
H4    H     H_    0.152717 0.427968 0.375551 0.134785
H5    H     H_    0.518841 0.349567 0.338355 0.125842
H6    H     H_    0.773585 0.944132 0.118944 0.151736
H7    H     H_    0.533451 0.390812 0.217382 0.136026
H8    H     H_    0.029669 0.716576 0.281315 0.117465
H9    H     H_    0.915388 0.901089 0.359724 0.147727
H10   H     H_    0.872771 0.599239 0.209241 0.206675
H11   H     H_    0.209658 0.825568 0.180205 0.120355
H12   H     H_    0.215822 0.746747 0.296523 0.103605
H13   H     H_    0.417816 0.656321 0.364375 0.142068
H14   H     H_    0.138282 0.016386 0.327209 0.131610
H15   H     H_    0.271856 0.320058 0.132325 0.136031
H16   H     H_    0.079904 0.050453 0.206288 0.143469
O1    O     O_R   0.267740 0.231960 0.575440 -0.508450
O2    O     O_R   0.685970 0.784660 0.430010 -0.497204
O3    O     O_R   0.502530 0.767000 0.423990 -0.527968
O4    O     O_R   0.288330 0.026350 0.429250 -0.492841
O5    O     O_3   0.499990 0.000020 0.499980 -0.247150
O6    O     O_R   0.821500 0.119340 0.952830 -0.501576
O7    O     O_R   0.037130 0.162530 0.957360 -0.494707
O8    O     O_R   0.056440 0.344740 0.951340 -0.503546
O9    O     O_R   0.797900 0.560360 0.957470 -0.490407
O10   O     O_R   0.596130 0.579390 0.952730 -0.497304
O11   O     O_R   0.639060 0.321160 0.958670 -0.497125
O12   O     O_R   0.527280 0.186640 0.570530 -0.495400
O13   O     O_R   0.821240 0.124200 0.104370 -0.519140
O14   O     O_R   0.036890 0.167040 0.097840 -0.510293
O15   O     O_R   0.056180 0.349610 0.102880 -0.500090
O16   O     O_R   0.797660 0.564870 0.097950 -0.483898
O17   O     O_R   0.595880 0.584250 0.104270 -0.483877
O18   O     O_R   0.638830 0.325670 0.099150 -0.507631
O19   O     O_3   0.824590 0.350230 0.028100 -0.265911
O20   O     O_R   0.728090 0.003450 0.576380 -0.506627
O21   O     O_R   0.682970 0.789190 0.570490 -0.495690
O22   O     O_R   0.499290 0.771880 0.575530 -0.507728
O23   O     O_R   0.285330 0.030870 0.569730 -0.495192
O24   O     O_R   0.270980 0.227080 0.423890 -0.531133
O25   O     O_R   0.530280 0.182120 0.430050 -0.496500
O26   O     O_R   0.731330 0.998570 0.424830 -0.529582
F1    F     F_    0.977754 0.715538 0.150970 -0.654033
O27   O     O_3   0.409458 0.841381 0.119270 -0.694194
H17   H     H_    0.317826 0.879552 0.100314 0.322522

loop_
_geom_bond_atom_site_label_1
_geom_bond_atom_site_label_2
_ccdc_geom_bond_type
C25   C31   A    
C23   O23   A    
C24   C25   A    
C26   C32   A    
C41   C42   A    
Cr3   O3    S    
C22   C48   S    
C35   C36   A    
C44   O7    A    
C2    C12   S    
Cr2   O5    S    
C53   C54   S    
C26   C27   A    
C29   C30   A    
C14   C21   A    
C28   C29   A    
C17   O27   S    
Cr4   O6    S    
C30   C31   A    
Cr1   O1    S    
Cr3   O22   S    
C15   C16   A    
Cr3   O23   S    
C46   C52   S    
C51   O24   A    
Cr2   O2    S    
C7    C9    T    
C18   C19   A    
C47   O6    A    
Cr1   O12   S    
C51   O4    A    
C33   C35   A    
C36   C42   A    
C19   C20   A    
C8    C9    S    
C48   O15   A    
C37   H5    S    
Cr1   O24   S    
C45   O2    A    
Cr1   O5    S    
C12   O22   A    
C46   O9    A    
Cr6   O17   S    
C25   C32   A    
C48   O14   A    
C30   H3    S    
Cr3   O4    S    
C19   H12   S    
Cr5   O19   S    
Cr2   O21   S    
O27   H17   S    
Cr6   O11   S    
C52   C54   T    
C41   H8    S    
C21   C45   S    
C3    C44   S    
C34   O25   A    
C34   C43   S    
C14   C20   A    
C16   H10   S    
Cr5   O8    S    
C4    C6    T    
C39   C40   A    
Cr6   O10   S    
C50   O18   A    
Cr5   O15   S    
C3    C5    T    
C33   C50   S    
C42   H9    S    
C47   O11   A    
C37   C43   A    
C35   C39   A    
Cr4   O19   S    
Cr5   O9    S    
C32   C51   S    
C37   C38   A    
C11   C49   S    
C11   C16   A    
C50   O13   A    
C17   C18   A    
C15   H1    S    
C45   O3    A    
C34   O26   A    
C23   O1    A    
Cr4   O14   S    
C12   O21   A    
C40   C41   A    
C22   C27   A    
C39   H6    S    
C22   C24   A    
C49   O16   A    
C27   H16   S    
C18   H11   S    
Cr2   O20   S    
C29   H2    S    
C31   H4    S    
C1    C10   S    
C24   C28   A    
C4    C5    S    
C44   O8    A    
C2    C53   T    
Cr1   O25   S    
C33   C38   A    
C13   C17   A    
Cr2   O26   S    
Cr4   O7    S    
C40   F1    S    
C11   C13   A    
C1    O12   A    
C1    O20   A    
C6    C23   S    
C26   H14   S    
C20   H13   S    
Cr3   O5    S    
Cr5   O16   S    
Cr4   O13   S    
Cr6   O19   S    
C15   C21   A    
C38   H7    S    
C8    C10   T    
C36   C43   A    
C49   O17   A    
C13   C14   A    
C28   H15   S    
C7    C47   S    
C46   O10   A    
Cr6   O18   S    
