data_mof_unit_40847.cif
_audit_creation_date              2012-12-11T14:15:19-0500
_audit_creation_method            fapswitch 2.2
_symmetry_space_group_name_H-M    P1
_symmetry_Int_Tables_number       1
_space_group_crystal_system       triclinic
_cell_length_a                    11.08015
_cell_length_b                    12.738506
_cell_length_c                    23.544691
_cell_angle_alpha                 90.52095
_cell_angle_beta                  96.307809
_cell_angle_gamma                 68.791838
_cell_volume                      3077.6903097

loop_
_atom_site_label
_atom_site_type_symbol
_atom_type_description
_atom_site_fract_x
_atom_site_fract_y
_atom_site_fract_z
_atom_type_partial_charge
C1    C     C_R   0.150077 0.616123 0.428966 0.551827
C2    C     C_R   0.658006 0.556789 0.308977 0.043113
C3    C     C_R   0.713595 0.725940 0.317662 -0.140881
C4    C     C_R   0.706744 0.734443 0.258211 0.035130
C5    C     C_R   0.689353 0.647093 0.225303 0.019371
C6    C     C_R   0.684251 0.652751 0.166522 -0.102011
C7    C     C_R   0.693102 0.839857 0.170891 -0.123428
C8    C     C_R   0.715509 0.828418 0.230655 -0.119082
C9    C     C_1   0.245607 0.147715 0.126004 0.053153
C10   C     C_2   0.237188 0.178121 0.236983 0.009694
C11   C     C_2   0.142206 0.161780 0.264105 0.017990
C12   C     C_R   0.749166 0.603686 0.403796 0.554807
C13   C     C_1   0.127733 0.193563 0.322718 0.035022
C14   C     C_1   0.237969 0.165423 0.175954 0.025864
C15   C     C_1   0.115797 0.227688 0.370344 0.069820
C16   C     C_1   0.167780 0.758861 0.124999 0.053870
C17   C     C_2   0.149340 0.727471 0.233951 -0.134978
C18   C     C_2   0.229857 0.637339 0.266122 0.043631
C19   C     C_1   0.212138 0.633289 0.325804 -0.010533
C20   C     C_1   0.156659 0.742115 0.174016 0.028565
C21   C     C_1   0.190290 0.627637 0.374423 0.041843
C22   C     C_1   0.628738 0.756465 0.864711 -0.015862
C23   C     C_R   0.101684 0.280503 0.424198 0.560263
C24   C     C_2   0.699889 0.711550 0.760768 -0.108296
C25   C     C_2   0.610944 0.707968 0.718053 -0.118495
C26   C     C_1   0.649331 0.671987 0.662340 -0.026866
C27   C     C_1   0.664115 0.737422 0.817767 -0.041152
C28   C     C_1   0.688696 0.640384 0.617055 0.010333
C29   C     C_R   0.260348 0.077547 0.839019 0.011854
C30   C     C_R   0.105212 0.211971 0.635912 -0.003211
C31   C     C_R   0.999056 0.204362 0.720222 0.019462
C32   C     C_R   0.992587 0.240255 0.663922 -0.107157
C33   C     C_R   0.224248 0.136189 0.661532 0.058046
C34   C     C_R   0.151445 0.617658 0.590012 0.543623
C35   C     C_R   0.234909 0.108037 0.719840 0.006939
C36   C     C_R   0.122200 0.141411 0.749402 0.050476
C37   C     C_R   0.136780 0.116265 0.808109 -0.145497
C38   C     C_R   0.371782 0.060016 0.809659 -0.025670
C39   C     C_R   0.357781 0.059690 0.750516 -0.107584
C40   C     C_R   0.186853 0.804532 0.839821 -0.023571
C41   C     C_R   0.206137 0.648595 0.644055 0.001110
C42   C     C_R   0.345345 0.599905 0.733601 -0.137896
C43   C     C_R   0.315170 0.573707 0.677426 -0.126659
C44   C     C_R   0.134392 0.752505 0.665556 -0.095451
C45   C     C_R   0.749404 0.602201 0.566029 0.548614
C46   C     C_R   0.156350 0.776484 0.722346 0.021498
C47   C     C_R   0.263007 0.698273 0.757017 0.015064
C48   C     C_R   0.280053 0.715370 0.815307 -0.138717
C49   C     C_R   0.081839 0.881750 0.805321 -0.132670
C50   C     C_R   0.066259 0.870285 0.746579 0.051801
C51   C     C_R   0.265718 0.109986 0.069401 0.564038
C52   C     C_R   0.600657 0.774921 0.081114 0.550629
C53   C     C_R   0.188321 0.788386 0.069419 0.562600
C54   C     C_R   0.272760 0.056960 0.901111 0.542662
C55   C     C_R   0.574073 0.776471 0.918105 0.523799
C56   C     C_R   0.098969 0.277249 0.584389 0.553643
C57   C     C_R   0.199666 0.819849 0.901279 0.543103
C58   C     C_R   0.671178 0.753533 0.138811 0.005320
C59   C     C_R   0.695384 0.634475 0.343740 -0.017080
C60   C     C_R   0.664341 0.559914 0.250540 -0.113039
Cr1   Cr    Cr6+3 0.189770 0.415650 0.511620 1.084356
Cr2   Cr    Cr6+3 0.930400 0.667320 0.496770 1.049091
Cr3   Cr    Cr6+3 0.879870 0.417010 0.491650 1.067738
Cr4   Cr    Cr6+3 0.149500 0.973980 0.985330 1.032557
Cr5   Cr    Cr6+3 0.457000 0.976510 0.994660 1.019755
Cr6   Cr    Cr6+3 0.411170 0.724270 0.995270 1.037729
H1    H     H_    0.671385 0.583898 0.142324 0.143255
H2    H     H_    0.076665 0.795404 0.253626 0.125695
H3    H     H_    0.509815 0.729042 0.725182 0.147669
H4    H     H_    0.801193 0.690095 0.753682 0.149118
H5    H     H_    0.052287 0.134503 0.830900 0.125336
H6    H     H_    0.444816 0.035270 0.729131 0.173350
H7    H     H_    0.900047 0.297148 0.643116 0.138584
H8    H     H_    0.362243 0.656187 0.841872 0.142672
H9    H     H_    0.684598 0.918278 0.150295 0.147872
H10   H     H_    0.011000 0.952015 0.824157 0.150734
H11   H     H_    0.427539 0.539973 0.759784 0.117547
H12   H     H_    0.372882 0.493567 0.661133 0.144892
H13   H     H_    0.051667 0.809881 0.639171 0.194941
H14   H     H_    0.643301 0.497028 0.224127 0.163063
H15   H     H_    0.729526 0.896308 0.255182 0.138831
H16   H     H_    0.737989 0.787854 0.343534 0.140356
O1    O     O_R   0.196340 0.303200 0.448500 -0.477826
O2    O     O_R   0.811960 0.658090 0.547150 -0.486331
O3    O     O_R   0.757930 0.506140 0.547110 -0.508836
O4    O     O_R   0.988670 0.321620 0.556040 -0.513680
O5    O     O_3   0.000020 0.499990 0.500010 -0.270609
O6    O     O_R   0.113660 0.883270 0.047820 -0.502960
O7    O     O_R   0.186930 0.068530 0.043990 -0.476360
O8    O     O_R   0.377770 0.089040 0.054220 -0.497735
O9    O     O_R   0.562800 0.872960 0.056970 -0.494576
O10   O     O_R   0.555390 0.700940 0.062700 -0.508607
O11   O     O_R   0.295020 0.731920 0.049950 -0.471160
O12   O     O_R   0.199310 0.519670 0.454880 -0.479044
O13   O     O_R   0.094290 0.884230 0.921550 -0.517137
O14   O     O_R   0.168980 0.069410 0.926940 -0.517219
O15   O     O_R   0.358400 0.089990 0.927950 -0.509525
O16   O     O_R   0.544850 0.873850 0.939920 -0.529187
O17   O     O_R   0.536020 0.701900 0.936430 -0.516153
O18   O     O_R   0.277070 0.732810 0.932890 -0.494886
O19   O     O_3   0.339220 0.891590 0.991750 -0.293497
O20   O     O_R   0.045660 0.691380 0.441680 -0.511073
O21   O     O_R   0.811930 0.659460 0.430950 -0.506554
O22   O     O_R   0.757900 0.507620 0.421760 -0.473469
O23   O     O_R   0.988630 0.322990 0.439840 -0.496408
O24   O     O_R   0.196380 0.301720 0.573850 -0.478284
O25   O     O_R   0.199350 0.518300 0.571080 -0.498006
O26   O     O_R   0.045700 0.689900 0.567030 -0.516560
C61   C     C_3   0.502267 0.058168 0.837645 -0.355014
H17   H     H_    0.570010 0.056665 0.805890 0.143395
H18   H     H_    0.489347 0.135710 0.862024 0.164191
H19   H     H_    0.552288 0.983492 0.865309 0.169479
C62   C     C_3   0.876221 0.244426 0.749454 -0.391496
H20   H     H_    0.859527 0.171640 0.767761 0.172012
H21   H     H_    0.885160 0.301569 0.784211 0.127358
H22   H     H_    0.788893 0.291315 0.719354 0.135772
C63   C     C_2   0.337116 0.093265 0.627761 0.576017
O27   O     O_2   0.334952 0.029820 0.588723 -0.497951
O28   O     O_R   0.442392 0.129168 0.639007 -0.697080
H23   H     H_    0.512163 0.094911 0.612705 0.347047
C64   C     C_2   0.949389 0.952799 0.713104 0.539456
O29   O     O_2   0.843110 0.979781 0.731019 -0.537838
O30   O     O_R   0.960769 0.001453 0.661935 -0.706782
H24   H     H_    0.874151 0.056305 0.643410 0.343857
C65   C     C_2   0.614658 0.469612 0.331625 0.628038
O31   O     O_2   0.541097 0.492650 0.368827 -0.489340
O32   O     O_R   0.655544 0.361811 0.309301 -0.644901
H25   H     H_    0.620195 0.309631 0.328278 0.359615
C66   C     C_2   0.043405 0.118845 0.234890 0.564368
O33   O     O_2   0.938975 0.139950 0.253878 -0.484341
O34   O     O_R   0.070594 0.051096 0.187340 -0.705425
H26   H     H_    0.996145 0.026277 0.172310 0.340777
C67   C     C_2   0.347771 0.206062 0.266976 0.598942
O35   O     O_2   0.427730 0.220225 0.238970 -0.468842
O36   O     O_R   0.364590 0.212621 0.326466 -0.683948
H27   H     H_    0.444120 0.231050 0.340710 0.356688
C68   C     C_2   0.327464 0.537669 0.242588 0.606935
O37   O     O_2   0.368656 0.448035 0.269699 -0.456767
O38   O     O_R   0.372759 0.544737 0.190147 -0.706375
H28   H     H_    0.437606 0.470147 0.179190 0.349901

loop_
_geom_bond_atom_site_label_1
_geom_bond_atom_site_label_2
_ccdc_geom_bond_type
C1    C21   S    
C6    C58   A    
C35   C39   A    
C35   C36   A    
C9    C51   S    
C10   C67   S    
Cr5   O19   S    
C4    C8    A    
C24   H4    S    
C7    C8    A    
C43   H12   S    
C33   C63   S    
C68   O38   S    
C23   O1    A    
C34   O25   A    
C36   C37   A    
C19   C21   T    
Cr5   O16   S    
C12   O22   A    
C61   H18   S    
C51   O8    A    
C5    C6    A    
C2    C60   A    
Cr2   O26   S    
C29   C54   S    
C40   C49   A    
C23   O23   A    
C17   C20   S    
C40   C48   A    
C18   C19   S    
Cr6   O18   S    
C50   C64   S    
C16   C53   S    
Cr1   O5    S    
C12   C59   S    
C47   C48   A    
C1    O12   A    
C29   C38   A    
C39   H6    S    
C24   C27   S    
C54   O15   A    
Cr3   O23   S    
O36   H27   S    
C7    C58   A    
C54   O14   A    
C30   C33   A    
C62   H22   S    
C15   C23   S    
Cr3   O3    S    
C41   C43   A    
Cr6   O19   S    
Cr4   O19   S    
C34   C41   S    
Cr4   O7    S    
C11   C66   S    
C44   C46   A    
Cr5   O8    S    
C28   C45   S    
C53   O11   A    
C8    H15   S    
C48   H8    S    
O30   H24   S    
C38   C39   A    
C24   C25   D    
Cr4   O14   S    
C12   O21   A    
C10   C14   S    
C61   H19   S    
C32   H7    S    
Cr1   O12   S    
Cr3   O22   S    
Cr6   O10   S    
C25   C26   S    
C57   O18   A    
C30   C56   S    
C62   H21   S    
Cr6   O17   S    
C18   C68   S    
C45   O3    A    
C9    C14   T    
C56   O4    A    
C31   C32   A    
C13   C15   T    
C16   C20   T    
C3    H16   S    
C17   C18   D    
C49   H10   S    
C38   C61   S    
Cr1   O24   S    
C56   O24   A    
C64   O29   D    
C52   C58   S    
Cr6   O11   S    
C6    H1    S    
C49   C50   A    
C22   C27   T    
C37   H5    S    
Cr3   O4    S    
Cr1   O1    S    
C67   O35   D    
C41   C44   A    
C52   O10   A    
C45   O2    A    
C25   H3    S    
C42   C43   A    
C29   C37   A    
C3    C4    A    
C65   O32   S    
C62   H20   S    
Cr2   O5    S    
Cr5   O9    S    
Cr2   O2    S    
C46   C47   A    
C60   H14   S    
C17   H2    S    
C40   C57   S    
C5    C60   A    
Cr3   O5    S    
C2    C59   A    
C44   H13   S    
Cr4   O13   S    
C4    C5    A    
Cr2   O21   S    
C7    H9    S    
O38   H28   S    
C22   C55   S    
C68   O37   D    
C46   C50   A    
C26   C28   T    
C34   O26   A    
C63   O28   S    
C66   O33   D    
Cr5   O15   S    
C61   H17   S    
C51   O7    A    
C30   C32   A    
C11   C13   S    
C65   O31   D    
C55   O16   A    
C33   C35   A    
C31   C62   S    
C53   O6    A    
C42   C47   A    
O34   H26   S    
Cr1   O25   S    
C64   O30   S    
C10   C11   D    
C2    C65   S    
C42   H11   S    
O28   H23   S    
C57   O13   A    
C55   O17   A    
C67   O36   S    
C31   C36   A    
C52   O9    A    
C66   O34   S    
C63   O27   D    
C1    O20   A    
Cr4   O6    S    
O32   H25   S    
Cr2   O20   S    
C3    C59   A    
