data_mof_unit_32109.cif
_audit_creation_date              2013-03-05T15:56:55-0500
_audit_creation_method            fapswitch 2.2
_symmetry_space_group_name_H-M    P1
_symmetry_Int_Tables_number       1
_space_group_crystal_system       triclinic
_cell_length_a                    6.933314
_cell_length_b                    14.526414
_cell_length_c                    16.086144
_cell_angle_alpha                 90.028815
_cell_angle_beta                  89.970735
_cell_angle_gamma                 90.029043
_cell_volume                      1620.13450418

loop_
_atom_site_label
_atom_site_type_symbol
_atom_site_description
_atom_site_fract_x
_atom_site_fract_y
_atom_site_fract_z
_atom_type_partial_charge
O1    O     O_R   0.505680 0.583900 0.413320 -0.555662
O2    O     O_R   0.176010 0.594950 0.586080 -0.595736
O3    O     O_R   0.005680 0.416100 0.586680 -0.603957
C1    C     C_R   0.344856 0.616888 0.615071 0.962871
O4    O     O_R   0.175960 0.594930 0.413930 -0.554031
O5    O     O_R   0.005640 0.416080 0.413300 -0.605963
C2    C     C_R   0.345069 0.617310 0.385136 1.110610
O6    O     O_R   0.505720 0.583920 0.586700 -0.601233
O7    O     O_3   0.339190 0.441320 0.500000 -0.297816
V1    V     V_3+5 0.064350 0.510890 0.500000 1.236807
O8    O     O_R   0.675920 0.405050 0.413920 -0.589002
C3    C     C_R   0.844776 0.383157 0.384874 1.012865
O9    O     O_R   0.675960 0.405070 0.586070 -0.611725
C4    C     C_R   0.844695 0.383077 0.614819 0.959533
V2    V     V_3+5 0.564340 0.489110 0.500000 1.216400
O10   O     O_3   0.839370 0.558680 0.500000 -0.239459
C5    C     C_R   0.986122 0.324548 0.748726 0.184733
C6    C     C_R   0.851887 0.316320 0.684189 -0.262670
C7    C     C_R   0.715898 0.244540 0.690095 -0.246126
H1    H     H_    0.606638 0.237001 0.642446 0.172853
C8    C     C_R   0.728639 0.177552 0.753475 0.478786
C9    C     C_R   0.874805 0.183479 0.815308 -0.344923
C10   C     C_R   0.995804 0.260751 0.812924 0.127781
C11   C     C_3   0.210212 0.268142 0.817797 -0.396269
C12   C     C_3   0.199496 0.337613 0.747119 -0.459877
H2    H     H_    0.283227 0.203075 0.800260 0.237498
H3    H     H_    0.258836 0.298900 0.877507 0.221457
H4    H     H_    0.266399 0.312494 0.688506 0.208455
H5    H     H_    0.242325 0.408297 0.766148 0.196986
C13   C     C_R   0.025030 0.255835 0.193534 0.378325
C14   C     C_R   0.011421 0.318633 0.259644 -0.169850
H6    H     H_    0.122327 0.370690 0.266554 0.163743
C15   C     C_R   0.855714 0.315972 0.315429 -0.186944
C16   C     C_R   0.711652 0.249308 0.303797 -0.102441
H7    H     H_    0.589831 0.245553 0.345838 0.135637
C17   C     C_R   0.725491 0.185277 0.238914 -0.008502
H8    H     H_    0.614363 0.133256 0.233115 0.167630
C18   C     C_R   0.881509 0.187226 0.182861 -0.304510
C19   C     C_R   0.211984 0.750881 0.695987 -0.085978
H9    H     H_    0.090386 0.754696 0.653882 0.157471
C20   C     C_R   0.225763 0.814865 0.760910 -0.023876
H10   H     H_    0.114791 0.866914 0.766705 0.169233
C21   C     C_R   0.381544 0.812824 0.817016 -0.300436
C22   C     C_R   0.524985 0.744244 0.806308 0.386842
C23   C     C_R   0.511373 0.681467 0.740203 -0.217591
H11   H     H_    0.622166 0.629401 0.733294 0.152169
C24   C     C_R   0.355817 0.684145 0.684426 -0.187494
C25   C     C_R   0.234841 0.765455 0.317424 0.398860
C26   C     C_R   0.245388 0.830612 0.252460 0.425723
C27   C     C_R   0.378461 0.818600 0.186662 -0.388269
C28   C     C_R   0.501206 0.742085 0.187804 -0.208488
H12   H     H_    0.603383 0.731901 0.137623 0.202505
C29   C     C_R   0.490343 0.676497 0.251339 0.506938
C30   C     C_R   0.356239 0.686968 0.317113 -0.482527
O11   O     O_R   0.229200 0.915950 0.913350 -0.591228
O12   O     O_R   0.559090 0.905000 0.086080 -0.600043
O13   O     O_R   0.729280 0.083880 0.086680 -0.591426
C31   C     C_R   0.390117 0.884701 0.116308 1.060834
O14   O     O_R   0.558920 0.904980 0.913920 -0.553246
O15   O     O_R   0.729110 0.083860 0.913300 -0.567053
C32   C     C_R   0.390362 0.881836 0.885637 1.005395
O16   O     O_R   0.229360 0.915970 0.086730 -0.566724
O17   O     O_3   0.395680 0.058580 0.000030 -0.255618
V3    V     V_3+5 0.670570 0.989070 0.999990 1.299889
O18   O     O_R   0.058820 0.094950 0.913870 -0.604381
C33   C     C_R   0.889735 0.115326 0.883760 1.016931
O19   O     O_R   0.058990 0.094970 0.086020 -0.553983
C34   C     C_R   0.890410 0.118122 0.114300 1.006687
V4    V     V_3+5 0.170560 0.010930 0.999930 1.293599
O20   O     O_3   0.895590 0.941310 0.999960 -0.247473
N1    N     N_R   0.680783 0.734274 0.863862 0.224759
O21   O     O_R   0.831573 0.786969 0.857095 -0.397279
O22   O     O_R   0.691393 0.660430 0.909326 -0.379523
Cl1   Cl    Cl    0.075312 0.786341 0.401353 -0.543471
Cl2   Cl    Cl    0.098039 0.930033 0.257086 -0.584047
Cl3   Cl    Cl    0.642489 0.579613 0.243038 -0.594135
Cl4   Cl    Cl    0.573803 0.081531 0.746160 -0.679188
N2    N     N_R   0.180871 0.265815 0.135920 0.226610
O23   O     O_R   0.191203 0.339464 0.090181 -0.370857
O24   O     O_R   0.331742 0.213264 0.142715 -0.396382

loop_
_geom_bond_atom_site_label_1
_geom_bond_atom_site_label_2
_geom_bond_distance
_ccdc_geom_bond_type
C31   O16   1.294705 A    
C20   H10   1.082959 S    
C4    C6    1.479633 S    
C7    H1    1.083413 S    
C11   H3    1.111583 S    
C1    O6    1.296681 A    
C19   C20   1.400982 A    
C29   C30   1.416364 A    
C12   H4    1.112056 S    
C25   C30   1.417505 A    
O14   V3    2.001683 S    
C5    C10   1.389583 A    
C17   H8    1.082963 S    
C7    C8    1.412574 A    
C11   H2    1.108746 S    
C16   H7    1.083111 S    
O5    C3    1.296733 A    
C13   C14   1.403924 A    
N2    O24   1.299960 A    
V2    O10   2.157663 S    
C13   C18   1.418434 A    
C22   N1    1.430484 S    
C6    C7    1.408634 A    
C9    C33   1.484809 S    
O8    V2    2.001273 S    
O17   V4    1.707107 S    
C10   C11   1.492476 S    
O12   V3    2.001578 S    
O1    V2    2.002177 S    
V3    O20   1.707761 S    
O7    V1    2.157406 S    
O15   C33   1.293888 A    
C8    C9    1.422897 A    
C20   C21   1.408217 A    
C15   C16   1.403392 A    
C23   C24   1.403857 A    
C12   H5    1.111589 S    
O14   C32   1.298378 A    
C28   H12   1.083866 S    
C27   C31   1.486693 S    
C25   Cl1   1.771046 S    
C11   C12   1.522452 S    
C19   H9    1.083167 S    
O4    C2    1.301602 A    
N2    O23   1.300675 A    
C27   C28   1.400358 A    
C23   H11   1.083922 S    
O19   C34   1.298422 A    
O16   V4    2.005419 S    
C28   C29   1.399580 A    
O2    C1    1.299816 A    
C21   C22   1.418405 A    
C14   H6    1.083927 S    
C14   C15   1.404010 A    
C5    C6    1.399630 A    
C26   Cl2   1.770979 S    
O11   V4    2.001675 S    
O3    C4    1.296134 A    
C25   C26   1.412137 A    
C18   C34   1.492210 S    
O18   C33   1.302925 A    
O6    V2    2.001288 S    
O9    V2    2.002488 S    
C29   Cl3   1.764216 S    
O13   C34   1.301006 A    
C8    Cl4   1.763617 S    
O2    V1    2.001554 S    
C22   C23   1.403677 A    
C21   C32   1.492013 S    
O13   V3    2.001310 S    
C19   C24   1.403378 A    
O1    C2    1.297075 A    
O5    V1    2.001423 S    
O8    C3    1.299895 A    
O15   V3    2.001546 S    
C5    C12   1.491635 S    
C17   C18   1.408168 A    
O7    V2    1.708120 S    
O4    V1    2.001435 S    
O3    V1    2.001617 S    
V1    O10   1.707685 S    
O18   V4    2.002520 S    
O11   C32   1.301030 A    
O12   C31   1.301966 A    
C16   C17   1.400967 A    
V4    O20   2.157637 S    
O17   V3    2.157303 S    
C13   N2    1.430507 S    
N1    O21   1.299984 A    
C26   C27   1.414552 A    
N1    O22   1.300706 A    
C9    C10   1.401522 A    
C2    C30   1.492705 S    
O19   V4    2.001180 S    
C3    C15   1.484934 S    
O9    C4    1.298331 A    
C1    C24   1.484561 S    
