data_mof_unit_14253.cif
_audit_creation_date              2012-12-10T18:53:40-0500
_audit_creation_method            fapswitch 2.2
_symmetry_space_group_name_H-M    P1
_symmetry_Int_Tables_number       1
_space_group_crystal_system       triclinic
_cell_length_a                    10.728221
_cell_length_b                    9.818379
_cell_length_c                    18.975156
_cell_angle_alpha                 90.055915
_cell_angle_beta                  92.965434
_cell_angle_gamma                 90.041797
_cell_volume                      1996.04614705

loop_
_atom_site_label
_atom_site_type_symbol
_atom_type_description
_atom_site_fract_x
_atom_site_fract_y
_atom_site_fract_z
_atom_type_partial_charge
C1    C     C_R   0.260684 0.500700 0.508011 0.950515
C2    C     C_R   0.739498 0.500755 0.492296 0.948962
C3    C     C_R   0.489835 0.513491 0.931052 0.354462
C4    C     C_R   0.553419 0.513231 0.070385 0.359256
C5    C     C_R   0.518018 0.499652 0.366328 0.930130
C6    C     C_R   0.483346 0.499742 0.633898 0.930261
C7    C     C_R   0.061243 0.381096 0.513472 0.176482
C8    C     C_R   0.937584 0.629380 0.490460 0.212350
C9    C     C_R   0.938981 0.381156 0.487287 0.175482
C10   C     C_R   0.063071 0.629259 0.511114 0.213027
C11   C     C_R   0.873132 0.504177 0.484894 -0.259429
C12   C     C_R   0.127268 0.504033 0.516039 -0.259094
C13   C     C_R   0.578171 0.072922 0.546606 0.230232
C14   C     C_R   0.425128 0.926905 0.451721 0.239038
C15   C     C_R   0.421647 0.072599 0.453480 0.230787
C16   C     C_R   0.574717 0.927238 0.548354 0.238387
C17   C     C_R   0.589641 0.622316 0.259054 0.167365
C18   C     C_R   0.444281 0.375920 0.747222 0.179695
C19   C     C_R   0.418003 0.621074 0.743177 0.172430
C20   C     C_R   0.572902 0.375544 0.254671 0.192215
C21   C     C_R   0.593198 0.627111 0.185432 0.132459
C22   C     C_R   0.452257 0.380203 0.821113 0.139271
C23   C     C_R   0.423217 0.626453 0.817192 0.119412
C24   C     C_R   0.581162 0.379351 0.181075 0.127795
C25   C     C_R   0.579713 0.505988 0.146498 -0.078861
C26   C     C_R   0.453097 0.507269 0.855700 -0.080848
C27   C     C_R   0.558353 0.498951 0.292526 -0.247064
C28   C     C_R   0.449419 0.498943 0.708716 -0.239907
N1    N     N_R   0.500000 0.857200 0.500000 -0.108037
N2    N     N_R   0.500000 0.142800 0.500000 -0.104914
N3    N     N_R   0.616912 0.435201 0.025680 -0.160499
N4    N     N_R   0.427835 0.593350 0.975704 -0.159017
N5    N     N_R   0.585799 0.435590 0.957095 -0.153858
N6    N     N_R   0.459107 0.593249 0.044309 -0.161091
O1    O     O_R   0.316770 0.614620 0.500000 -0.586965
O2    O     O_R   0.683230 0.385380 0.500000 -0.569890
O3    O     O_R   0.683230 0.614620 0.500000 -0.586360
O4    O     O_R   0.316770 0.385380 0.500000 -0.570272
O5    O     O_R   0.499990 0.614700 0.398140 -0.568613
O6    O     O_R   0.500010 0.385300 0.601860 -0.582855
O7    O     O_R   0.500010 0.614700 0.601860 -0.568797
O8    O     O_R   0.499990 0.385300 0.398140 -0.581625
Zn1   Zn    Zn3+2 0.500000 0.653120 0.500000 1.064358
Zn2   Zn    Zn3+2 0.500000 0.346880 0.500000 1.064725
Br1   Br    Br    0.123631 0.221648 0.562918 -0.392797
Br2   Br    Br    0.865380 0.800637 0.458533 -0.383771
Br3   Br    Br    0.876586 0.221685 0.437617 -0.396061
Br4   Br    Br    0.136115 0.800084 0.543584 -0.381961
Br5   Br    Br    0.656030 0.776369 0.311845 -0.434400
Br6   Br    Br    0.398013 0.205036 0.702439 -0.481918
Br7   Br    Br    0.345135 0.772902 0.691489 -0.437761
Br8   Br    Br    0.603600 0.202774 0.301102 -0.490707
N7    N     N_2   0.608836 0.753514 0.149888 -0.288610
H1    H     H_    0.572645 0.837432 0.174338 0.262867
C29   C     C_3   0.732732 0.776307 0.125562 -0.692281
H2    H     H_    0.801325 0.785478 0.171236 0.266581
H3    H     H_    0.733663 0.871980 0.094528 0.225256
H4    H     H_    0.760725 0.691510 0.090983 0.236387
N8    N     N_2   0.460972 0.257215 0.861110 -0.284541
H5    H     H_    0.506372 0.178063 0.837576 0.255344
C30   C     C_3   0.346494 0.215809 0.892057 -0.693127
H6    H     H_    0.274432 0.189980 0.849995 0.266114
H7    H     H_    0.311022 0.298205 0.925791 0.237310
H8    H     H_    0.364510 0.124567 0.925559 0.228873
N9    N     N_2   0.406439 0.752514 0.852804 -0.290640
H9    H     H_    0.448090 0.834811 0.829771 0.254731
C31   C     C_3   0.279243 0.780345 0.870597 -0.653163
H10   H     H_    0.219900 0.802791 0.822365 0.268340
H11   H     H_    0.278115 0.870217 0.906117 0.223631
H12   H     H_    0.238854 0.692173 0.898121 0.241142
N10   N     N_2   0.582051 0.256445 0.141015 -0.290720
H13   H     H_    0.521951 0.182181 0.157319 0.250043
C32   C     C_3   0.705135 0.204211 0.128383 -0.662027
H14   H     H_    0.749128 0.160106 0.177415 0.271597
H15   H     H_    0.766455 0.285957 0.109238 0.243675
H16   H     H_    0.697005 0.123334 0.087541 0.224210
N11   N     N_2   0.656863 0.148517 0.595195 -0.277143
H17   H     H_    0.623731 0.160249 0.644631 0.251201
C33   C     C_3   0.790395 0.127391 0.595670 -0.604467
H18   H     H_    0.825736 0.084014 0.646711 0.214642
H19   H     H_    0.836745 0.227287 0.590495 0.266905
H20   H     H_    0.816885 0.058562 0.552582 0.289205
N12   N     N_2   0.347345 0.851037 0.402746 -0.254690
H21   H     H_    0.257161 0.835685 0.416795 0.260031
C34   C     C_3   0.360525 0.871223 0.327842 -0.697244
H22   H     H_    0.273457 0.913124 0.302581 0.210713
H23   H     H_    0.376485 0.771453 0.302560 0.255548
H24   H     H_    0.438897 0.940755 0.317329 0.275405
N13   N     N_2   0.342407 0.147863 0.405152 -0.276736
H25   H     H_    0.375148 0.160089 0.355665 0.252237
C35   C     C_3   0.208979 0.125907 0.404882 -0.606705
H26   H     H_    0.173649 0.081810 0.353948 0.214448
H27   H     H_    0.162263 0.225570 0.409968 0.267367
H28   H     H_    0.182935 0.057339 0.448131 0.289009
N14   N     N_2   0.652173 0.851755 0.597522 -0.254237
H29   H     H_    0.742557 0.836825 0.583779 0.260765
C36   C     C_3   0.638472 0.872493 0.672350 -0.701025
H30   H     H_    0.724853 0.916159 0.697632 0.211006
H31   H     H_    0.623929 0.772697 0.697808 0.254613
H32   H     H_    0.559106 0.940752 0.682607 0.276438

loop_
_geom_bond_atom_site_label_1
_geom_bond_atom_site_label_2
_ccdc_geom_bond_type
C5    O8    A    
C32   H15   S    
C32   H14   S    
N14   H29   S    
C29   H2    S    
C4    C25   S    
N7    H1    S    
C1    O1    A    
C7    Br1   S    
C34   H22   S    
C15   N13   S    
C3    N5    A    
C23   C26   A    
C30   H7    S    
C5    C27   S    
C6    C28   S    
C20   C24   A    
N9    C31   S    
C6    O7    A    
N3    N5    A    
N13   C35   S    
O1    Zn1   S    
N11   C33   S    
N8    H5    S    
N1    Zn1   S    
O7    Zn1   S    
N2    Zn2   S    
C30   H6    S    
C1    C12   S    
O8    Zn2   S    
C14   N12   S    
C2    C11   S    
C36   H31   S    
C36   H30   S    
C4    N6    A    
N7    C29   S    
C7    C12   A    
C13   N11   S    
N8    C30   S    
C34   H23   S    
C31   H10   S    
C17   C27   A    
C13   N2    A    
C18   C28   A    
C24   C25   A    
C17   Br5   S    
C22   N8    S    
N10   C32   S    
O5    Zn1   S    
C16   N1    A    
N11   H17   S    
C17   C21   A    
C31   H11   S    
N4    N6    A    
O3    Zn1   S    
C30   H8    S    
C19   C23   A    
O4    Zn2   S    
C35   H27   S    
N12   H21   S    
C19   C28   A    
C9    C11   A    
C10   C12   A    
C1    O4    A    
N12   C34   S    
C9    Br3   S    
C5    O5    A    
C10   Br4   S    
C32   H16   S    
C6    O6    A    
O2    Zn2   S    
C14   N1    A    
C35   H26   S    
C36   H32   S    
C18   Br6   S    
C15   N2    A    
C33   H19   S    
C34   H24   S    
C2    O2    A    
C7    C9    A    
C21   C25   A    
C16   N14   S    
C18   C22   A    
C3    C26   S    
C33   H20   S    
N14   C36   S    
C20   C27   A    
C31   H12   S    
C23   N9    S    
C29   H3    S    
C13   C16   A    
N10   H13   S    
C20   Br8   S    
C35   H28   S    
C21   N7    S    
C2    O3    A    
C8    C11   A    
C3    N4    A    
C8    Br2   S    
C4    N3    A    
C33   H18   S    
C19   Br7   S    
O6    Zn2   S    
C8    C10   A    
N9    H9    S    
C22   C26   A    
C29   H4    S    
C14   C15   A    
N13   H25   S    
C24   N10   S    
