data_mof_unit_17850.cif
_audit_creation_date              2012-12-11T14:40:17-0500
_audit_creation_method            fapswitch 2.2
_symmetry_space_group_name_H-M    P1
_symmetry_Int_Tables_number       1
_space_group_crystal_system       triclinic
_cell_length_a                    19.466149
_cell_length_b                    10.983138
_cell_length_c                    19.466412
_cell_angle_alpha                 89.500151
_cell_angle_beta                  97.212993
_cell_angle_gamma                 90.164067
_cell_volume                      4128.80726268

loop_
_atom_site_label
_atom_site_type_symbol
_atom_type_description
_atom_site_fract_x
_atom_site_fract_y
_atom_site_fract_z
_atom_type_partial_charge
Br1   Br    Br    0.666685 0.599034 0.405463 -0.392509
Br2   Br    Br    0.409137 0.482821 0.555560 -0.386197
Br3   Br    Br    0.167102 0.099188 0.405318 -0.392493
Br4   Br    Br    0.909178 0.982630 0.555522 -0.386338
Br5   Br    Br    0.426482 0.930103 0.061098 -0.428783
Br6   Br    Br    0.570328 0.926025 0.942592 -0.431005
Br7   Br    Br    0.926250 0.430353 0.061111 -0.428940
Br8   Br    Br    0.070133 0.425711 0.942622 -0.430867
C1    C     C_R   0.726308 0.949056 0.359811 0.596196
C2    C     C_3   0.257125 0.396078 0.566288 -0.006946
C3    C     C_3   0.231494 0.850007 0.440128 -0.002215
C4    C     C_3   0.757146 0.896020 0.566277 -0.006933
C5    C     C_3   0.714004 0.475774 0.466185 0.196663
C6    C     C_3   0.315253 0.432279 0.523582 0.161788
C7    C     C_3   0.214180 0.975845 0.466128 0.196695
C8    C     C_3   0.815282 0.932149 0.523565 0.161763
C9    C     C_3   0.785302 0.477595 0.511255 -0.152794
C10   C     C_3   0.264267 0.521302 0.483037 -0.175028
C11   C     C_3   0.285457 0.977401 0.511249 -0.152740
C12   C     C_R   0.273279 0.950681 0.640144 0.553341
C13   C     C_3   0.764335 0.021265 0.483047 -0.174934
C14   C     C_3   0.802492 0.350918 0.484955 -0.133914
C15   C     C_3   0.206168 0.483991 0.526833 -0.201642
C16   C     C_3   0.302478 0.850597 0.485006 -0.133997
C17   C     C_3   0.706231 0.984019 0.526853 -0.201657
C18   C     C_3   0.768675 0.288126 0.543632 -0.187325
C19   C     C_3   0.183252 0.381723 0.475362 -0.125861
C20   C     C_3   0.268514 0.788050 0.543674 -0.187355
C21   C     C_3   0.683250 0.881810 0.475367 -0.125976
C22   C     C_3   0.752203 0.413446 0.569736 0.018394
C23   C     C_R   0.226308 0.449051 0.359811 0.596229
C24   C     C_3   0.241149 0.418870 0.432253 0.060123
C25   C     C_3   0.252213 0.913496 0.569719 0.018358
C26   C     C_3   0.741154 0.918884 0.432250 0.060122
C27   C     C_3   0.529920 0.269261 0.975844 -0.145368
C28   C     C_3   0.471519 0.270935 0.022779 -0.144180
C29   C     C_3   0.030067 0.769162 0.975827 -0.145403
C30   C     C_3   0.971653 0.771063 0.022759 -0.144060
C31   C     C_3   0.568010 0.168177 0.021192 -0.130579
C32   C     C_3   0.432065 0.170356 0.978912 -0.130003
C33   C     C_3   0.068050 0.667964 0.021189 -0.130598
C34   C     C_R   0.773269 0.450649 0.640158 0.553409
C35   C     C_3   0.932091 0.670570 0.978900 -0.129957
C36   C     C_3   0.509175 0.170480 0.067484 0.032311
C37   C     C_3   0.490889 0.169282 0.932585 0.030696
C38   C     C_3   0.009202 0.670492 0.067475 0.032295
C39   C     C_3   0.990927 0.669271 0.932574 0.030695
C40   C     C_R   0.534250 0.179698 0.337291 0.534929
C41   C     C_R   0.436197 0.183829 0.651962 0.548775
C42   C     C_R   0.034249 0.679697 0.337290 0.534930
C43   C     C_R   0.936196 0.683828 0.651962 0.548785
C44   C     C_3   0.470602 0.070416 0.024464 0.188051
C45   C     C_3   0.697121 0.287525 0.497941 -0.166902
C46   C     C_3   0.528128 0.068771 0.977090 0.187879
C47   C     C_3   0.970522 0.570516 0.024462 0.187950
C48   C     C_3   0.028060 0.568645 0.977090 0.187938
C49   C     C_1   0.756789 0.408908 0.899620 0.025790
C50   C     C_1   0.243119 0.410863 0.100241 0.028162
C51   C     C_1   0.256785 0.908897 0.899618 0.025703
C52   C     C_1   0.743120 0.910864 0.100241 0.028230
C53   C     C_1   0.733416 0.358992 0.025716 -0.002286
C54   C     C_1   0.265681 0.360785 0.974141 -0.002190
C55   C     C_1   0.233405 0.858959 0.025711 -0.002409
C56   C     C_3   0.234895 0.292641 0.515363 -0.092891
C57   C     C_1   0.765681 0.860796 0.974141 -0.002092
C58   C     C_1   0.743969 0.383022 0.956762 0.001319
C59   C     C_1   0.255538 0.385273 0.043079 0.002564
C60   C     C_1   0.243961 0.882999 0.956758 0.001191
C61   C     C_1   0.755540 0.885278 0.043080 0.002677
C62   C     C_1   0.727236 0.338907 0.085433 0.017985
C63   C     C_1   0.271838 0.340024 0.914594 0.018108
C64   C     C_1   0.227226 0.838876 0.085429 0.017909
C65   C     C_1   0.771836 0.840035 0.914593 0.018155
C66   C     C_R   0.724657 0.311877 0.368082 0.560259
C67   C     C_3   0.196981 0.787710 0.497933 -0.166783
C68   C     C_R   0.261122 0.363545 0.638155 0.556080
C69   C     C_R   0.224646 0.811827 0.368077 0.560230
C70   C     C_R   0.761131 0.863519 0.638146 0.556118
C71   C     C_R   0.722879 0.951300 0.164448 0.548714
C72   C     C_R   0.277118 0.950664 0.835467 0.539793
C73   C     C_R   0.222878 0.451300 0.164448 0.548704
C74   C     C_R   0.777118 0.450664 0.835466 0.539836
C75   C     C_R   0.529956 0.178810 0.141083 0.558779
C76   C     C_R   0.470118 0.178351 0.858920 0.565182
C77   C     C_R   0.029964 0.678813 0.141078 0.558822
C78   C     C_3   0.734851 0.792637 0.515339 -0.093026
C79   C     C_R   0.970135 0.678349 0.858911 0.565107
C80   C     C_R   0.721964 0.310439 0.156348 0.551460
C81   C     C_R   0.277658 0.310787 0.843999 0.546769
C82   C     C_R   0.221960 0.810428 0.156349 0.551466
C83   C     C_R   0.777657 0.810791 0.843999 0.546785
C84   C     C_1   0.455418 0.176106 0.583723 0.048468
C85   C     C_1   0.505310 0.171009 0.400968 0.047256
C86   C     C_1   0.955411 0.676096 0.583721 0.048376
C87   C     C_1   0.005303 0.671006 0.400964 0.047175
C88   C     C_1   0.487182 0.168638 0.457709 0.061829
C89   C     C_3   0.731493 0.350068 0.440128 -0.002163
C90   C     C_1   0.469883 0.170944 0.525613 0.058722
C91   C     C_1   0.987170 0.668630 0.457704 0.061638
C92   C     C_1   0.969872 0.670931 0.525609 0.058512
C93   C     C_3   0.681570 0.413974 0.525355 0.418334
C94   C     C_3   0.292029 0.331700 0.471785 0.391273
C95   C     C_3   0.181600 0.914292 0.525287 0.418337
C96   C     C_3   0.791993 0.831619 0.471754 0.391154
Cr1   Cr    Cr6+3 0.765830 0.160660 0.268180 1.071521
Cr2   Cr    Cr6+3 0.384070 0.324050 0.751550 1.082434
Cr3   Cr    Cr6+3 0.115930 0.824050 0.248450 1.099272
Cr4   Cr    Cr6+3 0.884070 0.824050 0.751550 1.082415
Cr5   Cr    Cr6+3 0.234170 0.160660 0.731820 1.087968
Cr6   Cr    Cr6+3 0.265830 0.660660 0.268180 1.071543
Cr7   Cr    Cr6+3 0.734170 0.660660 0.731820 1.087954
Cr8   Cr    Cr6+3 0.612110 0.009150 0.248770 1.090322
Cr9   Cr    Cr6+3 0.387890 0.009150 0.751230 1.081796
Cr10  Cr    Cr6+3 0.112110 0.509150 0.248770 1.090279
Cr11  Cr    Cr6+3 0.887890 0.509150 0.751230 1.081798
Cr12  Cr    Cr6+3 0.615930 0.324050 0.248450 1.099311
F1    F     F_    0.620069 0.447230 0.548521 -0.568043
F2    F     F_    0.334230 0.253887 0.440821 -0.624900
F3    F     F_    0.120132 0.947954 0.548380 -0.567997
F4    F     F_    0.834133 0.753745 0.440754 -0.624957
H1    H     H_    0.657814 0.214639 0.488206 0.109437
H2    H     H_    0.171674 0.543144 0.553108 0.138649
H3    H     H_    0.352788 0.823994 0.468343 0.181212
H4    H     H_    0.671777 0.043158 0.553179 0.138745
H5    H     H_    0.791359 0.213368 0.577898 0.171669
H6    H     H_    0.128902 0.359516 0.454787 0.186671
H7    H     H_    0.291083 0.713226 0.577986 0.171561
H8    H     H_    0.628889 0.859693 0.454801 0.186636
H9    H     H_    0.624129 0.164964 0.040223 0.111507
H10   H     H_    0.375920 0.168742 0.959928 0.112751
H11   H     H_    0.124174 0.664590 0.040225 0.111535
H12   H     H_    0.223167 0.199624 0.532906 0.169975
H13   H     H_    0.875939 0.669117 0.959918 0.112705
H14   H     H_    0.555115 0.349772 0.954779 0.154963
H15   H     H_    0.447467 0.352850 0.042653 0.155537
H16   H     H_    0.055355 0.849584 0.954755 0.154871
H17   H     H_    0.947681 0.853087 0.042621 0.155586
H18   H     H_    0.157605 0.714912 0.488259 0.109456
H19   H     H_    0.723059 0.699654 0.532887 0.169920
H20   H     H_    0.322134 0.055054 0.518446 0.156405
H21   H     H_    0.780681 0.109588 0.463477 0.153699
H22   H     H_    0.821872 0.555385 0.518471 0.156455
H23   H     H_    0.280553 0.609623 0.463427 0.153592
H24   H     H_    0.852826 0.324642 0.468229 0.181181
O1    O     O_R   0.783230 0.287800 0.346510 -0.496087
O2    O     O_R   0.454570 0.285140 0.836900 -0.516820
O3    O     O_R   0.045430 0.785140 0.163100 -0.520404
O4    O     O_R   0.954570 0.785140 0.836900 -0.516793
O5    O     O_R   0.677850 0.374730 0.185500 -0.469958
O6    O     O_R   0.322150 0.374730 0.814500 -0.486069
O7    O     O_R   0.177850 0.874730 0.185500 -0.469931
O8    O     O_R   0.822150 0.874730 0.814500 -0.486052
O9    O     O_3   0.664630 0.164620 0.255130 -0.337132
O10   O     O_3   0.335370 0.164620 0.744870 -0.330682
O11   O     O_3   0.164630 0.664620 0.255130 -0.337168
O12   O     O_R   0.216770 0.287800 0.653490 -0.498205
O13   O     O_3   0.835370 0.664620 0.744870 -0.330666
O14   O     O_R   0.760130 0.037060 0.338610 -0.519653
O15   O     O_R   0.239870 0.037060 0.661390 -0.475154
O16   O     O_R   0.260130 0.537060 0.338610 -0.519667
O17   O     O_R   0.739870 0.537060 0.661390 -0.475225
O18   O     O_R   0.666620 0.921370 0.332440 -0.492782
O19   O     O_R   0.333380 0.921370 0.667560 -0.514385
O20   O     O_R   0.166620 0.421370 0.332440 -0.492771
O21   O     O_R   0.833380 0.421370 0.667560 -0.514413
O22   O     O_R   0.557170 0.082420 0.312350 -0.503915
O23   O     O_R   0.283230 0.787800 0.346510 -0.496018
O24   O     O_R   0.442830 0.082420 0.687650 -0.494842
O25   O     O_R   0.057170 0.582420 0.312350 -0.503896
O26   O     O_R   0.942830 0.582420 0.687650 -0.494841
O27   O     O_R   0.548310 0.285980 0.316250 -0.481860
O28   O     O_R   0.451690 0.285980 0.683750 -0.445863
O29   O     O_R   0.048310 0.785980 0.316250 -0.481930
O30   O     O_R   0.951690 0.785980 0.683750 -0.445945
O31   O     O_R   0.680520 0.375500 0.327470 -0.430787
O32   O     O_R   0.319480 0.375500 0.672530 -0.484838
O33   O     O_R   0.180520 0.875500 0.327470 -0.430736
O34   O     O_R   0.716770 0.787800 0.653490 -0.498267
O35   O     O_R   0.819480 0.875500 0.672530 -0.484824
O36   O     O_R   0.780350 0.286970 0.193350 -0.460324
O37   O     O_R   0.219650 0.286970 0.806650 -0.469715
O38   O     O_R   0.280350 0.786970 0.193350 -0.460342
O39   O     O_R   0.719650 0.786970 0.806650 -0.469668
O40   O     O_R   0.757460 0.036290 0.196640 -0.515640
O41   O     O_R   0.242540 0.036290 0.803360 -0.511882
O42   O     O_R   0.257460 0.536290 0.196640 -0.515630
O43   O     O_R   0.742540 0.536290 0.803360 -0.511881
O44   O     O_R   0.663740 0.920540 0.179290 -0.470093
O45   O     O_R   0.554500 0.081650 0.170370 -0.468820
O46   O     O_R   0.336260 0.920540 0.820710 -0.478318
O47   O     O_R   0.163740 0.420540 0.179290 -0.470123
O48   O     O_R   0.836260 0.420540 0.820710 -0.478284
O49   O     O_R   0.445500 0.081650 0.829630 -0.465430
O50   O     O_R   0.054500 0.581650 0.170370 -0.468838
O51   O     O_R   0.945500 0.581650 0.829630 -0.465435
O52   O     O_R   0.545430 0.285140 0.163100 -0.520378

loop_
_geom_bond_atom_site_label_1
_geom_bond_atom_site_label_2
_ccdc_geom_bond_type
C53   C62   T    
Cr10  O25   S    
Cr1   O9    S    
C47   C48   S    
C18   C45   S    
C52   C71   S    
C8    C13   S    
Cr2   O6    S    
C83   O39   A    
Br1   C5    S    
C80   O5    A    
C6    C10   S    
C66   O1    A    
C27   C31   S    
C27   C28   S    
Cr7   O17   S    
Br7   C47   S    
Cr9   O10   S    
C36   C75   S    
C62   C80   S    
Br8   C48   S    
Cr9   O24   S    
C34   O17   A    
C84   C90   T    
C23   C24   S    
C56   C94   S    
Cr9   O46   S    
C29   C30   S    
C10   C24   S    
C54   C59   S    
Cr11  O13   S    
C42   O29   A    
C52   C61   T    
C10   H23   S    
C83   O8    A    
C73   O42   A    
C19   H6    S    
C87   C91   T    
C77   O50   A    
C6    C94   S    
C31   C46   S    
C3    C16   S    
C57   C65   T    
C71   O40   A    
Cr9   O49   S    
C75   O52   A    
C35   H13   S    
Cr5   O12   S    
C73   O47   A    
C32   H10   S    
Cr6   O11   S    
C3    C69   S    
Cr8   O45   S    
Cr4   O8    S    
C2    C68   S    
C53   C58   S    
C8    C96   S    
C4    C8    S    
C45   C93   S    
C11   H20   S    
Cr2   O10   S    
C12   O15   A    
Cr4   O30   S    
C38   C47   S    
Cr7   O34   S    
C72   O41   A    
Br5   C44   S    
C15   C19   S    
Cr11  O21   S    
C49   C58   T    
C23   O16   A    
C94   F2    S    
C34   O21   A    
Cr1   O1    S    
C38   C77   S    
Cr3   O7    S    
C36   C44   S    
C78   C96   S    
Cr1   O40   S    
C14   C89   S    
C25   C95   S    
Cr3   O33   S    
C67   C95   S    
C9    C22   S    
C3    C7    S    
Br6   C46   S    
Cr11  O26   S    
Br2   C6    S    
C27   H14   S    
Cr4   O4    S    
Cr12  O5    S    
C44   C46   S    
C80   O36   A    
C66   C89   S    
C17   C21   S    
C32   C37   S    
Cr2   O28   S    
C77   O3    A    
C79   O4    A    
C70   O35   A    
C82   O38   A    
C28   C32   S    
C65   C83   S    
C41   O24   A    
C71   O44   A    
C50   C73   S    
C33   H11   S    
C13   C26   S    
C31   H9    S    
Cr5   O41   S    
C32   C44   S    
C12   O19   A    
C21   C26   S    
C68   O12   A    
C16   H3    S    
C26   C96   S    
C10   C15   S    
Cr12  O27   S    
C88   C90   S    
C9    H22   S    
C18   H5    S    
C39   C79   S    
Br4   C8    S    
C43   O30   A    
C7    C11   S    
C33   C48   S    
Cr8   O44   S    
C15   H2    S    
C51   C60   T    
Cr9   O19   S    
C40   O27   A    
Cr3   O3    S    
Cr6   O23   S    
C74   O43   A    
Cr10  O20   S    
Cr1   O14   S    
C63   C81   S    
C68   O32   A    
C76   O49   A    
C33   C38   S    
Cr8   O22   S    
Cr7   O39   S    
Cr12  O9    S    
C29   H16   S    
C5    C89   S    
Cr5   O10   S    
C21   C78   S    
C78   H19   S    
Cr11  O48   S    
C35   C47   S    
C81   O6    A    
C20   C25   S    
C18   C22   S    
C85   C88   T    
Cr8   O9    S    
C2    C6    S    
C1    C26   S    
C24   C94   S    
C28   C36   S    
C37   C76   S    
C29   C39   S    
C12   C25   S    
Cr1   O36   S    
C5    C93   S    
C27   C37   S    
C28   H15   S    
Cr10  O11   S    
C4    C70   S    
Cr6   O16   S    
C64   C82   S    
Cr5   O37   S    
C13   C17   S    
C23   O20   A    
Cr6   O42   S    
Cr10  O47   S    
Cr10  O50   S    
Cr12  O31   S    
C74   O48   A    
C19   C24   S    
C70   O34   A    
C72   O46   A    
C75   O45   A    
C43   O26   A    
C95   F3    S    
C16   C20   S    
C11   C25   S    
C82   O7    A    
C67   H18   S    
C51   C72   S    
C37   C46   S    
C41   O28   A    
C20   H7    S    
C31   C36   S    
Cr4   O13   S    
C76   O2    A    
C2    C15   S    
C69   O23   A    
Cr3   O29   S    
C55   C60   S    
C56   H12   S    
C9    C14   S    
Cr2   O2    S    
C91   C92   S    
C4    C78   S    
C4    C17   S    
Cr11  O51   S    
C93   F1    S    
C2    C56   S    
C11   C16   S    
Cr7   O13   S    
C13   H21   S    
C66   O31   A    
C45   H1    S    
Cr8   O18   S    
C1    O14   A    
C57   C61   S    
Cr7   O43   S    
C22   C93   S    
C30   H17   S    
C45   C89   S    
C54   C63   T    
C42   O25   A    
C22   C34   S    
C86   C92   T    
C29   C33   S    
C1    O18   A    
C42   C87   S    
C17   H4    S    
C69   O33   A    
C40   C85   S    
C30   C38   S    
C19   C56   S    
C43   C86   S    
C79   O51   A    
C5    C9    S    
Cr12  O52   S    
C50   C59   T    
C30   C35   S    
C40   O22   A    
C55   C64   T    
Cr6   O38   S    
C14   C18   S    
C21   H8    S    
C14   H24   S    
Cr2   O32   S    
C49   C74   S    
Cr4   O35   S    
Br3   C7    S    
C3    C67   S    
C41   C84   S    
C7    C95   S    
C20   C67   S    
C35   C39   S    
Cr3   O11   S    
C81   O37   A    
C39   C48   S    
C96   F4    S    
Cr5   O15   S    
