data_mof_unit_19557.cif
_audit_creation_date              2012-12-10T16:33:54-0500
_audit_creation_method            fapswitch 2.2
_symmetry_space_group_name_H-M    P1
_symmetry_Int_Tables_number       1
_space_group_crystal_system       triclinic
_cell_length_a                    28.19589
_cell_length_b                    18.470931
_cell_length_c                    17.079251
_cell_angle_alpha                 89.99989
_cell_angle_beta                  60.768937
_cell_angle_gamma                 90.000299
_cell_volume                      7762.24270389

loop_
_atom_site_label
_atom_site_type_symbol
_atom_type_description
_atom_site_fract_x
_atom_site_fract_y
_atom_site_fract_z
_atom_type_partial_charge
C1    C     C_R   0.700954 0.266886 0.676082 0.871355
C2    C     C_R   0.298096 0.731135 0.324202 0.890235
C3    C     C_R   0.298108 0.268841 0.324198 0.893074
C4    C     C_R   0.701608 0.731863 0.675835 0.911490
C5    C     C_R   0.201887 0.768832 0.675803 0.893081
C6    C     C_R   0.798392 0.231862 0.324165 0.911492
C7    C     C_R   0.799046 0.766886 0.323918 0.871360
C8    C     C_R   0.201908 0.231124 0.675797 0.890219
C9    C     C_R   0.021861 0.372284 0.586129 -0.222989
C10   C     C_R   0.960694 0.627306 0.478635 -0.230443
C11   C     C_R   0.917893 0.380293 0.584393 -0.229650
C12   C     C_R   0.030762 0.632384 0.560734 -0.233141
C13   C     C_R   0.582106 0.880291 0.415608 -0.229656
C14   C     C_R   0.469240 0.132384 0.439261 -0.233144
C15   C     C_R   0.478138 0.872284 0.413868 -0.223051
C16   C     C_R   0.539308 0.127305 0.521361 -0.230435
C17   C     C_R   0.719746 0.259242 0.952598 0.032908
C18   C     C_R   0.277644 0.732486 0.048338 0.033770
C19   C     C_R   0.278176 0.266352 0.047970 0.026727
C20   C     C_R   0.725863 0.727529 0.947667 0.043218
C21   C     C_R   0.221841 0.766359 0.952005 0.026800
C22   C     C_R   0.774137 0.227527 0.052332 0.043259
C23   C     C_R   0.780255 0.759243 0.047400 0.032900
C24   C     C_R   0.222344 0.232496 0.951682 0.033528
C25   C     C_R   0.776717 0.270079 0.913880 0.193752
C26   C     C_R   0.226023 0.701470 0.074202 0.186634
C27   C     C_R   0.226706 0.297631 0.073564 0.195841
C28   C     C_R   0.782398 0.713269 0.910122 0.185250
C29   C     C_R   0.273464 0.797281 0.926086 0.195804
C30   C     C_R   0.717601 0.213270 0.089878 0.185234
C31   C     C_R   0.723285 0.770084 0.086117 0.193743
C32   C     C_R   0.273824 0.201152 0.926118 0.186663
C33   C     C_R   0.802562 0.255020 0.964670 -0.250420
C34   C     C_R   0.198796 0.719369 0.026065 -0.264355
C35   C     C_R   0.199477 0.279816 0.025431 -0.254059
C36   C     C_R   0.808738 0.731218 0.959758 -0.269369
C37   C     C_R   0.300667 0.779469 0.974260 -0.254036
C38   C     C_R   0.691262 0.231220 0.040241 -0.269391
C39   C     C_R   0.697439 0.755024 0.035327 -0.250403
C40   C     C_R   0.301064 0.219024 0.974241 -0.264183
C41   C     C_R   0.644146 0.325462 0.944764 -0.212647
C42   C     C_R   0.355787 0.672977 0.054303 -0.215235
C43   C     C_R   0.355945 0.326731 0.054164 -0.217029
C44   C     C_R   0.648237 0.666678 0.941173 -0.221594
C45   C     C_R   0.144077 0.826762 0.945810 -0.216873
C46   C     C_R   0.851763 0.166678 0.058827 -0.221583
C47   C     C_R   0.855855 0.825460 0.055235 -0.212648
C48   C     C_R   0.144187 0.173016 0.945729 -0.214950
C49   C     C_R   0.616878 0.347131 0.897712 -0.068234
C50   C     C_R   0.383272 0.652781 0.101519 -0.071243
C51   C     C_R   0.383303 0.347173 0.101509 -0.066879
C52   C     C_R   0.618814 0.649643 0.896279 -0.068363
C53   C     C_R   0.116707 0.847189 0.898478 -0.066880
C54   C     C_R   0.881186 0.149643 0.103721 -0.068371
C55   C     C_R   0.883122 0.847130 0.102287 -0.068234
C56   C     C_R   0.116713 0.152804 0.898499 -0.071235
C57   C     C_R   0.632792 0.321780 0.812902 -0.261131
C58   C     C_R   0.366678 0.677865 0.186620 -0.265029
C59   C     C_R   0.366703 0.322118 0.186633 -0.267168
C60   C     C_R   0.634060 0.676701 0.812567 -0.265182
C61   C     C_R   0.133298 0.822124 0.813362 -0.267133
C62   C     C_R   0.865939 0.176700 0.187433 -0.265181
C63   C     C_R   0.867208 0.821779 0.187097 -0.261141
C64   C     C_R   0.133317 0.177875 0.813388 -0.264983
C65   C     C_R   0.677306 0.277532 0.771725 -0.058103
C66   C     C_R   0.320126 0.718234 0.229274 -0.050855
C67   C     C_R   0.320215 0.281609 0.229225 -0.061309
C68   C     C_R   0.679939 0.718301 0.770362 -0.059869
C69   C     C_R   0.179778 0.781599 0.770775 -0.061308
C70   C     C_R   0.820060 0.218299 0.229638 -0.059882
C71   C     C_R   0.822694 0.777532 0.228275 -0.058102
C72   C     C_R   0.179881 0.218222 0.770727 -0.050799
C73   C     C_R   0.703329 0.251584 0.819138 -0.206901
C74   C     C_R   0.291506 0.739117 0.183758 -0.204926
C75   C     C_R   0.291771 0.260385 0.183543 -0.183341
C76   C     C_R   0.708814 0.739104 0.815367 -0.191314
C77   C     C_R   0.208220 0.760367 0.816455 -0.183586
C78   C     C_R   0.791185 0.239101 0.184634 -0.191326
C79   C     C_R   0.796670 0.751584 0.180862 -0.206897
C80   C     C_R   0.208507 0.239090 0.816241 -0.205279
C81   C     C_R   0.688404 0.277847 0.905193 0.083451
C82   C     C_R   0.309025 0.715767 0.095758 0.098419
C83   C     C_R   0.309558 0.283251 0.095283 0.074123
C84   C     C_R   0.694141 0.711279 0.900498 0.095848
C85   C     C_R   0.190460 0.783274 0.904690 0.074130
C86   C     C_R   0.805859 0.211278 0.099501 0.095851
C87   C     C_R   0.811596 0.777846 0.094806 0.083449
C88   C     C_R   0.190961 0.215784 0.904267 0.098409
C89   C     C_R   0.691569 0.129092 0.532857 0.898711
C90   C     C_R   0.308894 0.870633 0.464530 0.899452
C91   C     C_R   0.308592 0.129433 0.465174 0.903568
C92   C     C_R   0.696777 0.872092 0.516976 0.910008
C93   C     C_R   0.191408 0.629433 0.534825 0.903582
C94   C     C_R   0.803223 0.372092 0.483024 0.910009
C95   C     C_R   0.808431 0.629093 0.467143 0.898714
C96   C     C_R   0.191106 0.370633 0.535470 0.899470
C97   C     C_R   0.074063 0.099657 0.934020 0.911834
C98   C     C_R   0.925336 0.901036 0.066645 0.907363
C99   C     C_R   0.924999 0.098388 0.066929 0.911142
C100  C     C_R   0.074104 0.900398 0.933976 0.911509
C101  C     C_R   0.575001 0.598388 0.933071 0.911157
C102  C     C_R   0.425901 0.400391 0.066018 0.911494
C103  C     C_R   0.425929 0.599646 0.065988 0.911887
C104  C     C_R   0.574664 0.401037 0.933354 0.907349
C105  C     C_R   0.558773 0.002608 0.471653 0.016114
C106  C     C_R   0.470164 0.001693 0.438510 0.018179
C107  C     C_R   0.029837 0.501693 0.561485 0.018154
C108  C     C_R   0.941228 0.502609 0.528343 0.016113
C109  C     C_R   0.529592 0.066923 0.480967 0.045747
C110  C     C_R   0.498620 0.936792 0.430200 0.046937
C111  C     C_R   0.489499 0.067708 0.454132 0.049003
C112  C     C_R   0.546186 0.938965 0.439077 0.049433
C113  C     C_R   0.010503 0.567708 0.545862 0.049006
C114  C     C_R   0.953814 0.438965 0.560921 0.049439
C115  C     C_R   0.970410 0.566924 0.519028 0.045752
C116  C     C_R   0.001380 0.436793 0.569797 0.046938
C117  C     C_R   0.632493 0.939340 0.480101 0.063450
C118  C     C_R   0.396312 0.066851 0.432722 0.067346
C119  C     C_R   0.397688 0.934836 0.429004 0.069794
C120  C     C_R   0.613403 0.064760 0.528069 0.077603
C121  C     C_R   0.102313 0.434836 0.570993 0.069790
C122  C     C_R   0.886597 0.564761 0.471930 0.077605
C123  C     C_R   0.867506 0.439340 0.519899 0.063447
C124  C     C_R   0.103689 0.566851 0.567275 0.067355
C125  C     C_R   0.670426 0.937667 0.512654 -0.116231
C126  C     C_R   0.343158 0.065373 0.442315 -0.129191
C127  C     C_R   0.343661 0.935184 0.441374 -0.130949
C128  C     C_R   0.659952 0.064249 0.540866 -0.131566
C129  C     C_R   0.156339 0.435184 0.558624 -0.130946
C130  C     C_R   0.840047 0.564249 0.459135 -0.131567
C131  C     C_R   0.829573 0.437667 0.487346 -0.116231
C132  C     C_R   0.156843 0.565373 0.557684 -0.129189
C133  C     C_R   0.683705 0.999834 0.541890 -0.305415
C134  C     C_R   0.318774 0.000159 0.443840 -0.299090
C135  C     C_R   0.181227 0.500159 0.556159 -0.299090
C136  C     C_R   0.816294 0.499834 0.458111 -0.305412
C137  C     C_R   0.601200 0.002087 0.493982 0.069359
C138  C     C_R   0.421541 0.001038 0.432730 0.074459
C139  C     C_R   0.078460 0.501038 0.567266 0.074439
C140  C     C_R   0.898800 0.502088 0.506016 0.069356
C141  C     C_R   0.070919 0.371504 0.587412 -0.189806
C142  C     C_R   0.920745 0.625440 0.453205 -0.177284
C143  C     C_R   0.874495 0.381569 0.567389 -0.188183
C144  C     C_R   0.074376 0.631387 0.576965 -0.182062
C145  C     C_R   0.625504 0.881568 0.432613 -0.188183
C146  C     C_R   0.425625 0.131388 0.423033 -0.182068
C147  C     C_R   0.429081 0.871504 0.412584 -0.189840
C148  C     C_R   0.579256 0.125439 0.546792 -0.177280
H1    H     H_    0.715602 0.999057 0.560047 0.193585
H2    H     H_    0.277809 0.999978 0.453515 0.199532
H3    H     H_    0.222191 0.499979 0.546484 0.199531
H4    H     H_    0.784397 0.499056 0.439954 0.193585
H5    H     H_    0.082579 0.320569 0.603892 0.174882
H6    H     H_    0.918315 0.671511 0.416346 0.169020
H7    H     H_    0.846220 0.337094 0.593995 0.179119
H8    H     H_    0.083946 0.682071 0.597331 0.176047
H9    H     H_    0.653778 0.837092 0.406008 0.179117
H10   H     H_    0.416054 0.182071 0.402669 0.176055
H11   H     H_    0.417421 0.820569 0.396105 0.174890
H12   H     H_    0.581685 0.171510 0.583652 0.169025
H13   H     H_    0.001912 0.320755 0.594695 0.140751
H14   H     H_    0.985528 0.675488 0.462231 0.141858
H15   H     H_    0.921613 0.333733 0.618829 0.148974
H16   H     H_    0.011826 0.683982 0.563614 0.140040
H17   H     H_    0.578385 0.833730 0.381173 0.148981
H18   H     H_    0.488176 0.183982 0.436381 0.140045
H19   H     H_    0.498087 0.820755 0.405303 0.140760
H20   H     H_    0.514475 0.175487 0.537763 0.141871
H21   H     H_    0.648045 0.221236 0.069140 0.146803
H22   H     H_    0.339964 0.803536 0.954712 0.156267
H23   H     H_    0.340339 0.195011 0.954947 0.150366
H24   H     H_    0.654101 0.764626 0.065061 0.153576
H25   H     H_    0.159407 0.695625 0.045598 0.150289
H26   H     H_    0.845900 0.264620 0.934936 0.153570
H27   H     H_    0.851955 0.721231 0.930860 0.146805
H28   H     H_    0.160293 0.304142 0.044741 0.156278
H29   H     H_    0.632264 0.347422 0.010634 0.151922
H30   H     H_    0.368989 0.652670 0.987244 0.156991
H31   H     H_    0.369122 0.347043 0.987116 0.154721
H32   H     H_    0.636538 0.643621 0.006469 0.157290
H33   H     H_    0.130909 0.847088 0.012848 0.154693
H34   H     H_    0.863463 0.143622 0.993530 0.157291
H35   H     H_    0.867738 0.847420 0.989363 0.151921
H36   H     H_    0.130971 0.152730 0.012801 0.156913
H37   H     H_    0.612668 0.340581 0.776397 0.176885
H38   H     H_    0.388037 0.661660 0.222140 0.174767
H39   H     H_    0.387966 0.338510 0.222242 0.175549
H40   H     H_    0.611951 0.661681 0.777880 0.177297
H41   H     H_    0.112034 0.838513 0.777755 0.175544
H42   H     H_    0.888049 0.161681 0.222119 0.177302
H43   H     H_    0.887333 0.840581 0.223603 0.176883
H44   H     H_    0.111960 0.161671 0.777867 0.174748
H45   H     H_    0.737004 0.214317 0.787281 0.170650
H46   H     H_    0.254711 0.771124 0.217365 0.147406
H47   H     H_    0.255034 0.228328 0.217086 0.158147
H48   H     H_    0.743342 0.775188 0.783396 0.143021
H49   H     H_    0.244938 0.728274 0.782923 0.158289
H50   H     H_    0.756656 0.275183 0.216606 0.143032
H51   H     H_    0.762994 0.714318 0.212720 0.170655
H52   H     H_    0.245330 0.271041 0.782615 0.147558
O1    O     O_R   0.746490 0.236330 0.638080 -0.648776
O2    O     O_R   0.253510 0.763670 0.361920 -0.637146
O3    O     O_R   0.253510 0.236330 0.361920 -0.635971
O4    O     O_R   0.746490 0.763670 0.638080 -0.635926
O5    O     O_R   0.246490 0.736330 0.638080 -0.635938
O6    O     O_R   0.753510 0.263670 0.361920 -0.635924
O7    O     O_R   0.753510 0.736330 0.361920 -0.648778
O8    O     O_R   0.246490 0.263670 0.638080 -0.637127
O9    O     O_R   0.674170 0.186160 0.516270 -0.639685
O10   O     O_R   0.325830 0.813840 0.483730 -0.637749
O11   O     O_R   0.325830 0.186160 0.483730 -0.641455
O12   O     O_R   0.674170 0.813840 0.516270 -0.640421
O13   O     O_R   0.174170 0.686160 0.516270 -0.641450
O14   O     O_R   0.825830 0.313840 0.483730 -0.640416
O15   O     O_R   0.825830 0.686160 0.483730 -0.639687
O16   O     O_R   0.174170 0.313840 0.516270 -0.637761
O17   O     O_R   0.739960 0.127620 0.525000 -0.622069
O18   O     O_R   0.260040 0.872380 0.475000 -0.625441
O19   O     O_R   0.260040 0.127620 0.475000 -0.626941
O20   O     O_R   0.739960 0.872380 0.525000 -0.629677
O21   O     O_R   0.239960 0.627620 0.525000 -0.626945
O22   O     O_R   0.760040 0.372380 0.475000 -0.629678
O23   O     O_R   0.760040 0.627620 0.475000 -0.622068
O24   O     O_R   0.239960 0.372380 0.525000 -0.625438
O25   O     O_R   0.680700 0.294870 0.629350 -0.636255
O26   O     O_R   0.319300 0.705130 0.370650 -0.634198
O27   O     O_R   0.319300 0.294870 0.370650 -0.634080
O28   O     O_R   0.680700 0.705130 0.629350 -0.622026
O29   O     O_R   0.180700 0.794870 0.629350 -0.634086
O30   O     O_R   0.819300 0.205130 0.370650 -0.622025
O31   O     O_R   0.819300 0.794870 0.370650 -0.636257
O32   O     O_R   0.180700 0.205130 0.629350 -0.634201
O33   O     O_R   0.062020 0.072840 0.007170 -0.627702
O34   O     O_R   0.937980 0.927160 0.992830 -0.628952
O35   O     O_R   0.937980 0.072840 0.992830 -0.629818
O36   O     O_R   0.062020 0.927160 0.007170 -0.628228
O37   O     O_R   0.562020 0.572840 0.007170 -0.629814
O38   O     O_R   0.437980 0.427160 0.992830 -0.628223
O39   O     O_R   0.437980 0.572840 0.992830 -0.627691
O40   O     O_R   0.562020 0.427160 0.007170 -0.628954
O41   O     O_R   0.947860 0.073950 0.109290 -0.623377
O42   O     O_R   0.052140 0.926050 0.890710 -0.623194
O43   O     O_R   0.052140 0.073950 0.890710 -0.622573
O44   O     O_R   0.947860 0.926050 0.109290 -0.624794
O45   O     O_R   0.447860 0.573950 0.109290 -0.622587
O46   O     O_R   0.552140 0.426050 0.890710 -0.624795
O47   O     O_R   0.552140 0.573950 0.890710 -0.623377
O48   O     O_R   0.447860 0.426050 0.109290 -0.623200
Zn1   Zn    Zn3+2 0.792340 0.208750 0.507670 0.938917
Zn2   Zn    Zn3+2 0.207660 0.791250 0.492330 0.935331
Zn3   Zn    Zn3+2 0.207660 0.208750 0.492330 0.938785
Zn4   Zn    Zn3+2 0.792340 0.791250 0.507670 0.935894
Zn5   Zn    Zn3+2 0.292340 0.708750 0.507670 0.938783
Zn6   Zn    Zn3+2 0.707660 0.291250 0.492330 0.935899
Zn7   Zn    Zn3+2 0.707660 0.708750 0.492330 0.938912
Zn8   Zn    Zn3+2 0.292340 0.291250 0.507670 0.935360
Zn9   Zn    Zn3+2 0.505960 0.500000 0.080520 0.929387
Zn10  Zn    Zn3+2 0.494040 0.500000 0.919480 0.932089
Zn11  Zn    Zn3+2 0.005960 0.000000 0.080520 0.932083
Zn12  Zn    Zn3+2 0.994040 0.000000 0.919480 0.929391
C149  C     C_3   0.812220 0.295927 0.818522 -0.415478
C150  C     C_3   0.845111 0.232571 0.758823 -0.891438
H53   H     H_    0.881143 0.221957 0.767229 0.251963
H54   H     H_    0.820299 0.182413 0.775999 0.259524
H55   H     H_    0.858923 0.244969 0.687489 0.242313
H56   H     H_    0.788457 0.322045 0.790457 0.213356
H57   H     H_    0.840552 0.338483 0.817014 0.203980
C151  C     C_3   0.199507 0.647835 0.150808 -0.408083
C152  C     C_3   0.225287 0.572891 0.123229 -0.850028
H58   H     H_    0.222276 0.552848 0.064482 0.254250
H59   H     H_    0.268618 0.574239 0.106045 0.267546
H60   H     H_    0.203554 0.534463 0.179740 0.247320
H61   H     H_    0.201841 0.667124 0.210294 0.209467
H62   H     H_    0.155487 0.642485 0.172744 0.199133
C153  C     C_3   0.200757 0.352753 0.148506 -0.431018
C154  C     C_3   0.151828 0.320833 0.230708 -0.845951
H63   H     H_    0.119916 0.304368 0.214045 0.254209
H64   H     H_    0.164216 0.273012 0.255803 0.257528
H65   H     H_    0.134420 0.362090 0.284850 0.256908
H66   H     H_    0.229921 0.373712 0.169032 0.220905
H67   H     H_    0.187400 0.400332 0.124362 0.204492
C155  C     C_3   0.815559 0.675914 0.820172 -0.416931
C156  C     C_3   0.799696 0.596391 0.823866 -0.825607
H68   H     H_    0.803814 0.567766 0.877440 0.255343
H69   H     H_    0.757309 0.590961 0.836784 0.265228
H70   H     H_    0.827015 0.570105 0.758552 0.249907
H71   H     H_    0.811823 0.704160 0.766358 0.205019
H72   H     H_    0.859565 0.677650 0.799406 0.200226
C157  C     C_3   0.299615 0.852050 0.850757 -0.430932
C158  C     C_3   0.348455 0.819694 0.768794 -0.846098
H73   H     H_    0.380347 0.803339 0.785555 0.254131
H74   H     H_    0.335949 0.771727 0.744117 0.257404
H75   H     H_    0.365947 0.860652 0.714301 0.257025
H76   H     H_    0.270538 0.873029 0.830053 0.220819
H77   H     H_    0.313123 0.899673 0.874586 0.204509
C159  C     C_3   0.684438 0.175918 0.179830 -0.416924
C160  C     C_3   0.700315 0.096403 0.176158 -0.825611
H78   H     H_    0.696263 0.067774 0.122522 0.255356
H79   H     H_    0.742681 0.090997 0.163346 0.265231
H80   H     H_    0.672961 0.070103 0.241444 0.249901
H81   H     H_    0.688159 0.204182 0.233648 0.205007
H82   H     H_    0.640435 0.177632 0.200578 0.200232
C161  C     C_3   0.687783 0.795937 0.181473 -0.415467
C162  C     C_3   0.654889 0.732584 0.241177 -0.891447
H83   H     H_    0.618848 0.721984 0.232792 0.251959
H84   H     H_    0.679695 0.682420 0.223989 0.259530
H85   H     H_    0.641090 0.744978 0.312508 0.242315
H86   H     H_    0.711548 0.822055 0.209536 0.213355
H87   H     H_    0.659453 0.838494 0.182978 0.203979
C163  C     C_3   0.300168 0.147218 0.849833 -0.408170
C164  C     C_3   0.274236 0.072401 0.877942 -0.849993
H88   H     H_    0.277358 0.052535 0.936656 0.254314
H89   H     H_    0.230861 0.073875 0.895398 0.267506
H90   H     H_    0.295779 0.033768 0.821604 0.247141
H91   H     H_    0.297789 0.166282 0.790303 0.209620
H92   H     H_    0.344194 0.141775 0.827809 0.199141

loop_
_geom_bond_atom_site_label_1
_geom_bond_atom_site_label_2
_ccdc_geom_bond_type
C74   H46   S    
C29   C157  S    
C58   H38   S    
C158  H75   S    
C2    O2    A    
C79   C87   A    
O33   Zn11  S    
C163  H92   S    
C28   C155  S    
O24   Zn8   S    
C155  C156  S    
C22   C86   S    
C13   C112  A    
C30   C38   A    
C148  H12   S    
C107  C113  A    
C162  H85   S    
O40   Zn9   S    
C98   O44   A    
C50   C103  S    
C10   H14   S    
C61   H41   S    
O18   Zn2   S    
C76   C84   A    
C14   C111  A    
C41   C49   A    
C136  H4    S    
C16   C109  A    
C26   C151  S    
O22   Zn6   S    
C52   C101  S    
C94   O14   A    
C161  H86   S    
C30   C159  S    
C47   H35   S    
C121  C129  A    
C48   H36   S    
C20   C28   A    
C27   C35   A    
C21   C29   A    
C20   C84   S    
C23   C31   A    
O34   Zn12  S    
C24   C32   A    
C145  H9    S    
C161  C162  S    
C102  O48   A    
C7    O7    A    
C159  C160  S    
C105  C112  A    
C63   C71   A    
C120  C148  A    
O20   Zn4   S    
C100  O36   A    
C100  O42   A    
C2    O26   A    
C38   H21   S    
C27   C153  S    
C104  O40   A    
C9    C116  A    
C157  H76   S    
C96   O16   A    
C61   C69   A    
C153  H66   S    
C17   C25   A    
C149  H56   S    
C80   C88   A    
C31   C161  S    
C42   H30   S    
C55   C98   S    
C32   C163  S    
C18   C82   S    
O43   Zn12  S    
C126  C134  A    
C36   H27   S    
C23   C36   A    
C151  H62   S    
C78   H50   S    
C118  C138  A    
C11   C143  A    
C40   H23   S    
C96   C129  S    
C113  C115  A    
C46   H34   S    
C43   C83   A    
C124  C139  A    
C69   C77   A    
C127  C134  A    
C13   C145  A    
O11   Zn8   S    
C75   C83   A    
C92   C125  S    
C49   C104  S    
C71   C79   A    
C51   C102  S    
C159  H82   S    
C62   C70   A    
C103  O45   A    
C108  C115  A    
C41   H29   S    
C109  C111  A    
C149  C150  S    
C63   H43   S    
C66   C74   A    
C49   C57   A    
C124  C132  A    
C52   C60   A    
C59   C67   A    
C129  C135  A    
C53   C61   A    
O35   Zn12  S    
C55   C63   A    
C95   C130  S    
C1    C65   S    
C56   C64   A    
C59   H39   S    
C14   H18   S    
C93   C132  S    
C75   H47   S    
C161  H87   S    
C44   C52   A    
C162  H84   S    
C77   C85   A    
C155  H71   S    
C156  H70   S    
C160  H79   S    
C15   H19   S    
O17   Zn1   S    
C56   C97   S    
C19   C83   S    
C106  C111  A    
O21   Zn5   S    
C101  O37   A    
C91   O11   A    
C131  C136  A    
C4    C68   S    
C89   O9    A    
C95   O23   A    
C47   C87   A    
C144  H8    S    
O10   Zn5   S    
C143  H7    S    
C98   O34   A    
O14   Zn1   S    
C11   H15   S    
C157  C158  S    
C142  H6    S    
C9    H13   S    
C33   H26   S    
C60   C68   A    
C42   C50   A    
O3    Zn3   S    
C104  O46   A    
C164  H89   S    
C54   C99   S    
C92   O12   A    
C67   C75   A    
O5    Zn5   S    
C105  C109  A    
C22   C30   A    
C119  C138  A    
C57   H37   S    
C2    C66   S    
C114  C116  A    
C150  H53   S    
C146  H10   S    
C68   C76   A    
O1    Zn1   S    
C121  C139  A    
O12   Zn7   S    
C6    O30   A    
C122  C140  A    
C72   C80   A    
C141  H5    S    
C3    C67   S    
O16   Zn3   S    
C17   C38   A    
C107  C139  A    
C153  H67   S    
C110  C112  A    
C107  C116  A    
C6    O6    A    
C19   C40   A    
C105  C137  A    
C154  H63   S    
C60   H40   S    
C156  H68   S    
C94   O22   A    
C117  C125  A    
C25   C33   A    
C119  C127  A    
C73   H45   S    
C3    O3    A    
C153  C154  S    
C18   C26   A    
C1    O1    A    
C44   H32   S    
C150  H55   S    
C45   H33   S    
C7    O31   A    
C43   H31   S    
C70   C78   A    
C119  C147  A    
C117  C145  A    
C158  H73   S    
C10   C142  A    
C108  C114  A    
C5    C69   S    
C76   H48   S    
C64   H44   S    
O26   Zn5   S    
C90   C127  S    
C48   C88   A    
O30   Zn1   S    
O45   Zn9   S    
O19   Zn3   S    
C152  H58   S    
C15   C110  A    
C74   C82   A    
C5    O5    A    
C163  H91   S    
C53   C100  S    
C21   C85   S    
C8    C72   S    
C79   H51   S    
C93   O13   A    
C50   C58   A    
C121  C141  A    
C20   C39   A    
C21   C34   A    
C54   C62   A    
C39   H24   S    
O9    Zn6   S    
C12   H16   S    
O28   Zn7   S    
C25   C149  S    
C13   H17   S    
C154  H65   S    
C41   C81   A    
C46   C54   A    
O32   Zn3   S    
C157  H77   S    
C24   C88   S    
O27   Zn8   S    
C73   C81   A    
O37   Zn9   S    
O15   Zn4   S    
C101  O47   A    
C3    O27   A    
O47   Zn10  S    
C1    O25   A    
C6    C70   S    
C163  C164  S    
C123  C131  A    
C57   C65   A    
C44   C84   A    
C120  C128  A    
C94   C131  S    
C34   H25   S    
C15   C147  A    
C43   C51   A    
C135  H3    S    
C17   C81   S    
C4    O28   A    
C106  C138  A    
C151  C152  S    
C28   C36   A    
C103  O39   A    
C152  H60   S    
C29   C37   A    
C120  C137  A    
C77   H49   S    
C89   C128  S    
C134  H2    S    
C164  H88   S    
C155  H72   S    
C91   C126  S    
C156  H69   S    
C95   O15   A    
C160  H78   S    
O39   Zn10  S    
C90   O10   A    
C42   C82   A    
C147  H11   S    
C35   H28   S    
C18   C37   A    
C149  H57   S    
C7    C71   S    
C4    O4    A    
C80   H52   S    
C65   C73   A    
C92   O20   A    
C8    O8    A    
C11   C114  A    
O7    Zn7   S    
C26   C34   A    
O25   Zn6   S    
C96   O24   A    
C151  H61   S    
C19   C27   A    
O29   Zn2   S    
C78   C86   A    
C64   C72   A    
C23   C87   S    
O44   Zn11  S    
C130  C136  A    
O31   Zn4   S    
C58   C66   A    
C159  H81   S    
C102  O38   A    
C24   C35   A    
C90   O18   A    
C118  C146  A    
C133  H1    S    
C37   H22   S    
C108  C140  A    
C9    C141  A    
C150  H54   S    
C89   O17   A    
C123  C140  A    
C12   C144  A    
C99   O41   A    
C45   C85   A    
O46   Zn10  S    
C97   O43   A    
C99   O35   A    
C97   O33   A    
C62   H42   S    
O13   Zn2   S    
C162  H83   S    
O2    Zn2   S    
C154  H64   S    
C160  H80   S    
C5    O29   A    
C51   C59   A    
C122  C142  A    
O6    Zn6   S    
C47   C55   A    
C12   C113  A    
C106  C110  A    
C125  C133  A    
C48   C56   A    
C22   C33   A    
O36   Zn11  S    
O41   Zn11  S    
O42   Zn12  S    
C117  C137  A    
O8    Zn8   S    
C14   C146  A    
C16   C148  A    
C152  H59   S    
C128  C133  A    
C8    O32   A    
C16   H20   S    
C132  C135  A    
C31   C39   A    
O38   Zn10  S    
C158  H74   S    
C32   C40   A    
C91   O19   A    
C45   C53   A    
O48   Zn9   S    
O4    Zn4   S    
O23   Zn7   S    
C164  H90   S    
C123  C143  A    
C124  C144  A    
C93   O21   A    
C118  C126  A    
C122  C130  A    
C10   C115  A    
C46   C86   A    
