data_mof_unit_59137.cif
_audit_creation_date              2012-12-10T22:10:05-0500
_audit_creation_method            fapswitch 2.2
_symmetry_space_group_name_H-M    P1
_symmetry_Int_Tables_number       1
_space_group_crystal_system       triclinic
_cell_length_a                    16.416544
_cell_length_b                    16.598793
_cell_length_c                    28.46055
_cell_angle_alpha                 91.191409
_cell_angle_beta                  90.419275
_cell_angle_gamma                 88.876566
_cell_volume                      7752.00004746

loop_
_atom_site_label
_atom_site_type_symbol
_atom_type_description
_atom_site_fract_x
_atom_site_fract_y
_atom_site_fract_z
_atom_type_partial_charge
C1    C     C_R   0.616124 0.998582 0.561787 0.887020
C2    C     C_R   0.040807 0.806046 0.878665 -0.219811
C3    C     C_R   0.962664 0.660669 0.742874 -0.130976
C4    C     C_R   0.870693 0.884995 0.117641 0.120476
C5    C     C_R   0.875886 0.938321 0.080146 -0.153109
C6    C     C_R   0.823817 0.005849 0.078086 -0.129169
C7    C     C_R   0.766366 0.020607 0.113391 -0.110813
C8    C     C_R   0.760698 0.967702 0.150748 -0.135809
C9    C     C_R   0.812589 0.900059 0.152912 -0.138637
C10   C     C_R   0.140060 0.126243 0.874274 0.110911
C11   C     C_R   0.161063 0.092485 0.917717 -0.154217
C12   C     C_R   0.218971 0.029815 0.920160 -0.148965
C13   C     C_R   0.937506 0.327890 0.134033 -0.014376
C14   C     C_R   0.255970 0.999754 0.879208 -0.119717
C15   C     C_R   0.235130 0.032396 0.835807 -0.131850
C16   C     C_R   0.177652 0.095473 0.833333 -0.125852
C17   C     C_R   0.249359 0.880011 0.294692 0.128082
C18   C     C_R   0.237265 0.799763 0.307284 -0.129547
C19   C     C_R   0.235250 0.738721 0.272741 -0.137432
C20   C     C_R   0.245054 0.757393 0.225494 -0.136960
C21   C     C_R   0.255663 0.837279 0.212629 -0.135790
C22   C     C_R   0.258013 0.898517 0.247092 -0.141171
C23   C     C_R   0.895194 0.083832 0.611977 0.128894
C24   C     C_R   0.040481 0.746015 0.911960 -0.027713
C25   C     C_R   0.951127 0.052775 0.578827 -0.154115
C26   C     C_R   0.025172 0.090969 0.572102 -0.113619
C27   C     C_R   0.043629 0.160490 0.598252 -0.113075
C28   C     C_R   0.988178 0.191773 0.631283 -0.152745
C29   C     C_R   0.914220 0.153510 0.638271 -0.132854
C30   C     C_R   0.757944 0.894104 0.450699 0.130560
C31   C     C_R   0.720070 0.818960 0.449988 -0.100316
C32   C     C_R   0.727463 0.768489 0.488573 -0.137128
C33   C     C_R   0.773618 0.792175 0.527749 -0.092180
C34   C     C_R   0.813121 0.865970 0.528180 -0.130559
C35   C     C_R   0.254069 0.944399 0.331617 -0.031406
C36   C     C_R   0.805720 0.916719 0.489679 -0.158913
C37   C     C_R   0.389771 0.118104 0.639614 0.144572
C38   C     C_R   0.376772 0.200421 0.631200 -0.090544
C39   C     C_R   0.441459 0.253767 0.635125 -0.148735
C40   C     C_R   0.519326 0.225271 0.647349 -0.108804
C41   C     C_R   0.532618 0.143406 0.655816 -0.116608
C42   C     C_R   0.468081 0.089923 0.652024 -0.165536
C43   C     C_R   0.143498 0.278651 0.076503 0.163410
C44   C     C_R   0.203070 0.334413 0.089947 -0.106251
C45   C     C_R   0.279187 0.332396 0.068247 -0.163924
C46   C     C_R   0.818427 0.040830 0.620787 -0.033145
C47   C     C_R   0.297146 0.273382 0.033973 -0.089526
C48   C     C_R   0.238607 0.217032 0.020886 -0.109726
C49   C     C_R   0.161541 0.220311 0.041475 -0.147489
C50   C     C_R   0.926157 0.582234 0.844352 0.135192
C51   C     C_R   0.841324 0.574908 0.840728 -0.098157
C52   C     C_R   0.807883 0.502310 0.824951 -0.142934
C53   C     C_R   0.858925 0.437147 0.812300 -0.121019
C54   C     C_R   0.943474 0.444179 0.815908 -0.135528
C55   C     C_R   0.977094 0.516263 0.832257 -0.180288
C56   C     C_1   0.869883 0.750915 0.050544 0.172085
C57   C     C_R   0.317647 0.943593 0.365198 -0.094976
C58   C     C_1   0.159259 0.286000 0.916498 0.191376
C59   C     C_R   0.875405 0.393850 0.138586 0.147390
C60   C     C_R   0.791953 0.377045 0.135531 -0.150424
C61   C     C_R   0.733808 0.439508 0.139415 -0.150256
C62   C     C_R   0.758433 0.518997 0.146571 -0.114725
C63   C     C_R   0.841252 0.536187 0.150114 -0.115671
C64   C     C_R   0.899582 0.473941 0.146381 -0.126662
C65   C     C_R   0.082747 0.762316 0.957181 0.119103
C66   C     C_R   0.161348 0.730419 0.965265 -0.086133
C67   C     C_R   0.202298 0.747986 0.007377 -0.141362
C68   C     C_R   0.753348 0.043882 0.588414 -0.078950
C69   C     C_R   0.165972 0.799085 0.041115 -0.099933
C70   C     C_R   0.088879 0.833119 0.032639 -0.135037
C71   C     C_R   0.047140 0.814685 0.990865 -0.182762
C72   C     C_1   0.383136 0.884050 0.360473 0.178044
C73   C     C_1   0.759437 0.093494 0.547268 0.174114
C74   C     C_R   0.598324 0.096079 0.353570 0.134471
C75   C     C_R   0.601328 0.180561 0.354181 -0.130379
C76   C     C_R   0.531403 0.226552 0.343922 -0.149361
C77   C     C_R   0.458500 0.188517 0.332406 -0.103072
C78   C     C_R   0.455392 0.104453 0.331166 -0.128944
C79   C     C_R   0.736539 0.049298 0.331939 -0.228251
C80   C     C_R   0.524884 0.058223 0.342017 -0.161728
C81   C     C_R   0.248876 0.886691 0.555740 0.143636
C82   C     C_R   0.252860 0.803863 0.564863 -0.140126
C83   C     C_R   0.245257 0.747310 0.528068 -0.143177
C84   C     C_R   0.233198 0.773026 0.482055 -0.114275
C85   C     C_R   0.228312 0.855292 0.472816 -0.117482
C86   C     C_R   0.235720 0.912112 0.509493 -0.127035
C87   C     C_R   0.196446 0.948124 0.629041 -0.223059
C88   C     C_R   0.672641 0.047326 0.363650 -0.020927
C89   C     C_R   0.384305 0.001462 0.437677 0.876770
C90   C     C_R   0.256526 0.946449 0.594832 -0.028592
C91   C     C_3   0.994929 0.008976 0.248278 0.013895
C92   C     C_3   0.002319 0.989859 0.752241 0.021150
C93   C     C_R   0.614702 0.999694 0.438175 0.884416
C94   C     C_R   0.385266 0.000142 0.562153 0.870567
C95   C     C_R   0.194290 0.006185 0.334069 0.059014
C96   C     C_R   0.811000 0.994320 0.661228 0.064222
C97   C     C_R   0.319037 0.002897 0.401823 -0.162254
C98   C     C_R   0.683380 0.997316 0.595882 -0.137727
C99   C     C_R   0.806525 0.002524 0.338981 0.068800
C100  C     C_R   0.928986 0.751325 0.088607 -0.062560
C101  C     C_R   0.196823 0.005545 0.665345 0.073587
C102  C     C_R   0.679313 0.997121 0.403070 -0.128494
C103  C     C_R   0.320331 0.002508 0.597746 -0.137361
C104  C     C_R   0.994230 0.204108 0.164994 0.071798
C105  C     C_R   0.003057 0.794499 0.835219 0.063063
C106  C     C_R   0.003021 0.330903 0.101833 -0.156153
C107  C     C_R   0.000125 0.673065 0.901664 -0.131788
C108  C     C_R   0.988287 0.816060 0.157892 0.078617
C109  C     C_R   0.001562 0.175214 0.847152 0.100059
C110  C     C_R   0.988329 0.688660 0.092234 -0.076293
C111  C     C_R   0.079975 0.260864 0.900008 -0.075038
C112  C     C_R   0.009173 0.309337 0.908069 -0.107444
C113  C     C_1   0.068187 0.008567 0.276920 0.009664
C114  C     C_1   0.931801 0.989939 0.721661 0.000407
C115  C     C_1   0.990162 0.081026 0.220764 -0.002975
C116  C     C_1   0.005178 0.916505 0.778582 0.001006
C117  C     C_R   0.196083 0.064741 0.369798 -0.246786
C118  C     C_R   0.741773 0.949383 0.668799 -0.231231
C119  C     C_1   0.925445 0.007431 0.278759 -0.007477
C120  C     C_1   0.074818 0.997036 0.723963 -0.005729
C121  C     C_1   0.994951 0.938886 0.217179 0.019144
C122  C     C_R   0.045274 0.753300 0.161570 -0.193790
C123  C     C_1   0.996895 0.056750 0.785288 -0.014740
C124  C     C_1   0.126658 0.007668 0.302255 -0.032495
C125  C     C_1   0.875494 0.990915 0.694883 -0.038408
C126  C     C_1   0.993061 0.882093 0.190665 -0.050299
C127  C     C_1   0.996497 0.110757 0.813636 -0.063822
C128  C     C_1   0.988781 0.138809 0.196449 -0.038433
C129  C     C_1   0.004976 0.859139 0.803184 -0.036499
C130  C     C_1   0.869930 0.005930 0.305443 -0.045242
C131  C     C_1   0.132048 0.002561 0.698474 -0.042542
C132  C     C_R   0.992979 0.621216 0.058273 0.872768
C133  C     C_R   0.933237 0.224782 0.853566 -0.209119
C134  C     C_R   0.006822 0.378982 0.941207 0.879864
C135  C     C_R   0.000626 0.391292 0.064324 0.864135
C136  C     C_R   0.000003 0.609564 0.936587 0.890342
C137  C     C_R   0.257115 0.063240 0.403910 -0.024400
C138  C     C_R   0.678428 0.949429 0.636119 -0.024341
C139  C     C_R   0.814733 0.952138 0.377875 -0.015351
C140  C     C_R   0.258323 0.063392 0.668630 -0.018920
C141  C     C_R   0.749894 0.947744 0.409742 -0.080597
C142  C     C_R   0.321568 0.060888 0.635045 -0.075279
C143  C     C_R   0.062567 0.208829 0.136018 -0.022114
C144  C     C_R   0.045893 0.690455 0.128770 -0.231913
C145  C     C_R   0.963374 0.722387 0.823894 -0.016586
C146  C     C_R   0.068114 0.273104 0.104667 -0.085753
C147  C     C_R   0.962246 0.660771 0.857299 -0.082825
C148  C     C_R   0.929408 0.816094 0.121558 -0.034324
C149  C     C_R   0.074334 0.189526 0.872375 -0.017832
C150  C     C_1   0.252216 0.122303 0.441891 0.165133
C151  C     C_1   0.607901 0.901664 0.645462 0.139857
C152  C     C_R   0.892049 0.906205 0.385622 0.125671
C153  C     C_R   0.895485 0.822242 0.378771 -0.137095
C154  C     C_R   0.969253 0.779945 0.384707 -0.131739
C155  C     C_R   0.936028 0.289114 0.885135 -0.209954
C156  C     C_R   0.039794 0.821197 0.397418 -0.102669
C157  C     C_R   0.036588 0.904780 0.404454 -0.127991
C158  C     C_R   0.963036 0.947231 0.398590 -0.152786
C159  C     C_R   0.256134 0.126940 0.706294 0.111219
C160  C     C_R   0.319132 0.132001 0.739874 -0.158236
C161  C     C_R   0.319686 0.195381 0.773032 -0.121558
C162  C     C_R   0.257119 0.253739 0.773175 -0.113809
C163  C     C_R   0.193795 0.248678 0.740216 -0.164161
C164  C     C_R   0.193263 0.185573 0.706893 -0.172485
C165  C     C_R   0.128674 0.146401 0.138940 0.124811
C166  C     C_R   0.933248 0.263434 0.164634 -0.230288
C167  C     C_R   0.115951 0.068005 0.121187 -0.151851
C168  C     C_R   0.178367 0.009712 0.123496 -0.132700
C169  C     C_R   0.253788 0.029395 0.143232 -0.129097
C170  C     C_R   0.266493 0.106990 0.161459 -0.137997
C171  C     C_R   0.204093 0.165349 0.159499 -0.128416
C172  C     C_R   0.925111 0.710981 0.776900 0.127836
C173  C     C_R   0.851335 0.750819 0.766075 -0.159837
C174  C     C_R   0.815358 0.739969 0.721764 -0.133181
C175  C     C_R   0.853069 0.689900 0.687986 -0.105181
C176  C     C_R   0.926654 0.650255 0.698544 -0.137696
H1    H     H_    0.089818 0.753401 0.189733 0.159906
H2    H     H_    0.737396 0.913985 0.700255 0.141977
H3    H     H_    0.841364 0.789862 0.368453 0.120591
H4    H     H_    0.971827 0.715231 0.379234 0.125218
H5    H     H_    0.096865 0.788387 0.401742 0.112784
H6    H     H_    0.091008 0.936882 0.414277 0.134125
H7    H     H_    0.961365 0.012055 0.403877 0.128913
H8    H     H_    0.367977 0.087213 0.740146 0.128291
H9    H     H_    0.368437 0.199050 0.798741 0.133493
H10   H     H_    0.257373 0.302481 0.799030 0.132343
H11   H     H_    0.145163 0.293663 0.740459 0.130243
H12   H     H_    0.877018 0.212840 0.834678 0.141385
H13   H     H_    0.144556 0.182949 0.681200 0.136746
H14   H     H_    0.057916 0.052296 0.105495 0.126446
H15   H     H_    0.168361 0.949396 0.109892 0.120693
H16   H     H_    0.302352 0.984476 0.144588 0.116519
H17   H     H_    0.324730 0.121924 0.177069 0.125469
H18   H     H_    0.214524 0.225288 0.173755 0.118849
H19   H     H_    0.821688 0.789811 0.791996 0.126307
H20   H     H_    0.758114 0.770092 0.713635 0.128295
H21   H     H_    0.825211 0.681740 0.653671 0.119226
H22   H     H_    0.955783 0.611454 0.672377 0.125324
H23   H     H_    0.882971 0.260289 0.189013 0.143690
H24   H     H_    0.019748 0.629803 0.750688 0.121806
H25   H     H_    0.920802 0.928235 0.052909 0.112895
H26   H     H_    0.828341 0.047013 0.049261 0.128898
H27   H     H_    0.726353 0.073106 0.111845 0.120129
H28   H     H_    0.716381 0.979325 0.178157 0.128958
H29   H     H_    0.808202 0.859912 0.182271 0.126472
H30   H     H_    0.131340 0.113730 0.949586 0.119743
H31   H     H_    0.234522 0.004041 0.953760 0.133568
H32   H     H_    0.300365 0.950836 0.881069 0.125693
H33   H     H_    0.263107 0.008433 0.804030 0.135606
H34   H     H_    0.071174 0.862297 0.886643 0.159837
H35   H     H_    0.161457 0.119268 0.799436 0.159664
H36   H     H_    0.229859 0.784597 0.343827 0.111999
H37   H     H_    0.226294 0.676920 0.282606 0.124456
H38   H     H_    0.243638 0.710044 0.198784 0.119641
H39   H     H_    0.262395 0.851518 0.175960 0.119532
H40   H     H_    0.267283 0.960109 0.236881 0.133195
H41   H     H_    0.937935 0.998605 0.558658 0.116044
H42   H     H_    0.068378 0.066492 0.546767 0.132538
H43   H     H_    0.101038 0.189914 0.593051 0.125902
H44   H     H_    0.002727 0.245410 0.651676 0.123130
H45   H     H_    0.731438 0.087088 0.301347 0.144901
H46   H     H_    0.872066 0.177712 0.664290 0.121589
H47   H     H_    0.684364 0.799960 0.419731 0.123442
H48   H     H_    0.697434 0.711013 0.488093 0.119003
H49   H     H_    0.779186 0.753158 0.557654 0.118328
H50   H     H_    0.849305 0.883716 0.558431 0.133172
H51   H     H_    0.837221 0.973383 0.490076 0.132377
H52   H     H_    0.316766 0.222999 0.621480 0.120775
H53   H     H_    0.431272 0.317178 0.628588 0.125798
H54   H     H_    0.569355 0.266624 0.650261 0.122406
H55   H     H_    0.592921 0.121383 0.665253 0.132224
H56   H     H_    0.147628 0.904975 0.626773 0.149717
H57   H     H_    0.478880 0.026657 0.658710 0.125121
H58   H     H_    0.190970 0.378265 0.117869 0.112961
H59   H     H_    0.324818 0.375542 0.078686 0.120180
H60   H     H_    0.356550 0.271045 0.017706 0.123548
H61   H     H_    0.253136 0.170811 0.994773 0.132995
H62   H     H_    0.117087 0.175561 0.031620 0.113064
H63   H     H_    0.801405 0.625614 0.849562 0.121096
H64   H     H_    0.742447 0.496818 0.822078 0.124697
H65   H     H_    0.833000 0.381160 0.799765 0.120948
H66   H     H_    0.982977 0.393790 0.805965 0.138461
H67   H     H_    0.091279 0.642593 0.132131 0.148075
H68   H     H_    0.042690 0.521390 0.834450 0.120594
H69   H     H_    0.772026 0.315821 0.129620 0.120860
H70   H     H_    0.669618 0.426302 0.136754 0.126015
H71   H     H_    0.713329 0.567252 0.149446 0.124787
H72   H     H_    0.860278 0.597742 0.155740 0.132907
H73   H     H_    0.963561 0.488156 0.149358 0.096932
H74   H     H_    0.190684 0.691853 0.939016 0.125188
H75   H     H_    0.262409 0.722382 0.013727 0.116742
H76   H     H_    0.197765 0.812606 0.073689 0.113464
H77   H     H_    0.061418 0.873483 0.058575 0.128161
H78   H     H_    0.880807 0.324834 0.890357 0.176111
H79   H     H_    0.987390 0.841328 0.984653 0.135173
H80   H     H_    0.657610 0.210632 0.362831 0.128239
H81   H     H_    0.533827 0.291674 0.344688 0.126886
H82   H     H_    0.404539 0.224154 0.324198 0.123671
H83   H     H_    0.399197 0.075232 0.321556 0.139704
H84   H     H_    0.521882 0.993120 0.340866 0.127446
H85   H     H_    0.262399 0.783228 0.600373 0.126905
H86   H     H_    0.248787 0.683551 0.535225 0.126904
H87   H     H_    0.227464 0.729238 0.453569 0.114589
H88   H     H_    0.218872 0.874868 0.437193 0.124470
H89   H     H_    0.148167 0.110681 0.371779 0.150118
H90   H     H_    0.231323 0.975718 0.501948 0.103907
N1    N     N_1   0.248173 0.169466 0.472354 -0.217954
N2    N     N_1   0.551445 0.863386 0.652931 -0.219598
N3    N     N_1   0.822766 0.750682 0.020096 -0.203689
N4    N     N_1   0.222955 0.306724 0.928825 -0.211223
N5    N     N_1   0.435352 0.836553 0.356641 -0.215541
N6    N     N_1   0.764344 0.133035 0.514425 -0.203997
O1    O     O_R   0.588360 0.066690 0.547410 -0.607998
O2    O     O_R   0.936440 0.406120 0.954720 -0.617880
O3    O     O_R   0.931210 0.414910 0.046840 -0.599506
O4    O     O_R   0.068790 0.585090 0.953160 -0.625556
O5    O     O_R   0.067840 0.419730 0.049340 -0.615503
O6    O     O_R   0.932160 0.580270 0.950660 -0.602326
O7    O     O_R   0.926930 0.589050 0.042780 -0.606800
O8    O     O_R   0.073070 0.410950 0.957220 -0.603124
O9    O     O_R   0.411640 0.933310 0.452590 -0.604574
O10   O     O_R   0.586040 0.933310 0.452590 -0.619866
O11   O     O_R   0.413960 0.066690 0.547410 -0.604039
O12   O     O_R   0.587420 0.068270 0.453900 -0.599607
O13   O     O_R   0.412580 0.931730 0.546100 -0.601191
O14   O     O_R   0.586980 0.931730 0.546100 -0.601109
O15   O     O_R   0.413020 0.068270 0.453900 -0.600587
O16   O     O_R   0.063560 0.593880 0.045280 -0.613920
Zn1   Zn    Zn3+2 0.500930 0.090750 0.500880 0.995840
Zn2   Zn    Zn3+2 0.499070 0.909250 0.499120 0.984573
Zn3   Zn    Zn3+2 0.091890 0.503230 0.001680 0.954521
Zn4   Zn    Zn3+2 0.908110 0.496770 0.998320 0.976308

loop_
_geom_bond_atom_site_label_1
_geom_bond_atom_site_label_2
_ccdc_geom_bond_type
C50   C147  S    
C165  C171  A    
C122  H1    S    
C168  C169  A    
C153  H3    S    
C174  H20   S    
C157  C158  A    
C154  H4    S    
C26   H42   S    
C120  C131  T    
C106  C135  S    
C169  C170  A    
C25   H41   S    
C19   C20   A    
C122  C144  A    
C43   C44   A    
C66   H74   S    
C48   H61   S    
C13   C166  A    
C7    C8    A    
C132  O16   A    
C173  C174  A    
C95   C117  A    
C27   H43   S    
C63   H72   S    
C10   C11   A    
C59   C64   A    
C37   C38   A    
C30   C141  S    
C98   C138  A    
C23   C29   A    
C108  C126  S    
C96   C118  A    
C28   C29   A    
C34   H50   S    
C172  C173  A    
C140  C142  A    
C39   H53   S    
C22   H40   S    
O3    Zn4   S    
C140  C159  S    
C5    H25   S    
C5    C6    A    
C155  H78   S    
C78   C80   A    
C3    C172  A    
C170  C171  A    
C87   H56   S    
C4    C148  S    
C144  H67   S    
C139  C152  S    
C30   C31   A    
C119  C130  T    
C163  H11   S    
C18   C19   A    
C41   C42   A    
C37   C42   A    
C167  H14   S    
C166  H23   S    
C175  H21   S    
C161  H9    S    
C14   C15   A    
C69   H76   S    
C32   H48   S    
C174  C175  A    
O4    Zn3   S    
O10   Zn2   S    
C143  C165  S    
C116  C129  T    
C83   C84   A    
C65   C71   A    
C8    C9    A    
C112  C155  A    
C92   C114  S    
C173  H19   S    
C72   N5    T    
C7    H27   S    
C78   H83   S    
C21   H39   S    
C84   H87   S    
C110  C132  S    
C70   C71   A    
C80   H84   S    
C11   H30   S    
C158  H7    S    
C154  C156  A    
C81   C86   A    
C133  H12   S    
C77   C78   A    
O9    Zn2   S    
C40   C41   A    
C3    H24   S    
C66   C67   A    
C145  C172  S    
C57   C97   A    
C59   C60   A    
C28   H44   S    
C23   C46   S    
C74   C80   A    
C21   C22   A    
C99   C139  A    
C165  C167  A    
C136  O4    A    
O1    Zn1   S    
C171  H18   S    
C56   N3    T    
C111  C149  A    
C70   H77   S    
C97   C137  A    
C1    O14   A    
C145  C147  A    
C101  C140  A    
C109  C127  S    
C79   H45   S    
C94   O13   A    
C68   C98   A    
C45   C47   A    
C29   H46   S    
C152  C158  A    
C2    H34   S    
O8    Zn3   S    
C51   H63   S    
C37   C142  S    
O14   Zn2   S    
C63   C64   A    
C109  C133  A    
C51   C52   A    
O16   Zn3   S    
C41   H55   S    
C8    H28   S    
C76   C77   A    
C75   H80   S    
C55   H68   S    
C143  C146  A    
C176  H22   S    
C167  C168  A    
C162  H10   S    
C114  C125  T    
C43   C49   A    
C105  C129  S    
C81   C82   A    
C50   C51   A    
C68   C73   S    
C85   C86   A    
O13   Zn2   S    
C16   H35   S    
C162  C163  A    
O11   Zn1   S    
C115  C128  T    
C91   C113  S    
C89   C97   S    
C60   C61   A    
C67   C69   A    
C20   H38   S    
C1    C98   S    
C109  C149  A    
C75   C76   A    
C12   H31   S    
C46   C68   A    
C62   C63   A    
C44   H58   S    
C107  C147  A    
C3    C176  A    
C123  C127  T    
C159  C160  A    
C104  C128  S    
C6    H26   S    
C87   C101  A    
C18   H36   S    
C11   C12   A    
C50   C55   A    
C105  C145  A    
C20   C21   A    
C82   H85   S    
O15   Zn1   S    
C17   C18   A    
C26   C27   A    
C104  C143  A    
C93   O10   A    
C24   C107  A    
C84   C85   A    
C110  C144  A    
C4    C5    A    
C168  H15   S    
C71   H79   S    
C79   C88   A    
C24   C65   S    
C13   C106  A    
C31   H47   S    
C136  O6    A    
C101  C131  S    
C53   H65   S    
C48   C49   A    
C102  C141  A    
C46   C96   A    
C12   C14   A    
C94   C103  S    
O7    Zn4   S    
C36   H51   S    
C19   H37   S    
C77   H82   S    
C2    C24   A    
C134  O2    A    
C91   C119  S    
C137  C150  S    
C92   C123  S    
C157  H6    S    
C81   C90   S    
C85   H88   S    
C40   H54   S    
C164  H13   S    
C103  C142  A    
C54   H66   S    
C74   C75   A    
C39   C40   A    
C108  C148  A    
C52   C53   A    
C38   H52   S    
C47   H60   S    
C33   H49   S    
C79   C99   A    
C132  O7    A    
C95   C124  S    
C54   C55   A    
C156  C157  A    
C99   C130  S    
C133  C155  A    
C1    O1    A    
C31   C32   A    
C117  C137  A    
C44   C45   A    
C45   H59   S    
C108  C122  A    
C49   H62   S    
C47   C48   A    
C73   N6    T    
C106  C146  A    
C93   C102  S    
O12   Zn1   S    
C170  H17   S    
C88   C102  A    
C156  H5    S    
C53   C54   A    
C6    C7    A    
O5    Zn3   S    
C35   C95   A    
C138  C151  S    
C118  H2    S    
C86   H90   S    
O6    Zn4   S    
C76   H81   S    
C58   N4    T    
C2    C105  A    
C89   O9    A    
C17   C22   A    
C92   C116  S    
C61   H70   S    
C30   C36   A    
C35   C57   A    
C58   C111  S    
C134  O8    A    
C160  C161  A    
C25   C26   A    
C121  C126  T    
C10   C149  S    
C175  C176  A    
C9    H29   S    
C82   C83   A    
C32   C33   A    
C139  C141  A    
C89   O15   A    
C62   H71   S    
C38   C39   A    
C113  C124  T    
C161  C162  A    
C111  C112  A    
C100  C148  A    
C100  C110  A    
C112  C134  S    
C42   H57   S    
C34   C36   A    
C33   C34   A    
C96   C125  S    
C135  O5    A    
C135  O3    A    
C23   C25   A    
C57   C72   S    
C92   C120  S    
C61   C62   A    
C69   C70   A    
C90   C103  A    
C163  C164  A    
C14   H32   S    
C52   H64   S    
C104  C166  A    
C64   H73   S    
C151  N2    T    
C60   H69   S    
C91   C115  S    
C152  C153  A    
C15   H33   S    
C65   C66   A    
C91   C121  S    
C87   C90   A    
C27   C28   A    
C43   C146  S    
C56   C100  S    
C159  C164  A    
C83   H86   S    
C10   C16   A    
C17   C35   S    
C169  H16   S    
C74   C88   S    
C4    C9    A    
C118  C138  A    
O2    Zn4   S    
C150  N1    T    
C160  H8    S    
C93   O12   A    
C117  H89   S    
C15   C16   A    
C67   H75   S    
C94   O11   A    
C153  C154  A    
C107  C136  S    
C13   C59   S    
