data_mof_unit_51298.cif
_audit_creation_date              2012-12-11T15:21:54-0500
_audit_creation_method            fapswitch 2.2
_symmetry_space_group_name_H-M    P1
_symmetry_Int_Tables_number       1
_space_group_crystal_system       triclinic
_cell_length_a                    8.329667
_cell_length_b                    12.872051
_cell_length_c                    18.960303
_cell_angle_alpha                 94.629444
_cell_angle_beta                  94.292772
_cell_angle_gamma                 98.130954
_cell_volume                      1998.23864889

loop_
_atom_site_label
_atom_site_type_symbol
_atom_type_description
_atom_site_fract_x
_atom_site_fract_y
_atom_site_fract_z
_atom_type_partial_charge
Ba1   Ba    Ba6+2 0.160910 0.552960 0.466220 1.742499
Ba2   Ba    Ba6+2 0.649260 0.447030 0.533730 1.783542
C1    C     C_3   0.360684 0.812331 0.197534 -0.279628
C2    C     C_R   0.742644 0.815485 0.467593 -0.230728
C3    C     C_R   0.707415 0.994593 0.445377 -0.090967
C4    C     C_3   0.852068 0.821234 0.266803 1.269326
C5    C     C_R   0.646722 0.886367 0.440745 0.038068
C6    C     C_R   0.893157 0.849894 0.506014 0.001712
C7    C     C_R   0.954661 0.961886 0.512885 -0.029626
C8    C     C_R   0.860750 0.035354 0.481346 -0.018011
C9    C     C_R   0.923201 0.147055 0.487855 0.086184
C10   C     C_R   0.170815 0.110424 0.552745 -0.022624
C11   C     C_R   0.107532 0.002782 0.549367 -0.074856
C12   C     C_3   0.387350 0.780443 0.272462 0.302573
C13   C     C_R   0.617540 0.538944 0.299530 -0.333511
C14   C     C_R   0.460422 0.488437 0.277644 0.086058
C15   C     C_R   0.400745 0.484664 0.206243 -0.161144
C16   C     C_3   0.915954 0.935368 0.291539 -0.161081
C17   C     C_R   0.499575 0.529559 0.156001 -0.057551
C18   C     C_R   0.661448 0.575041 0.178409 0.641789
C19   C     C_R   0.719440 0.579272 0.250008 0.037764
C20   C     C_R   0.470645 0.611185 0.040311 -0.014365
C21   C     C_R   0.416890 0.604460 0.968178 -0.089671
C22   C     C_R   0.326133 0.511071 0.934448 0.055731
C23   C     C_3   0.555973 0.759924 0.618250 0.276178
C24   C     C_R   0.288514 0.425055 0.974621 -0.028685
C25   C     C_R   0.343257 0.431488 0.046551 -0.046877
C26   C     C_R   0.436327 0.524297 0.080109 0.081651
C27   C     C_R   0.118032 0.451125 0.831545 -0.067936
C28   C     C_3   0.761312 0.310243 0.317872 0.224955
C29   C     C_R   0.078104 0.426876 0.758539 0.070313
C30   C     C_R   0.342082 0.518274 0.735226 -0.055651
C31   C     C_R   0.385784 0.537822 0.808504 -0.087525
C32   C     C_R   0.275808 0.500753 0.857304 0.017957
C33   C     C_R   0.195031 0.453631 0.711587 -0.237717
C34   C     C_3   0.636770 0.874075 0.633068 -0.284760
C35   C     C_3   0.754494 0.278524 0.237951 0.338286
C36   C     C_3   0.025564 0.709255 0.695231 0.701727
C37   C     C_3   0.887124 0.713476 0.744406 -0.302039
C38   C     C_3   0.261356 0.229526 0.380895 0.233346
C39   C     C_3   0.293276 0.114461 0.372109 -0.238966
C40   C     C_2   0.919747 0.262782 0.216260 0.558316
C41   C     C_2   0.180829 0.729664 0.742336 0.559962
C42   C     C_2   0.915546 0.801107 0.804003 0.421793
C43   C     C_2   0.346405 0.083946 0.299989 0.621587
C44   C     C_2   0.535788 0.933558 0.677098 0.760626
C45   C     C_3   0.889207 0.179250 0.771397 0.720758
C46   C     C_2   0.898653 0.100018 0.709547 0.424249
C47   C     C_2   0.422466 0.272685 0.766724 0.602449
C48   C     C_2   0.167783 0.400805 0.640169 0.656786
C49   C     C_3   0.828848 0.123566 0.834564 -0.241889
C50   C     C_3   0.338311 0.171064 0.727650 0.288801
C51   C     C_3   0.303401 0.085513 0.778600 -0.242518
C52   C     C_R   0.078381 0.179779 0.521789 -0.237109
F1    F     F_    0.698696 0.354817 0.199718 -0.771641
F2    F     F_    0.011876 0.609532 0.661222 -0.724358
F3    F     F_    0.043126 0.230721 0.793797 -0.826970
F4    F     F_    0.760152 0.816682 0.202504 -0.718100
F5    F     F_    0.764690 0.610652 0.130551 -0.675386
H1    H     H_    0.291145 0.714632 0.279851 0.088697
H2    H     H_    0.506984 0.752572 0.278460 0.053434
H3    H     H_    0.459949 0.875198 0.187588 0.183571
H4    H     H_    0.645630 0.713929 0.595066 -0.027463
H5    H     H_    0.450488 0.755886 0.578477 0.090519
H6    H     H_    0.759672 0.879057 0.660783 0.062769
H7    H     H_    0.647539 0.911856 0.583195 0.044979
H8    H     H_    0.242486 0.842267 0.190291 0.144600
H9    H     H_    0.813819 0.982235 0.292539 0.119009
H10   H     H_    0.706618 0.077100 0.821219 0.076964
H11   H     H_    0.915609 0.070910 0.852555 0.119840
H12   H     H_    0.667735 0.204300 0.224407 0.136465
H13   H     H_    0.820395 0.183122 0.879565 0.139263
H14   H     H_    0.219842 0.184551 0.702406 -0.051166
H15   H     H_    0.232604 0.013849 0.749395 0.153631
H16   H     H_    0.231763 0.111404 0.821862 0.146516
H17   H     H_    0.773178 0.791838 0.307936 -0.679698
H18   H     H_    0.418303 0.065287 0.803144 0.122757
H19   H     H_    0.632854 0.046348 0.421653 0.124901
H20   H     H_    0.180575 0.950851 0.572961 0.164304
H21   H     H_    0.132219 0.260682 0.520257 0.056367
H22   H     H_    0.693141 0.732615 0.463451 0.042656
H23   H     H_    0.863469 0.637775 0.768770 0.080211
H24   H     H_    0.503839 0.582064 0.827077 0.081643
H25   H     H_    0.445686 0.672394 0.938751 0.088616
H26   H     H_    0.539011 0.684587 0.064953 0.147770
H27   H     H_    0.278011 0.446135 0.189895 0.101794
H28   H     H_    0.220633 0.351565 0.949753 0.122245
H29   H     H_    0.316307 0.362799 0.075408 0.098825
H30   H     H_    0.028412 0.428176 0.868082 0.088838
H31   H     H_    0.663893 0.541746 0.354622 0.072632
H32   H     H_    0.974597 0.938668 0.346232 0.006054
H33   H     H_    0.004804 0.968800 0.255642 0.073005
H34   H     H_    0.779210 0.723547 0.711696 0.147192
H35   H     H_    0.640578 0.328200 0.331156 0.031667
H36   H     H_    0.854694 0.380943 0.332232 0.011618
H37   H     H_    0.017658 0.328747 0.221012 0.012284
H38   H     H_    0.202443 0.674557 0.780507 -0.148842
H39   H     H_    0.010788 0.801266 0.846374 0.024372
H40   H     H_    0.261043 0.077139 0.252884 0.027002
H41   H     H_    0.584322 0.972168 0.728236 0.001046
H42   H     H_    0.962084 0.033118 0.717028 -0.020653
H43   H     H_    0.464629 0.336987 0.736424 -0.017153
H44   H     H_    0.163942 0.316957 0.634923 -0.170496
H45   H     H_    0.129178 0.231315 0.385235 -0.017350
H46   H     H_    0.330898 0.266907 0.431537 0.058387
H47   H     H_    0.359563 0.743078 0.158566 0.064075
H48   H     H_    0.181391 0.060796 0.381208 0.012451
H49   H     H_    0.387725 0.101969 0.414102 0.106555
O1    O     O_2   0.160820 0.763040 0.533820 -0.442765
O2    O     O_2   0.756651 0.441245 0.747290 -0.481077
O3    O     O_3   0.778211 0.247980 0.752722 -0.580341
O4    O     O_3   0.890970 0.628600 0.535400 -0.411439
O5    O     O_3   0.427530 0.446070 0.416950 -0.495964
O6    O     O_2   0.637430 0.550200 0.669460 -0.443768
O7    O     O_3   0.503413 0.722697 0.681884 -0.612623
O8    O     O_2   0.506999 0.118297 0.547314 -0.446717
O9    O     O_3   0.441135 0.136468 0.678043 -0.578224
O10   O     O_3   0.385950 0.698560 0.408070 -0.504032
O11   O     O_2   0.314312 0.885113 0.453266 -0.491835
O12   O     O_3   0.306148 0.280982 0.321267 -0.638493
O13   O     O_3   0.021729 0.787874 0.647228 -0.640156
O14   O     O_3   0.379276 0.867024 0.321393 -0.579636
O15   O     O_2   0.172860 0.449730 0.330520 -0.486134
O16   O     O_3   0.962080 0.644700 0.373110 -0.484395
O17   O     O_2   0.054575 0.572434 0.249032 -0.482599
O18   O     O_2   0.944811 0.175883 0.192822 -0.589309
O19   O     O_2   0.270226 0.813244 0.746367 -0.568348
O20   O     O_2   0.828939 0.869976 0.806777 -0.596795
O21   O     O_2   0.486697 0.069379 0.293584 -0.588367
O22   O     O_2   0.395148 0.935522 0.655902 -0.576551
O23   O     O_3   0.983916 0.765130 0.257934 -0.612506
O24   O     O_2   0.835356 0.109900 0.650693 -0.597247
O25   O     O_2   0.447069 0.283719 0.831300 -0.585238
O26   O     O_2   0.119940 0.445008 0.590202 -0.476249
O27   O     O_2   0.649470 0.236890 0.466160 -0.471166
O28   O     O_3   0.919320 0.371390 0.464540 -0.456601
O29   O     O_3   0.424350 0.301430 0.591880 -0.505815
O30   O     O_3   0.798236 0.224179 0.353022 -0.662910
O31   O     O_3   0.382770 0.553920 0.582990 -0.440680
O32   O     O_3   0.848220 0.355290 0.626830 -0.401476
P1    P     P_3+3 0.986780 0.745970 0.554690 1.093243
P2    P     P_3+3 0.341450 0.417130 0.341310 0.992816
P3    P     P_3+3 0.929547 0.636720 0.280912 1.085944
P4    P     P_3+3 0.823520 0.254020 0.445250 1.006581
P5    P     P_3+3 0.870440 0.364836 0.721416 1.114977
P6    P     P_3+3 0.433375 0.835127 0.406946 0.976278
P7    P     P_3+3 0.464747 0.586142 0.670620 1.003015
P8    P     P_3+3 0.381415 0.164391 0.591725 1.006800

loop_
_geom_bond_atom_site_label_1
_geom_bond_atom_site_label_2
_ccdc_geom_bond_type
C6    C7    A    
C11   H20   S    
C43   O21   D    
C28   O30   S    
C39   H49   S    
Ba2   P4    S    
C4    F4    S    
O29   P8    S    
C14   P2    S    
C51   H15   S    
C2    C6    A    
C27   H30   S    
C30   P7    S    
O11   P6    D    
O31   P7    S    
C24   C25   A    
O9    P8    S    
C40   H37   S    
C16   H32   S    
C22   C24   A    
O6    P7    D    
O3    P5    S    
Ba1   O4    S    
C36   C37   S    
O28   P4    S    
Ba2   O5    S    
C34   H7    S    
C38   H45   S    
C16   H9    S    
C13   C14   A    
O7    P7    S    
O5    P2    S    
Ba1   Ba2   S    
C23   H4    S    
C20   H26   S    
C35   C40   S    
C7    C11   A    
C37   H34   S    
C47   O25   D    
Ba1   P2    S    
Ba1   O1    S    
C42   H39   S    
C2    H22   S    
C17   C18   A    
C24   H28   S    
C21   C22   A    
O16   P3    S    
C34   C44   S    
C6    P1    S    
C49   H11   S    
O2    P5    D    
C7    C8    A    
Ba1   O31   S    
C5    P6    S    
C50   O9    S    
C48   H44   S    
C20   C26   A    
C51   H16   S    
Ba1   O5    S    
C2    C5    A    
C52   H21   S    
C1    H47   S    
C4    C16   S    
C21   H25   S    
C15   H27   S    
C30   C33   A    
O13   P1    S    
O10   P6    S    
O12   P2    S    
C19   P3    S    
C50   H14   S    
C48   O26   D    
C41   O19   D    
C47   H43   S    
C3    C5    A    
C34   H6    S    
C14   C15   A    
C45   C49   S    
C12   H2    S    
C27   C32   A    
C22   C32   S    
C28   C35   S    
C23   H5    S    
C35   F1    S    
O4    P1    S    
C51   H18   S    
Ba1   O15   S    
C28   H36   S    
C45   F3    S    
C45   C46   S    
C13   C19   A    
C47   C50   S    
Ba2   O4    S    
C33   C48   S    
C31   C32   A    
C10   C11   A    
C18   F5    S    
C17   C26   S    
C31   H24   S    
C9    C52   A    
C12   O14   S    
O27   P4    D    
C38   O12   S    
C35   H12   S    
C43   H40   S    
C29   C33   A    
C49   H13   S    
Ba2   O31   S    
Ba1   O28   S    
O23   P3    S    
C50   C51   S    
O8    P8    D    
C9    P4    S    
C1    H3    S    
C44   H41   S    
C42   O20   D    
C39   H48   S    
Ba2   O29   S    
C1    H8    S    
C41   H38   S    
C37   H23   S    
C4    O23   S    
O32   P5    S    
C44   O22   D    
O1    P1    D    
C4    H17   S    
C37   C42   S    
C1    C12   S    
C12   H1    S    
Ba2   O27   S    
C16   H33   S    
C30   C31   A    
C10   P8    S    
C23   O7    S    
Ba1   O16   S    
Ba2   O32   S    
C3    C8    A    
C27   C29   A    
O30   P4    S    
C13   H31   S    
Ba2   O6    S    
O17   P3    D    
C45   O3    S    
C46   H42   S    
O15   P2    D    
C15   C17   A    
Ba1   O10   S    
O14   P6    S    
C25   H29   S    
Ba2   O28   S    
C36   O13   S    
Ba1   P1    S    
C8    C9    A    
C40   O18   D    
C23   C34   S    
C29   P5    S    
C36   C41   S    
C36   F2    S    
C18   C19   A    
C28   H35   S    
C25   C26   A    
C39   C43   S    
C20   C21   A    
C46   O24   D    
C38   C39   S    
C49   H10   S    
C3    H19   S    
C10   C52   A    
C38   H46   S    
