data_mof_unit_26739.cif
_audit_creation_date              2012-10-26T18:27:31-0400
_audit_creation_method            fapswitch 2.2
_symmetry_space_group_name_H-M    P1
_symmetry_Int_Tables_number       1
_space_group_crystal_system       triclinic
_cell_length_a                    10.814572
_cell_length_b                    11.042553
_cell_length_c                    9.842351
_cell_angle_alpha                 110.990423
_cell_angle_beta                  98.948613
_cell_angle_gamma                 90.976677
_cell_volume                      1080.64440156

loop_
_atom_site_label
_atom_site_type_symbol
_atom_type_description
_atom_site_fract_x
_atom_site_fract_y
_atom_site_fract_z
_atom_type_partial_charge
C1    C     C_R   0.488024 0.254285 0.440891 0.574010
C2    C     C_2   0.450290 0.931678 0.487278 -0.027731
C3    C     C_2   0.510434 0.507285 0.077848 0.125863
C4    C     C_R   0.262279 0.506556 0.502447 0.548973
C5    C     C_2   0.487390 0.489641 0.915985 0.047439
C6    C     C_R   0.504216 0.745652 0.558755 0.559313
C7    C     C_R   0.736690 0.486744 0.497420 0.561620
C8    C     C_R   0.150170 0.611719 0.778867 -0.112090
C9    C     C_R   0.106703 0.618374 0.906819 -0.128876
C10   C     C_R   0.997555 0.544247 0.897734 0.089938
C11   C     C_R   0.924374 0.473345 0.758161 0.069285
C12   C     C_R   0.079948 0.537996 0.638717 0.005108
C13   C     C_R   0.956296 0.491589 0.631024 -0.047281
C14   C     C_2   0.829201 0.367233 0.743704 0.638781
C15   C     C_2   0.363630 0.849425 0.350127 0.621635
C16   C     C_R   0.127559 0.507904 0.505195 0.012854
C17   C     C_R   0.044786 0.460203 0.369960 -0.135776
C18   C     C_R   0.916782 0.449812 0.366720 -0.147037
C19   C     C_R   0.870676 0.469624 0.497397 -0.023953
C20   C     C_2   0.468612 0.115804 0.407787 -0.113847
C21   C     C_2   0.474727 0.070113 0.517081 -0.157111
C22   C     C_2   0.504183 0.884756 0.589038 -0.133560
Cu1   Cu    Cu3+1 0.521920 0.521810 0.644910 0.995803
Cu2   Cu    Cu3+1 0.478080 0.478190 0.355090 0.991274
H1    H     H_    0.078975 0.432468 0.266523 0.135027
H2    H     H_    0.556955 0.950249 0.693975 0.108427
H3    H     H_    0.357708 0.270235 0.056822 0.254702
H4    H     H_    0.263762 0.393590 0.086324 0.250860
H5    H     H_    0.039905 0.505875 0.082895 0.226117
H6    H     H_    0.951385 0.632920 0.099021 0.244345
H7    H     H_    0.869739 0.243221 0.549733 0.292095
H8    H     H_    0.496751 0.825439 0.222097 0.288145
H9    H     H_    0.445055 0.051945 0.292732 0.124166
H10   H     H_    0.412566 0.420233 0.840827 0.175707
H11   H     H_    0.586814 0.576687 0.149566 0.113972
H12   H     H_    0.626641 0.618892 0.935215 0.214769
H13   H     H_    0.236666 0.668171 0.791450 0.163841
H14   H     H_    0.162015 0.675047 0.013522 0.185590
H15   H     H_    0.854144 0.425428 0.261851 0.167251
H16   H     H_    0.502460 0.135312 0.631557 0.175010
N1    N     N_2   0.445130 0.445430 0.137370 -0.164367
N2    N     N_2   0.554930 0.554500 0.862630 -0.344472
N3    N     N_3   0.345157 0.359848 0.045305 -0.557844
N4    N     N_3   0.963734 0.538367 0.030165 -0.593056
O1    O     O_R   0.511700 0.332330 0.577400 -0.470470
O2    O     O_R   0.807916 0.251842 0.619406 -0.680673
O3    O     O_2   0.255715 0.821675 0.357237 -0.483277
O4    O     O_R   0.404262 0.801586 0.213904 -0.695010
O5    O     O_R   0.474680 0.295500 0.332650 -0.505514
O6    O     O_R   0.338160 0.518420 0.622400 -0.523827
O7    O     O_R   0.301140 0.481590 0.377650 -0.499771
O8    O     O_R   0.525320 0.704500 0.667350 -0.496489
O9    O     O_R   0.488300 0.667670 0.422600 -0.476257
O10   O     O_R   0.698860 0.518410 0.622350 -0.482207
O11   O     O_R   0.661840 0.481580 0.377600 -0.511604
O12   O     O_2   0.768668 0.379614 0.842072 -0.449816

loop_
_geom_bond_atom_site_label_1
_geom_bond_atom_site_label_2
_ccdc_geom_bond_type
C2    C22   D    
C14   O12   D    
C5    N2    D    
C4    C16   S    
Cu1   O1    S    
C7    O11   A    
C8    H13   S    
C11   C13   A    
C9    C10   A    
H4    N3    S    
H12   N2    S    
C3    H11   S    
C8    C12   A    
C17   H1    S    
C5    H10   S    
C3    C5    S    
C2    C21   S    
C17   C18   A    
Cu1   Cu2   S    
C14   O2    S    
C12   C13   A    
Cu2   O11   S    
C2    C15   S    
N1    N3    S    
H6    N4    S    
Cu1   O8    S    
H8    O4    S    
Cu1   N2    S    
Cu2   N1    S    
C15   O4    S    
Cu2   O7    S    
C20   H9    S    
C9    H14   S    
C7    C19   S    
H5    N4    S    
C11   C14   S    
C16   C17   A    
C10   C11   A    
C13   C19   A    
C4    O7    A    
C10   N4    S    
C6    C22   S    
H3    N3    S    
C20   C21   D    
Cu1   O10   S    
C18   C19   A    
C22   H2    S    
C1    O1    A    
Cu2   O5    S    
C18   H15   S    
C15   O3    D    
C3    N1    D    
C1    C20   S    
C6    O9    A    
C7    O10   A    
C6    O8    A    
Cu2   O9    S    
C1    O5    A    
C12   C16   A    
C4    O6    A    
C8    C9    A    
Cu1   O6    S    
H7    O2    S    
C21   H16   S    
