data_mof_unit_62126.cif
_audit_creation_date              2012-12-10T20:18:46-0500
_audit_creation_method            fapswitch 2.2
_symmetry_space_group_name_H-M    P1
_symmetry_Int_Tables_number       1
_space_group_crystal_system       triclinic
_cell_length_a                    19.22239
_cell_length_b                    18.549912
_cell_length_c                    27.743102
_cell_angle_alpha                 89.98682
_cell_angle_beta                  92.315717
_cell_angle_gamma                 89.496606
_cell_volume                      9883.99707003

loop_
_atom_site_label
_atom_site_type_symbol
_atom_type_description
_atom_site_fract_x
_atom_site_fract_y
_atom_site_fract_z
_atom_type_partial_charge
C1    C     C_R   0.366030 0.500172 0.500143 1.012277
C2    C     C_R   0.633972 0.499819 0.499306 1.023170
C3    C     C_R   0.538169 0.474022 0.100760 -0.218513
C4    C     C_R   0.495060 0.519629 0.901632 -0.216438
C5    C     C_R   0.496092 0.424399 0.124506 -0.107916
C6    C     C_R   0.538989 0.566513 0.877089 -0.106069
C7    C     C_R   0.457086 0.373705 0.097176 0.445398
C8    C     C_R   0.582204 0.614415 0.903702 0.437890
C9    C     C_R   0.586723 0.516339 0.127436 -0.114749
C10   C     C_R   0.442327 0.481637 0.875867 -0.125374
C11   C     C_R   0.509270 0.498022 0.354155 -0.190928
C12   C     C_R   0.498559 0.501988 0.646182 -0.184943
C13   C     C_R   0.462473 0.460268 0.975702 0.036633
C14   C     C_R   0.571336 0.533629 0.026842 0.036579
C15   C     C_R   0.555613 0.550628 0.977764 0.010258
C16   C     C_R   0.480295 0.441475 0.024147 0.017263
C17   C     C_R   0.504545 0.510023 0.951806 -0.035221
C18   C     C_R   0.529609 0.483426 0.050497 -0.036261
C19   C     C_R   0.400280 0.436262 0.951737 0.358189
C20   C     C_R   0.632136 0.558416 0.051822 0.355171
C21   C     C_R   0.390614 0.446326 0.901292 0.397560
C22   C     C_R   0.636005 0.556766 0.102860 0.386677
C23   C     C_R   0.501021 0.499774 0.406192 1.053887
C24   C     C_R   0.499850 0.500226 0.593775 1.060833
C25   C     C_R   0.455098 0.378737 0.046509 0.219093
C26   C     C_R   0.584411 0.610837 0.954423 0.225162
C27   C     C_R   0.750667 0.472636 0.532845 0.315682
C28   C     C_R   0.257162 0.522107 0.454437 0.319555
C29   C     C_R   0.253008 0.475207 0.537251 0.270312
C30   C     C_R   0.737799 0.530034 0.452938 0.278680
C31   C     C_R   0.823358 0.471256 0.528750 0.329260
C32   C     C_R   0.184049 0.525877 0.451439 0.335214
C33   C     C_R   0.180000 0.474660 0.532709 0.448828
C34   C     C_R   0.810521 0.532910 0.450730 0.449616
C35   C     C_R   0.852007 0.503208 0.488436 -0.041728
C36   C     C_R   0.146790 0.500674 0.490182 -0.042157
C37   C     C_R   0.708558 0.499747 0.494426 -0.270666
C38   C     C_R   0.290871 0.500297 0.497923 -0.267991
C39   C     C_R   0.963766 0.564291 0.504567 0.248032
C40   C     C_R   0.034671 0.444640 0.466693 0.250465
C41   C     C_R   0.036336 0.563619 0.505079 0.242227
C42   C     C_R   0.962069 0.445434 0.466015 0.244096
C43   C     C_R   0.071239 0.503318 0.486804 -0.003691
C44   C     C_R   0.927233 0.504789 0.485607 -0.002726
C45   C     C_R   0.547015 0.726056 0.529539 0.233526
C46   C     C_R   0.453260 0.273928 0.470256 0.231582
C47   C     C_R   0.453063 0.727863 0.471075 0.240935
C48   C     C_R   0.546652 0.272160 0.529145 0.238212
C49   C     C_R   0.549358 0.802924 0.529228 0.314777
C50   C     C_R   0.451061 0.197044 0.470470 0.314413
C51   C     C_R   0.451813 0.804715 0.471518 0.305772
C52   C     C_R   0.548088 0.195324 0.528603 0.305008
C53   C     C_R   0.500882 0.841991 0.500354 0.034817
C54   C     C_R   0.499355 0.158010 0.499516 0.034895
C55   C     C_R   0.495307 0.427059 0.175012 0.663180
C56   C     C_R   0.536541 0.564944 0.826441 0.658002
C57   C     C_R   0.538859 0.961500 0.466316 0.235869
C58   C     C_R   0.461431 0.038497 0.533560 0.235647
C59   C     C_R   0.462259 0.962173 0.534017 0.236945
C60   C     C_R   0.538034 0.037829 0.465859 0.236707
C61   C     C_R   0.499274 0.076850 0.499459 0.013844
C62   C     C_R   0.501012 0.923150 0.500416 0.013381
C63   C     C_R   0.583620 0.516735 0.177948 0.698195
C64   C     C_R   0.441928 0.482543 0.825266 0.706180
C65   C     C_R   0.576655 0.452714 0.286759 0.471897
C66   C     C_R   0.439163 0.544647 0.717755 0.470967
C67   C     C_R   0.565806 0.457155 0.336669 0.226529
C68   C     C_R   0.441043 0.536319 0.667245 0.226644
C69   C     C_R   0.458531 0.533178 0.324013 0.389063
C70   C     C_R   0.556176 0.472539 0.672904 0.381398
C71   C     C_R   0.460856 0.529866 0.273985 -0.161451
C72   C     C_R   0.559439 0.473839 0.723076 -0.145853
C73   C     C_R   0.523611 0.486863 0.253235 -0.081685
C74   C     C_R   0.497036 0.511708 0.747948 -0.088828
H1    H     H_    0.490692 0.509201 0.258047 0.167921
H2    H     H_    0.530270 0.491647 0.740953 0.167529
N1    N     N_R   0.536449 0.474779 0.199881 -0.328433
N2    N     N_R   0.490187 0.521639 0.802225 -0.329521
N3    N     N_R   0.500000 0.689440 0.500000 -0.174277
N4    N     N_R   0.500000 0.310560 0.500000 -0.174351
O1    O     O_R   0.398180 0.560840 0.499990 -0.557784
O2    O     O_R   0.601820 0.439160 0.500010 -0.555719
O3    O     O_R   0.601820 0.560840 0.500010 -0.610963
O4    O     O_R   0.398180 0.439160 0.499990 -0.609320
O5    O     O_R   0.500010 0.560810 0.428750 -0.584830
O6    O     O_R   0.499990 0.439190 0.571250 -0.590090
O7    O     O_R   0.499990 0.560810 0.571250 -0.571317
O8    O     O_R   0.500010 0.439190 0.428750 -0.567444
O9    O     O_2   0.452448 0.384400 0.199381 -0.425608
O10   O     O_2   0.580747 0.604827 0.801211 -0.425978
O11   O     O_2   0.396127 0.442373 0.799077 -0.416364
O12   O     O_2   0.625027 0.560315 0.205096 -0.421040
Zn1   Zn    Zn3+2 0.500000 0.581210 0.500000 1.098347
Zn2   Zn    Zn3+2 0.500000 0.418790 0.500000 1.094970
O13   O     O_3   0.403911 0.568574 0.344740 -0.660372
H3    H     H_    0.372717 0.589530 0.318892 0.373459
O14   O     O_3   0.611232 0.444200 0.648524 -0.660754
H4    H     H_    0.647423 0.426413 0.672279 0.375860
O15   O     O_3   0.867777 0.439322 0.563055 -0.697295
H5    H     H_    0.842645 0.400284 0.579156 0.370499
O16   O     O_3   0.147475 0.554240 0.411805 -0.695905
H6    H     H_    0.177141 0.589736 0.395877 0.370171
O17   O     O_3   0.139038 0.450399 0.569206 -0.685929
H7    H     H_    0.168693 0.432968 0.596842 0.411269
O18   O     O_3   0.843200 0.562968 0.412041 -0.683901
H8    H     H_    0.808219 0.582807 0.388369 0.411411
Br1   Br    Br    0.914250 0.645375 0.530760 -0.272374
Br2   Br    Br    0.084262 0.362989 0.441356 -0.270602
Br3   Br    Br    0.088154 0.644183 0.531429 -0.283982
Br4   Br    Br    0.910185 0.365132 0.439388 -0.286139
Br5   Br    Br    0.607926 0.673644 0.574055 -0.348846
Br6   Br    Br    0.392330 0.326385 0.425771 -0.352510
Br7   Br    Br    0.389510 0.677877 0.428367 -0.307396
Br8   Br    Br    0.609233 0.322135 0.572519 -0.306843
O19   O     O_3   0.597019 0.841891 0.557045 -0.674717
H9    H     H_    0.635972 0.810333 0.568269 0.393044
O20   O     O_3   0.403698 0.158023 0.442437 -0.674662
H10   H     H_    0.364913 0.189560 0.430896 0.393109
O21   O     O_3   0.404505 0.845500 0.443991 -0.680081
H11   H     H_    0.365345 0.815352 0.432272 0.389753
O22   O     O_3   0.595226 0.154613 0.556315 -0.680291
H12   H     H_    0.634425 0.184779 0.567958 0.389419
Br9   Br    Br    0.592009 0.909003 0.420221 -0.269444
Br10  Br    Br    0.408242 0.090978 0.579641 -0.272134
Br11  Br    Br    0.409981 0.910613 0.580603 -0.269357
Br12  Br    Br    0.590332 0.089397 0.419288 -0.272187
O23   O     O_3   0.424968 0.317848 0.120326 -0.640149
H13   H     H_    0.389084 0.296583 0.098158 0.381484
O24   O     O_3   0.617783 0.667121 0.879830 -0.640299
H14   H     H_    0.656093 0.685281 0.901330 0.381711
O25   O     O_3   0.387049 0.560617 0.636877 -0.746324
H15   H     H_    0.343033 0.558396 0.654157 0.377022
O26   O     O_3   0.609352 0.421572 0.369877 -0.745093
H16   H     H_    0.627745 0.377318 0.354811 0.374659
O27   O     O_3   0.388250 0.583564 0.740252 -0.689832
H17   H     H_    0.368365 0.619985 0.717420 0.365279
O28   O     O_3   0.633448 0.418694 0.267685 -0.689640
H18   H     H_    0.672843 0.420101 0.291764 0.368356
O29   O     O_3   0.330281 0.425254 0.876695 -0.661905
H19   H     H_    0.290370 0.435175 0.897251 0.356803
O30   O     O_3   0.687605 0.593051 0.128812 -0.663023
H20   H     H_    0.703784 0.633678 0.109072 0.367535
O31   O     O_3   0.347890 0.408570 0.978775 -0.728484
H21   H     H_    0.321026 0.373222 0.959017 0.377299
O32   O     O_3   0.688950 0.577326 0.025650 -0.719690
H22   H     H_    0.732002 0.571739 0.046206 0.367841
Br13  Br    Br    0.441231 0.290893 0.009673 -0.360878
Br14  Br    Br    0.604850 0.698976 0.989633 -0.346264
O33   O     O_3   0.719377 0.451162 0.574377 -0.671508
H23   H     H_    0.752530 0.457537 0.602269 0.368121
O34   O     O_3   0.297054 0.536316 0.415272 -0.672885
H24   H     H_    0.269215 0.526427 0.385224 0.370825
O35   O     O_3   0.284731 0.451095 0.580070 -0.720019
H25   H     H_    0.335796 0.455897 0.579451 0.356550
O36   O     O_3   0.697758 0.557345 0.414406 -0.712354
H26   H     H_    0.648558 0.543665 0.416979 0.353650

loop_
_geom_bond_atom_site_label_1
_geom_bond_atom_site_label_2
_ccdc_geom_bond_type
C66   C68   A    
O16   H6    S    
O2    Zn2   S    
C46   Br6   S    
C50   O20   S    
C8    C26   A    
C14   C18   A    
O18   H8    S    
O13   H3    S    
C32   O16   S    
C47   N3    A    
C72   H2    S    
O32   H22   S    
C56   N2    A    
C57   C62   A    
C39   C41   A    
C1    O4    A    
C39   Br1   S    
C12   C68   A    
C50   C54   A    
C32   C36   A    
C48   Br8   S    
C19   C21   A    
N3    Zn1   S    
C55   N1    A    
C9    C22   A    
C1    O1    A    
O19   H9    S    
C66   C74   A    
C29   C33   A    
C33   C36   A    
C65   C73   A    
C3    C18   A    
C15   C17   A    
C34   C35   A    
C52   O22   S    
C11   C23   S    
C69   C71   A    
O6    Zn2   S    
O5    Zn1   S    
C40   C43   A    
C11   C67   A    
C65   C67   A    
C63   O12   S    
C51   O21   S    
O34   H24   S    
C31   O15   S    
C70   O14   S    
C40   Br2   S    
C65   O28   S    
C58   C61   A    
C40   C42   A    
C27   O33   S    
C41   Br3   S    
C41   C43   A    
C2    O3    A    
C42   C44   A    
C52   C54   A    
C46   C50   A    
O14   H4    S    
C10   C21   A    
O8    Zn2   S    
C30   C34   A    
C27   C31   A    
C14   C20   A    
O27   H17   S    
C4    C6    A    
C57   C60   A    
C5    C7    A    
C13   C19   A    
C15   C26   A    
C6    C8    A    
C3    C5    A    
C58   C59   A    
C30   C37   A    
C60   C61   A    
C51   C53   A    
C29   C38   A    
C68   O25   S    
C3    C9    A    
C57   Br9   S    
O1    Zn1   S    
C53   C62   S    
O15   H5    S    
C28   C32   A    
O29   H19   S    
C25   Br13  S    
C45   Br5   S    
C45   C49   A    
C45   N3    A    
O4    Zn2   S    
C26   Br14  S    
C35   C44   S    
C33   O17   S    
O22   H12   S    
C1    C38   S    
C4    C17   A    
C72   C74   A    
C30   O36   S    
C49   O19   S    
C20   C22   A    
C23   O8    A    
O30   H20   S    
C23   O5    A    
O26   H16   S    
C31   C35   A    
C2    O2    A    
C21   O29   S    
C4    C10   A    
O23   H13   S    
O17   H7    S    
C29   O35   S    
O24   H14   S    
C63   N1    A    
C16   C25   A    
C47   Br7   S    
C12   C70   A    
C59   C62   A    
C19   O31   S    
C67   O26   S    
C9    C63   A    
C34   O18   S    
C64   N2    A    
C5    C55   A    
C10   C64   A    
C6    C56   A    
C69   O13   S    
C47   C51   A    
O21   H11   S    
C11   C69   A    
C39   C44   A    
C54   C61   S    
C59   Br11  S    
O28   H18   S    
C12   C24   S    
C58   Br10  S    
C7    C25   A    
C13   C17   A    
C20   O32   S    
C48   N4    A    
C60   Br12  S    
C42   Br4   S    
C55   O9    S    
O33   H23   S    
C71   H1    S    
C2    C37   S    
C24   O6    A    
C27   C37   A    
C49   C53   A    
O7    Zn1   S    
C22   O30   S    
C56   O10   S    
O25   H15   S    
C24   O7    A    
C8    O24   S    
C66   O27   S    
C48   C52   A    
C28   O34   S    
C16   C18   A    
C74   N2    S    
C13   C16   A    
C71   C73   A    
O36   H26   S    
C73   N1    S    
C14   C15   A    
C36   C43   S    
C70   C72   A    
C46   N4    A    
C64   O11   S    
C7    O23   S    
C28   C38   A    
O20   H10   S    
N4    Zn2   S    
O31   H21   S    
O35   H25   S    
O3    Zn1   S    
