data_mof_unit_52900.cif
_audit_creation_date              2012-12-11T17:34:21-0500
_audit_creation_method            fapswitch 2.2
_symmetry_space_group_name_H-M    P1
_symmetry_Int_Tables_number       1
_space_group_crystal_system       triclinic
_cell_length_a                    24.10018
_cell_length_b                    7.193519
_cell_length_c                    20.533912
_cell_angle_alpha                 90.000376
_cell_angle_beta                  104.953879
_cell_angle_gamma                 90.000165
_cell_volume                      3439.30489433

loop_
_atom_site_label
_atom_site_type_symbol
_atom_type_description
_atom_site_fract_x
_atom_site_fract_y
_atom_site_fract_z
_atom_type_partial_charge
O1    O     O_R   0.449110 0.494310 0.552140 -0.510818
O2    O     O_R   0.550890 0.994310 0.447860 -0.510815
O3    O     O_R   0.440010 0.824420 0.415850 -0.544278
O4    O     O_R   0.559990 0.324420 0.584150 -0.544284
C1    C     C_R   0.425473 0.655808 0.390896 0.858318
C2    C     C_R   0.574527 0.155809 0.609104 0.858317
O5    O     O_R   0.442260 0.824040 0.549660 -0.531617
O6    O     O_R   0.557740 0.324040 0.450340 -0.531614
O7    O     O_R   0.553160 0.993960 0.582620 -0.537724
O8    O     O_R   0.446840 0.493960 0.417380 -0.537721
C3    C     C_R   0.428063 0.654299 0.567133 0.769057
C4    C     C_R   0.571937 0.154298 0.432867 0.769075
O9    O     O_3   0.536380 0.660670 0.510660 -0.370033
O10   O     O_3   0.463620 0.160670 0.489340 -0.370034
V1    V     V_3+5 0.493250 0.935680 0.498020 1.596232
V2    V     V_3+5 0.506750 0.435680 0.501980 1.596234
C5    C     C_R   0.808964 0.943654 0.155238 -0.119547
C6    C     C_R   0.191038 0.443656 0.844765 -0.119540
H1    H     H_    0.778554 0.834235 0.157382 0.218194
H2    H     H_    0.221449 0.334238 0.842622 0.218193
C7    C     C_R   0.846631 0.921067 0.113733 0.408940
C8    C     C_R   0.153370 0.421069 0.886269 0.408943
C9    C     C_R   0.886750 0.062835 0.110315 -0.185294
C10   C     C_R   0.113250 0.562835 0.889685 -0.185291
C11   C     C_R   0.886676 0.225700 0.148749 -0.171329
C12   C     C_R   0.113325 0.725699 0.851252 -0.171329
H3    H     H_    0.916623 0.337181 0.147588 0.181100
H4    H     H_    0.083377 0.837177 0.852412 0.181099
C13   C     C_R   0.848739 0.247652 0.189673 0.459103
C14   C     C_R   0.151263 0.747651 0.810329 0.459104
C15   C     C_R   0.809757 0.105689 0.193390 -0.077213
C16   C     C_R   0.190246 0.605689 0.806613 -0.077212
C17   C     C_1   0.770366 0.123710 0.235930 0.174170
C18   C     C_1   0.229637 0.623712 0.764074 0.174171
C19   C     C_1   0.737144 0.134489 0.271169 0.231525
C20   C     C_1   0.262860 0.634492 0.728836 0.231527
C21   C     C_R   0.660358 0.984480 0.312230 0.350114
C22   C     C_R   0.339648 0.484488 0.687776 0.350122
C23   C     C_R   0.622752 0.980505 0.354734 0.316368
C24   C     C_R   0.377253 0.480512 0.645272 0.316371
C25   C     C_R   0.615861 0.141586 0.392536 -0.257950
C26   C     C_R   0.384141 0.641588 0.607468 -0.257957
C27   C     C_R   0.652336 0.294216 0.391862 -0.154918
C28   C     C_R   0.347666 0.794217 0.608141 -0.154923
H5    H     H_    0.650232 0.415513 0.422356 0.226538
H6    H     H_    0.349769 0.915512 0.577646 0.226534
C29   C     C_R   0.693374 0.290672 0.354256 0.436120
C30   C     C_R   0.306629 0.790674 0.645748 0.436118
C31   C     C_R   0.696412 0.138101 0.312583 -0.161348
C32   C     C_R   0.303592 0.638106 0.687423 -0.161350
C33   C     C_R   0.637571 0.162793 0.797331 0.383752
C34   C     C_R   0.362429 0.662737 0.202668 0.383760
C35   C     C_R   0.617647 0.148897 0.675473 -0.278871
C36   C     C_R   0.382352 0.648889 0.324527 -0.278858
C37   C     C_R   0.893425 0.965136 0.774522 -0.206087
C38   C     C_R   0.106571 0.465162 0.225481 -0.206095
C39   C     C_R   0.852870 0.915262 0.716086 0.445311
C40   C     C_R   0.147124 0.415303 0.283920 0.445311
C41   C     C_R   0.795323 0.956772 0.708456 -0.073789
C42   C     C_R   0.204672 0.456805 0.291550 -0.073789
C43   C     C_R   0.776845 0.062721 0.756706 0.029590
C44   C     C_R   0.223153 0.562732 0.243297 0.029589
C45   C     C_R   0.817896 0.104135 0.819580 -0.071619
C46   C     C_R   0.182103 0.604135 0.180421 -0.071618
C47   C     C_R   0.717356 0.111866 0.746100 -0.067421
C48   C     C_R   0.282643 0.611864 0.253902 -0.067419
C49   C     C_R   0.697447 0.156913 0.803562 -0.218974
C50   C     C_R   0.302553 0.656879 0.196438 -0.218974
C51   C     C_R   0.737670 0.210166 0.863860 0.444184
C52   C     C_R   0.262331 0.710126 0.136138 0.444188
C53   C     C_R   0.797008 0.191319 0.870752 0.276819
C54   C     C_R   0.202993 0.691300 0.129248 0.276818
C55   C     C_R   0.676808 0.120889 0.680855 0.287765
C56   C     C_R   0.323190 0.620902 0.319147 0.287767
C57   C     C_R   0.598944 0.175880 0.733896 0.278191
C58   C     C_R   0.401056 0.675834 0.266103 0.278193
C59   C     C_R   0.877371 0.051911 0.827972 -0.103249
C60   C     C_R   0.122628 0.551919 0.172029 -0.103250
H7    H     H_    0.937735 0.924166 0.780133 0.150010
H8    H     H_    0.062260 0.424199 0.219870 0.150010
H9    H     H_    0.765093 0.894822 0.665985 0.202078
H10   H     H_    0.234900 0.394866 0.334025 0.202081
O11   O     O_R   0.053190 0.709680 0.082610 -0.515816
O12   O     O_R   0.946810 0.209680 0.917390 -0.515814
O13   O     O_R   0.057740 0.380240 0.950340 -0.518093
O14   O     O_R   0.942260 0.880240 0.049660 -0.518093
C61   C     C_R   0.071383 0.549035 0.932314 0.777722
C62   C     C_R   0.928617 0.049036 0.067686 0.777719
O15   O     O_R   0.060000 0.379940 0.084150 -0.545007
O16   O     O_R   0.940000 0.879940 0.915850 -0.545009
O17   O     O_R   0.949110 0.210100 0.052140 -0.526081
O18   O     O_R   0.050890 0.710100 0.947860 -0.526081
C63   C     C_R   0.077087 0.548962 0.107114 0.754053
C64   C     C_R   0.922912 0.048960 0.892886 0.754052
O19   O     O_3   0.963630 0.543720 0.989330 -0.349569
O20   O     O_3   0.036370 0.043720 0.010670 -0.349571
V3    V     V_3+5 0.006750 0.268680 0.001980 1.644982
V4    V     V_3+5 0.993250 0.768680 0.998020 1.644983
Cl1   Cl    Cl    0.715621 0.338189 0.927008 -0.400844
Cl2   Cl    Cl    0.284384 0.838114 0.072985 -0.400840
Cl3   Cl    Cl    0.607239 0.127374 0.866189 -0.486342
Cl4   Cl    Cl    0.392759 0.627274 0.133811 -0.486359
Cl5   Cl    Cl    0.698752 0.147294 0.605240 -0.609921
Cl6   Cl    Cl    0.301246 0.647344 0.394760 -0.609927
Cl7   Cl    Cl    0.873878 0.787632 0.653587 -0.471151
Cl8   Cl    Cl    0.126113 0.287699 0.346422 -0.471145
Cl9   Cl    Cl    0.842314 0.294277 0.943000 -0.532363
Cl10  Cl    Cl    0.157688 0.794267 0.057001 -0.532365
Cl11  Cl    Cl    0.839438 0.716013 0.065266 -0.492819
Cl12  Cl    Cl    0.160563 0.216017 0.934736 -0.492822
Cl13  Cl    Cl    0.851217 0.455284 0.235812 -0.506482
Cl14  Cl    Cl    0.148785 0.955281 0.764190 -0.506483
Cl15  Cl    Cl    0.661727 0.796130 0.257140 -0.495455
Cl16  Cl    Cl    0.338281 0.296142 0.742869 -0.495413
Cl17  Cl    Cl    0.587437 0.767509 0.360406 -0.563900
Cl18  Cl    Cl    0.412572 0.267522 0.639605 -0.563878
Cl19  Cl    Cl    0.741540 0.478147 0.361795 -0.418693
Cl20  Cl    Cl    0.258463 0.978149 0.638211 -0.418706
O21   O     O_3   0.543005 0.230221 0.729407 -0.524286
C65   C     C_3   0.540784 0.427738 0.732149 0.165730
H11   H     H_    0.517830 0.479798 0.681531 0.136374
H12   H     H_    0.583662 0.498141 0.745691 0.087473
C66   C     C_3   0.508117 0.488152 0.783352 -0.272601
H13   H     H_    0.466092 0.415851 0.773042 0.261182
H14   H     H_    0.533174 0.449301 0.834870 0.262958
C67   C     C_3   0.498129 0.697990 0.780932 -0.702770
H15   H     H_    0.539821 0.773030 0.792941 0.267430
H16   H     H_    0.474355 0.737439 0.818516 0.274699
H17   H     H_    0.472406 0.740936 0.730175 0.218134
O22   O     O_3   0.456998 0.730143 0.270589 -0.524300
C68   C     C_3   0.459228 0.927657 0.267831 0.165712
H18   H     H_    0.482175 0.979745 0.318449 0.136367
H19   H     H_    0.416351 0.998077 0.254272 0.087502
C69   C     C_3   0.491908 0.988005 0.216634 -0.272545
H20   H     H_    0.533931 0.915681 0.226960 0.261204
H21   H     H_    0.466858 0.949128 0.165115 0.262950
C70   C     C_3   0.501907 0.197839 0.219038 -0.702813
H22   H     H_    0.460219 0.272899 0.206994 0.267479
H23   H     H_    0.525704 0.237232 0.181471 0.274670
H24   H     H_    0.527610 0.240818 0.269799 0.218130

loop_
_geom_bond_atom_site_label_1
_geom_bond_atom_site_label_2
_ccdc_geom_bond_type
C38   C60   A    
C48   C50   A    
C67   H15   S    
C53   Cl9   S    
C39   Cl7   S    
O1    C3    A    
C68   C69   S    
O2    C4    A    
C69   C70   S    
O19   V4    S    
O18   V4    S    
C66   H13   S    
C23   C25   A    
C68   H19   S    
O5    C3    A    
C70   H23   S    
C34   Cl4   S    
O12   V3    S    
C22   C24   A    
C10   C12   A    
C37   C59   A    
O14   C62   A    
C39   C41   A    
C21   Cl15  S    
C60   C63   S    
C40   C42   A    
O11   C63   A    
C59   C64   S    
C47   C55   A    
C3    C26   S    
C42   C44   A    
C33   C49   A    
C51   C53   A    
C44   C46   A    
C66   H14   S    
C5    H1    S    
C36   C56   A    
C58   O22   S    
C54   Cl10  S    
C20   C32   S    
C28   H6    S    
C47   C49   A    
O11   V4    S    
C19   C31   S    
C15   C17   S    
C6    H2    S    
C34   C50   A    
C65   C66   S    
C24   C26   A    
O6    V2    S    
C61   O18   A    
C25   C27   A    
C35   C57   A    
C26   C28   A    
C2    O7    A    
C65   H12   S    
O16   C64   A    
O13   C61   A    
C11   C13   A    
C70   H24   S    
C41   C43   A    
C44   C48   A    
C1    C36   S    
C57   O21   S    
C29   C31   A    
C66   C67   S    
C69   H21   S    
O5    V1    S    
C67   H17   S    
C8    Cl12  S    
C5    C7    A    
O15   V3    S    
C49   C51   A    
C16   C18   S    
O4    V2    S    
C4    C25   S    
C37   H7    S    
C7    Cl11  S    
C62   O17   A    
C29   Cl19  S    
O6    C4    A    
O20   V3    S    
C43   C45   A    
O1    V2    S    
O12   C64   A    
O17   V3    S    
O2    V1    S    
C27   H5    S    
C21   C31   A    
C42   H10   S    
C36   C58   A    
C51   Cl1   S    
O4    C2    A    
C45   C53   A    
C12   C14   A    
C23   Cl17  S    
C9    C62   S    
C37   C39   A    
C34   C58   A    
C5    C15   A    
C8    C10   A    
C6    C16   A    
C2    C35   S    
C68   H18   S    
O3    V1    S    
C65   H11   S    
C56   Cl6   S    
C45   C59   A    
C67   H16   S    
C6    C8    A    
C46   C60   A    
C13   Cl13  S    
C35   C55   A    
C41   H9    S    
C33   C57   A    
O3    C1    A    
C30   Cl20  S    
O21   C65   S    
C69   H20   S    
C22   C32   A    
C11   H3    S    
C70   H22   S    
C12   H4    S    
C38   H8    S    
C52   Cl2   S    
C7    C9    A    
O22   C68   S    
O7    V1    S    
C1    O8    A    
C13   C15   A    
O8    V2    S    
C14   C16   A    
C24   Cl18  S    
C22   Cl16  S    
C30   C32   A    
C17   C19   T    
C38   C40   A    
C18   C20   T    
C46   C54   A    
O15   C63   A    
O14   V4    S    
C10   C61   S    
O13   V3    S    
C43   C47   A    
C55   Cl5   S    
C9    C11   A    
C21   C23   A    
O9    V2    S    
C14   Cl14  S    
C50   C52   A    
O10   V1    S    
C52   C54   A    
C40   Cl8   S    
C27   C29   A    
O16   V4    S    
C33   Cl3   S    
C28   C30   A    
C48   C56   A    
