data_mof_unit_43747.cif
_audit_creation_date              2012-12-10T20:26:27-0500
_audit_creation_method            fapswitch 2.2
_symmetry_space_group_name_H-M    P1
_symmetry_Int_Tables_number       1
_space_group_crystal_system       triclinic
_cell_length_a                    10.732215
_cell_length_b                    10.67401
_cell_length_c                    9.864799
_cell_angle_alpha                 90.268952
_cell_angle_beta                  90.26875
_cell_angle_gamma                 89.793735
_cell_volume                      1130.03753221

loop_
_atom_site_label
_atom_site_type_symbol
_atom_type_description
_atom_site_fract_x
_atom_site_fract_y
_atom_site_fract_z
_atom_type_partial_charge
C1    C     C_R   0.504424 0.259915 0.499704 0.899624
C2    C     C_R   0.526601 0.128689 0.498827 -0.086092
C3    C     C_R   0.538503 0.063968 0.375521 -0.211098
C4    C     C_R   0.538696 0.934541 0.376005 -0.208017
C5    C     C_R   0.527797 0.871272 0.499848 -0.120632
C6    C     C_R   0.543492 0.936785 0.621311 0.094923
C7    C     C_3   0.473359 0.931464 0.752486 -0.100371
C8    C     C_3   0.469530 0.074051 0.749934 -0.478399
C9    C     C_R   0.414696 0.568123 0.071129 0.159667
C10   C     C_R   0.591033 0.438633 0.072118 -0.127616
C11   C     C_R   0.591094 0.438759 0.928112 -0.134858
C12   C     C_R   0.262720 0.494879 0.499607 0.896080
C13   C     C_R   0.414210 0.567397 0.928716 0.129293
C14   C     C_3   0.276294 0.553380 0.922387 0.226122
C15   C     C_3   0.276528 0.555000 0.076369 -0.549627
C16   C     C_R   0.504865 0.740126 0.500221 0.887134
C17   C     C_R   0.737226 0.505383 0.500239 0.915575
C18   C     C_2   0.933077 0.505323 0.387858 -0.121250
C19   C     C_2   0.868051 0.523988 0.500551 -0.244473
C20   C     C_2   0.066032 0.516878 0.393406 -0.265704
C21   C     C_2   0.132466 0.471590 0.497489 0.260615
C22   C     C_R   0.541155 0.064853 0.620579 0.094105
H1    H     H_    0.889275 0.485235 0.290646 0.174036
H2    H     H_    0.522991 0.121497 0.831889 0.201488
H3    H     H_    0.662923 0.388088 0.126498 0.149750
H4    H     H_    0.663024 0.388315 0.873909 0.165313
H5    H     H_    0.246041 0.462673 0.877459 0.170365
H6    H     H_    0.231697 0.639329 0.121489 0.230209
H7    H     H_    0.247035 0.464392 0.120943 0.197258
H8    H     H_    0.911911 0.553456 0.594951 0.205369
H9    H     H_    0.109589 0.568492 0.311945 0.151095
H10   H     H_    0.537443 0.111985 0.278996 0.171628
H11   H     H_    0.537135 0.885396 0.279691 0.170394
H12   H     H_    0.379246 0.889468 0.739939 0.211194
H13   H     H_    0.373959 0.112143 0.734263 0.214037
N1    N     N_R   0.499170 0.499140 0.142800 -0.099935
N2    N     N_R   0.499170 0.499180 0.857150 -0.131310
O1    O     O_R   0.500020 0.316790 0.614690 -0.615704
O2    O     O_R   0.500000 0.316760 0.385350 -0.624404
O3    O     O_R   0.319080 0.500020 0.614640 -0.566471
O4    O     O_R   0.319070 0.499980 0.385300 -0.643781
O5    O     O_R   0.500000 0.683240 0.614650 -0.614452
O6    O     O_R   0.499980 0.683210 0.385310 -0.619829
O7    O     O_R   0.680930 0.500020 0.614700 -0.615733
O8    O     O_R   0.680920 0.499980 0.385360 -0.628878
Zn1   Zn    Zn3+2 0.500010 0.500020 0.653130 0.978946
Zn2   Zn    Zn3+2 0.499990 0.499980 0.346870 0.948837
Cl1   Cl    Cl    0.203277 0.688089 0.850208 -0.625382
Cl2   Cl    Cl    0.074595 0.366864 0.621330 -0.629424
C23   C     C_3   0.546918 0.874204 0.872464 -0.347050
C24   C     C_3   0.686298 0.907689 0.879439 -0.336104
C25   C     C_3   0.748861 0.845422 0.001144 -0.839934
H14   H     H_    0.706057 0.879236 0.096897 0.250666
H15   H     H_    0.739383 0.741928 0.994487 0.265404
H16   H     H_    0.849517 0.869116 0.002901 0.272754
H17   H     H_    0.733996 0.874780 0.786006 0.238909
H18   H     H_    0.698719 0.010560 0.888439 0.224779
H19   H     H_    0.500718 0.902962 0.968401 0.204725
H20   H     H_    0.539647 0.771093 0.864193 0.226234

loop_
_geom_bond_atom_site_label_1
_geom_bond_atom_site_label_2
_ccdc_geom_bond_type
C2    C22   A    
C9    N1    A    
C8    C22   S    
C12   O3    A    
C6    C7    S    
C24   H18   S    
C12   O4    A    
C14   H5    S    
C13   N2    A    
C25   H16   S    
C21   Cl2   S    
C23   C24   S    
O4    Zn2   S    
C17   O7    A    
C7    C8    S    
C13   C14   S    
C25   H14   S    
O3    Zn1   S    
C16   O6    A    
C15   H6    S    
C5    C6    A    
C1    O1    A    
N1    Zn2   S    
C23   H20   S    
C1    C2    S    
C10   H3    S    
C17   C19   S    
C25   H15   S    
C15   H7    S    
C2    C3    A    
O8    Zn2   S    
C9    C15   S    
C3    H10   S    
C7    H12   S    
O1    Zn1   S    
C10   C11   A    
C1    O2    A    
C18   H1    S    
C23   H19   S    
C16   O5    A    
C20   C21   D    
C18   C20   S    
O2    Zn2   S    
C24   H17   S    
O5    Zn1   S    
C11   N2    A    
C9    C13   A    
C14   C15   S    
C18   C19   D    
C5    C16   S    
C14   Cl1   S    
O7    Zn1   S    
C11   H4    S    
C8    H2    S    
N2    Zn1   S    
C4    H11   S    
C19   H8    S    
O6    Zn2   S    
C12   C21   S    
C20   H9    S    
C3    C4    A    
C24   C25   S    
C7    C23   S    
C17   O8    A    
C4    C5    A    
C10   N1    A    
C8    H13   S    
C6    C22   A    
