data_mof_unit_6131.cif
_audit_creation_date              2013-03-05T15:53:31-0500
_audit_creation_method            fapswitch 2.2
_symmetry_space_group_name_H-M    P1
_symmetry_Int_Tables_number       1
_space_group_crystal_system       triclinic
_cell_length_a                    30.501595
_cell_length_b                    7.248528
_cell_length_c                    26.008708
_cell_angle_alpha                 90.052343
_cell_angle_beta                  112.059998
_cell_angle_gamma                 90.03684
_cell_volume                      5329.32940185

loop_
_atom_site_label
_atom_site_type_symbol
_atom_site_description
_atom_site_fract_x
_atom_site_fract_y
_atom_site_fract_z
_atom_type_partial_charge
O1    O     O_R   0.295360 0.592990 0.320420 -0.580432
O2    O     O_R   0.704640 0.407010 0.679580 -0.580440
O3    O     O_R   0.204640 0.092990 0.179580 -0.580656
O4    O     O_R   0.795360 0.907010 0.820420 -0.580665
O5    O     O_R   0.294060 0.265620 0.213230 -0.594311
O6    O     O_R   0.705940 0.734380 0.786770 -0.594300
O7    O     O_R   0.205940 0.765620 0.286770 -0.594493
O8    O     O_R   0.794060 0.234380 0.713230 -0.594494
C1    C     C_R   0.304205 0.432287 0.199494 0.926825
C2    C     C_R   0.695795 0.567713 0.800505 0.926813
C3    C     C_R   0.195747 0.932307 0.300484 0.927968
C4    C     C_R   0.804252 0.067693 0.699516 0.927968
O9    O     O_R   0.300850 0.263360 0.322080 -0.579974
O10   O     O_R   0.699150 0.736640 0.677920 -0.579974
O11   O     O_R   0.199150 0.763360 0.177920 -0.579948
O12   O     O_R   0.800850 0.236640 0.822080 -0.579943
O13   O     O_R   0.211480 0.091820 0.289210 -0.591963
O14   O     O_R   0.788520 0.908180 0.710790 -0.591964
O15   O     O_R   0.288520 0.591820 0.210790 -0.591526
O16   O     O_R   0.711480 0.408180 0.789210 -0.591520
C5    C     C_R   0.313209 0.431738 0.343201 0.918483
C6    C     C_R   0.686791 0.568262 0.656798 0.918477
C7    C     C_R   0.186770 0.931424 0.156795 0.918552
C8    C     C_R   0.813229 0.068576 0.843205 0.918559
O17   O     O_3   0.220670 0.426670 0.239090 -0.283457
O18   O     O_3   0.779330 0.573330 0.760910 -0.283462
O19   O     O_3   0.279330 0.926670 0.260910 -0.283416
O20   O     O_3   0.720670 0.073330 0.739090 -0.283414
V1    V     V_3+5 0.255440 0.152290 0.252020 1.172906
V2    V     V_3+5 0.744560 0.847710 0.747980 1.172909
V3    V     V_3+5 0.244560 0.652290 0.247980 1.173222
V4    V     V_3+5 0.755440 0.347710 0.752020 1.173221
C9    C     C_R   0.849616 0.063125 0.900064 -0.155972
C10   C     C_R   0.150383 0.936878 0.099936 -0.155968
C11   C     C_R   0.650450 0.561129 0.599946 -0.155502
C12   C     C_R   0.349551 0.438871 0.400054 -0.155507
C13   C     C_R   0.872427 0.105981 0.998978 -0.111179
C14   C     C_R   0.127574 0.894060 0.001020 -0.111169
C15   C     C_R   0.628297 0.586403 0.500636 -0.110198
C16   C     C_R   0.371704 0.413606 0.499364 -0.110193
C17   C     C_R   0.837365 0.099994 0.945853 0.010661
C18   C     C_R   0.162636 0.900038 0.054147 0.010658
C19   C     C_R   0.663156 0.585469 0.553925 0.011530
C20   C     C_R   0.336844 0.414546 0.446075 0.011531
C21   C     C_R   0.897108 0.028378 0.908356 -0.203116
C22   C     C_R   0.102890 0.971609 0.091645 -0.203119
C23   C     C_R   0.602711 0.533224 0.591784 -0.203473
C24   C     C_R   0.397290 0.466765 0.408215 -0.203469
C25   C     C_R   0.933622 0.032711 0.962329 0.123671
C26   C     C_R   0.066378 0.967295 0.037671 0.123672
C27   C     C_R   0.566432 0.531394 0.537651 0.123538
C28   C     C_R   0.433569 0.468595 0.462349 0.123536
C29   C     C_R   0.920519 0.078449 0.007835 -0.037544
C30   C     C_R   0.079482 0.921577 0.992164 -0.037550
C31   C     C_R   0.580014 0.564971 0.491790 -0.038976
C32   C     C_R   0.419987 0.435024 0.508209 -0.038975
C33   C     C_R   0.982502 0.994658 0.972448 0.021289
C34   C     C_R   0.017498 0.005351 0.027551 0.021287
C35   C     C_R   0.517357 0.498209 0.527677 0.020787
C36   C     C_R   0.482644 0.501776 0.472322 0.020785
C37   C     C_R   0.002682 0.056642 0.070774 -0.278091
C38   C     C_R   0.997319 0.943380 0.929225 -0.278094
C39   C     C_R   0.497934 0.541529 0.428672 -0.279162
C40   C     C_R   0.502067 0.458455 0.571327 -0.279170
C41   C     C_R   0.955493 0.093767 0.061651 0.326609
C42   C     C_R   0.044508 0.906266 0.938347 0.326608
C43   C     C_R   0.545324 0.573780 0.437656 0.327761
C44   C     C_R   0.454677 0.426207 0.562343 0.327767
H1    H     H_    0.095819 0.997315 0.128560 0.111920
H2    H     H_    0.904179 0.002644 0.871441 0.111918
H3    H     H_    0.404671 0.483573 0.371145 0.110901
H4    H     H_    0.595329 0.516407 0.628854 0.110895
H5    H     H_    0.861540 0.131568 0.033441 0.178688
H6    H     H_    0.138462 0.868492 0.966557 0.178694
H7    H     H_    0.639507 0.602398 0.466035 0.179105
H8    H     H_    0.360494 0.397621 0.533966 0.179102
H9    H     H_    0.027298 0.074675 0.112730 0.171829
H10   H     H_    0.972703 0.925358 0.887268 0.171829
H11   H     H_    0.473570 0.553922 0.386398 0.171534
H12   H     H_    0.526431 0.446057 0.613600 0.171531
C45   C     C_R   0.087590 0.893906 0.475567 0.467726
C46   C     C_R   0.912409 0.106088 0.524431 0.467723
C47   C     C_R   0.413073 0.578565 0.028781 0.468151
C48   C     C_R   0.586913 0.421293 0.971187 0.468207
N1    N     N_R   0.072960 0.970272 0.423506 -0.187074
N2    N     N_R   0.927039 0.029725 0.576492 -0.187070
N3    N     N_R   0.426367 0.471420 0.075723 -0.185900
N4    N     N_R   0.573637 0.528555 0.924272 -0.185908
C49   C     C_R   0.029996 0.057690 0.401026 0.473655
C50   C     C_R   0.970004 0.942308 0.598972 0.473653
C51   C     C_R   0.468184 0.375037 0.093217 0.479701
C52   C     C_R   0.531839 0.625052 0.906802 0.479766
C53   C     C_R   0.000154 0.071833 0.431114 -0.056808
C54   C     C_R   0.999845 0.928164 0.568884 -0.056807
C55   C     C_R   0.498196 0.383630 0.063223 -0.054355
C56   C     C_R   0.501816 0.616389 0.936781 -0.054369
C57   C     C_R   0.014739 0.993831 0.484504 -0.008342
C58   C     C_R   0.985260 0.006165 0.515494 -0.008343
C59   C     C_R   0.485096 0.494111 0.015293 -0.009291
C60   C     C_R   0.514906 0.505850 0.984699 -0.009286
C61   C     C_R   0.058744 0.903576 0.506982 -0.048949
C62   C     C_R   0.941255 0.096419 0.493016 -0.048944
C63   C     C_R   0.442259 0.592907 0.997888 -0.046141
C64   C     C_R   0.557734 0.407002 0.002091 -0.046155
C65   C     C_R   0.956139 0.161642 0.409096 -0.102030
C66   C     C_R   0.043861 0.838355 0.590902 -0.102023
C67   C     C_R   0.541028 0.285323 0.080151 -0.102097
C68   C     C_R   0.458982 0.714682 0.919849 -0.102102
C69   C     C_R   0.927065 0.173792 0.439657 -0.109785
C70   C     C_R   0.072934 0.826203 0.560342 -0.109785
C71   C     C_R   0.570417 0.296855 0.049973 -0.112133
C72   C     C_R   0.429579 0.703066 0.950008 -0.112120
O21   O     O_2   0.130186 0.810707 0.497241 -0.540944
O22   O     O_2   0.869813 0.189283 0.502756 -0.540952
O23   O     O_2   0.371482 0.669668 0.011617 -0.546585
O24   O     O_2   0.628477 0.330022 0.988309 -0.546618
O25   O     O_2   0.015926 0.129429 0.349484 -0.516481
O26   O     O_2   0.984074 0.870573 0.650515 -0.516486
O27   O     O_2   0.481060 0.272814 0.139890 -0.525799
O28   O     O_2   0.518996 0.727468 0.860172 -0.525851
H13   H     H_    0.943975 0.222925 0.368146 0.185704
H14   H     H_    0.056024 0.777072 0.631852 0.185706
H15   H     H_    0.552026 0.199119 0.116814 0.182981
H16   H     H_    0.447990 0.800920 0.883195 0.182981
H17   H     H_    0.893409 0.243971 0.421275 0.181246
H18   H     H_    0.106590 0.756024 0.578723 0.181247
H19   H     H_    0.603120 0.219115 0.064329 0.179330
H20   H     H_    0.396870 0.780773 0.935644 0.179339
C73   C     C_R   0.879076 0.877885 0.622738 -0.051448
C74   C     C_R   0.115955 0.788953 0.376567 -0.044108
C75   C     C_R   0.615226 0.379068 0.869879 -0.040389
C76   C     C_R   0.377538 0.290874 0.115365 -0.052780
H21   H     H_    0.888193 0.744489 0.610811 0.119695
H22   H     H_    0.102597 0.662628 0.387527 0.122853
H23   H     H_    0.600974 0.246820 0.875267 0.128724
H24   H     H_    0.385644 0.165968 0.097833 0.130336
C77   C     C_R   0.849454 0.886946 0.652738 -0.155633
C78   C     C_R   0.145722 0.779494 0.346682 -0.160345
C79   C     C_R   0.644880 0.388418 0.839923 -0.163272
C80   C     C_R   0.348127 0.281013 0.145682 -0.160590
H25   H     H_    0.836605 0.759055 0.663448 0.140009
H26   H     H_    0.154832 0.644939 0.335539 0.138073
H27   H     H_    0.652909 0.262005 0.823037 0.141360
H28   H     H_    0.334235 0.147748 0.150840 0.137985
C81   C     C_R   0.836480 0.058449 0.668362 -0.134567
C82   C     C_R   0.163519 0.941551 0.331637 -0.134577
C83   C     C_R   0.663687 0.558520 0.831743 -0.131888
C84   C     C_R   0.336314 0.441479 0.168255 -0.131902
C85   C     C_R   0.854264 0.220509 0.653301 -0.160354
C86   C     C_R   0.150557 0.113048 0.347276 -0.155623
C87   C     C_R   0.651961 0.718919 0.854424 -0.160594
C88   C     C_R   0.355037 0.611640 0.159967 -0.163245
H29   H     H_    0.845145 0.355068 0.664431 0.138067
H30   H     H_    0.163416 0.240936 0.336579 0.140011
H31   H     H_    0.665925 0.852129 0.849356 0.138014
H32   H     H_    0.346938 0.738113 0.176763 0.141322
C89   C     C_R   0.884031 0.211049 0.623415 -0.044100
C90   C     C_R   0.120936 0.122109 0.377277 -0.051463
C91   C     C_R   0.622548 0.709049 0.884739 -0.052851
C92   C     C_R   0.384694 0.620986 0.130015 -0.040385
H33   H     H_    0.897380 0.337378 0.612443 0.122861
H34   H     H_    0.111828 0.255500 0.389217 0.119684
H35   H     H_    0.614505 0.833890 0.902355 0.130398
H36   H     H_    0.398881 0.753289 0.124548 0.128653
C93   C     C_R   0.896627 0.039697 0.607778 0.209017
C94   C     C_R   0.103372 0.960300 0.392221 0.209037
C95   C     C_R   0.603902 0.539050 0.892765 0.205458
C96   C     C_R   0.396101 0.460934 0.107232 0.205414
N5    N     N_R   0.944102 0.153210 0.107900 0.237709
O29   O     O_R   0.922760 0.310132 0.105670 -0.370855
O30   O     O_R   0.962725 0.069430 0.155424 -0.341506
N6    N     N_R   0.055901 0.846846 0.892097 0.237711
O31   O     O_R   0.077246 0.689932 0.894324 -0.370843
O32   O     O_R   0.037277 0.930637 0.844575 -0.341502
N7    N     N_R   0.557248 0.621330 0.390844 0.237619
O33   O     O_R   0.579421 0.774957 0.391057 -0.368589
O34   O     O_R   0.538429 0.530392 0.344534 -0.346412
N8    N     N_R   0.442754 0.378648 0.609154 0.237618
O35   O     O_R   0.420577 0.225027 0.608938 -0.368598
O36   O     O_R   0.461575 0.469570 0.655467 -0.346452
C97   C     C_1   0.211232 0.867212 0.060852 0.071232
N9    N     N_1   0.250155 0.840964 0.066300 -0.060810
C98   C     C_1   0.788769 0.132845 0.939146 0.071196
N10   N     N_1   0.749847 0.159114 0.933697 -0.060775
C99   C     C_1   0.287982 0.390247 0.439497 0.073481
N11   N     N_1   0.248852 0.370930 0.434202 -0.070456
C100  C     C_1   0.712018 0.609790 0.560505 0.073483
N12   N     N_1   0.751148 0.629124 0.565801 -0.070454

loop_
_geom_bond_atom_site_label_1
_geom_bond_atom_site_label_2
_geom_bond_distance
_ccdc_geom_bond_type
O17   V3    1.769246 S    
C59   C63   1.407978 A    
C88   C92   1.399679 A    
O1    C5    1.331704 A    
N3    C51   1.373964 A    
O19   V1    1.770502 S    
C9    C21   1.405086 A    
N5    O29   1.301398 A    
O3    C7    1.332319 A    
C10   C18   1.401117 A    
C67   H15   1.083190 S    
C11   C23   1.404832 A    
C80   C84   1.409103 A    
C57   C58   1.417922 A    
C99   N11   1.157316 T    
C25   C33   1.440172 A    
C33   C38   1.409710 A    
N7    O34   1.301334 A    
C5    C12   1.478660 S    
C45   C61   1.409494 A    
C97   N9    1.157453 T    
O7    C3    1.329173 A    
C6    C11   1.478659 S    
C79   C83   1.409187 A    
C35   C40   1.409792 A    
C26   C30   1.423109 A    
C47   C63   1.409330 A    
C36   C39   1.409793 A    
N1    C94   1.447317 S    
C50   O26   1.349454 S    
C42   N6    1.437502 S    
O10   V2    1.996751 S    
C14   C18   1.394502 A    
C75   H23   1.083045 S    
C40   C44   1.394412 A    
C14   H6    1.082311 S    
O4    C8    1.332319 A    
C55   C59   1.408219 A    
C54   C58   1.408373 A    
C52   C56   1.409568 A    
O13   V1    1.974799 S    
C31   C43   1.409679 A    
O2    V4    1.986163 S    
C89   H33   1.083050 S    
O3    V1    1.984984 S    
C85   H29   1.082955 S    
C22   H1    1.076267 S    
C65   C69   1.398333 A    
C28   C36   1.439976 A    
C53   C65   1.406578 A    
C82   C86   1.409815 A    
C79   H27   1.082967 S    
C1    O15   1.325931 A    
C60   C64   1.407978 A    
C15   C31   1.411065 A    
C76   C80   1.401053 A    
N4    C52   1.373924 A    
C43   N7    1.437580 S    
C16   C32   1.411063 A    
O2    C6    1.331703 A    
C10   C22   1.405085 A    
C87   H31   1.083040 S    
C11   C19   1.400980 A    
C16   C20   1.394492 A    
C27   C31   1.423062 A    
O8    C4    1.329174 A    
C2    C83   1.490424 S    
C13   C29   1.411125 A    
C7    C10   1.479043 S    
C34   C37   1.409706 A    
O11   C7    1.332099 A    
C56   C68   1.406438 A    
O15   V3    1.974791 S    
C35   C36   1.431622 A    
O12   C8    1.332098 A    
C13   C17   1.394501 A    
C40   H12   1.075035 S    
C74   H22   1.083038 S    
N2    C93   1.447324 S    
C68   H16   1.083176 S    
N6    O32   1.301421 A    
C22   C26   1.427383 A    
C50   C54   1.409406 A    
O5    V1    1.993299 S    
C18   C97   1.445862 S    
C39   C43   1.394410 A    
O7    V3    1.993161 S    
C38   C42   1.394464 A    
C65   H13   1.083321 S    
C26   C34   1.440173 A    
C47   O23   1.349402 S    
C46   O22   1.349434 S    
C88   H32   1.082995 S    
C78   H26   1.082943 S    
C37   H9    1.075061 S    
N1    C49   1.373650 A    
O18   V4    1.769247 S    
C15   C19   1.394494 A    
C76   C96   1.405142 A    
C61   C70   1.406565 A    
C32   C44   1.409675 A    
C51   C55   1.409560 A    
C68   C72   1.398266 A    
C41   N5    1.437508 S    
C63   C72   1.406547 A    
C48   N4    1.374170 A    
C4    C81   1.491829 S    
O1    V3    1.986164 S    
C83   C87   1.409058 A    
C98   N10   1.157453 T    
O5    C1    1.328987 A    
C58   C62   1.408438 A    
C45   O21   1.349436 S    
C74   C94   1.404538 A    
C53   C57   1.408376 A    
N8    O36   1.301331 A    
C59   C60   1.417967 A    
C14   C30   1.411126 A    
C21   C25   1.427382 A    
C76   H24   1.083056 S    
N4    C95   1.448364 S    
C57   C61   1.408438 A    
C66   H14   1.083323 S    
C46   C62   1.409496 A    
O9    C5    1.332713 A    
O11   V3    1.998806 S    
C47   N3    1.374217 A    
C55   C67   1.406462 A    
C70   H18   1.083336 S    
C73   H21   1.083103 S    
C69   H17   1.083336 S    
O6    V2    1.993299 S    
C49   O25   1.349456 S    
C15   H7    1.082347 S    
N3    C96   1.448406 S    
N2    C50   1.373653 A    
O14   V2    1.974804 S    
C48   C64   1.409344 A    
C91   H35   1.083019 S    
C48   O24   1.349359 S    
C12   C20   1.400982 A    
C27   C35   1.439977 A    
C24   H3    1.076273 S    
C89   C93   1.404555 A    
C74   C78   1.401188 A    
C92   H36   1.083089 S    
C29   C41   1.409770 A    
N6    O31   1.301400 A    
C90   C94   1.403617 A    
O16   V4    1.974788 S    
O9    V1    1.996751 S    
C77   H25   1.082855 S    
C54   C66   1.406577 A    
C86   C90   1.399642 A    
C21   H2    1.076269 S    
C67   C71   1.398268 A    
C38   H10   1.075060 S    
C84   C88   1.409235 A    
C3    O13   1.326175 A    
C19   C100  1.445534 S    
O6    C2    1.328974 A    
C64   C71   1.406527 A    
C23   C27   1.427109 A    
C3    C82   1.491827 S    
C77   C81   1.409831 A    
C39   H11   1.075036 S    
O12   V4    1.998808 S    
C20   C99   1.445532 S    
C1    C84   1.490466 S    
C13   H5    1.082315 S    
C8    C9    1.479042 S    
C73   C93   1.403634 A    
C9    C17   1.401116 A    
O10   C6    1.332711 A    
O20   V2    1.770503 S    
C52   O28   1.349284 S    
C100  N12   1.157315 T    
N7    O33   1.301421 A    
C46   N2    1.373593 A    
C71   H19   1.083193 S    
C33   C34   1.431761 A    
O8    V4    1.993167 S    
C2    O16   1.325917 A    
C78   C82   1.409689 A    
C25   C29   1.423113 A    
C56   C60   1.408211 A    
C44   N8    1.437581 S    
C91   C95   1.405065 A    
C12   C24   1.404835 A    
C51   O27   1.349339 S    
C92   C96   1.404360 A    
C37   C41   1.394461 A    
C49   C53   1.409402 A    
C45   N1    1.373589 A    
C23   H4    1.076271 S    
C72   H20   1.083210 S    
C75   C79   1.399696 A    
C90   H34   1.083093 S    
C75   C95   1.404286 A    
C16   H8    1.082346 S    
C24   C28   1.427110 A    
C73   C77   1.399634 A    
C66   C70   1.398333 A    
C86   H30   1.082841 S    
C4    O14   1.326174 A    
C81   C85   1.409701 A    
C17   C98   1.445867 S    
C62   C69   1.406565 A    
C80   H28   1.083069 S    
C30   C42   1.409769 A    
C85   C89   1.401180 A    
O4    V2    1.984987 S    
C28   C32   1.423064 A    
C87   C91   1.401063 A    
N8    O35   1.301422 A    
N5    O30   1.301420 A    
