data_mof_unit_43710.cif
_audit_creation_date              2012-12-10T16:39:32-0500
_audit_creation_method            fapswitch 2.2
_symmetry_space_group_name_H-M    P1
_symmetry_Int_Tables_number       1
_space_group_crystal_system       triclinic
_cell_length_a                    16.855374
_cell_length_b                    16.855605
_cell_length_c                    16.855337
_cell_angle_alpha                 65.821606
_cell_angle_beta                  65.818859
_cell_angle_gamma                 65.820709
_cell_volume                      3813.35776118

loop_
_atom_site_label
_atom_site_type_symbol
_atom_type_description
_atom_site_fract_x
_atom_site_fract_y
_atom_site_fract_z
_atom_type_partial_charge
C1    C     C_R   0.312556 0.006311 0.431648 0.042260
C2    C     C_R   0.687447 0.993685 0.568349 0.042261
C3    C     C_R   0.006285 0.431653 0.312567 0.042256
C4    C     C_R   0.993674 0.568354 0.687451 0.042258
C5    C     C_R   0.431650 0.312553 0.006313 0.042255
C6    C     C_R   0.568345 0.687436 0.993704 0.042267
C7    C     C_R   0.543816 0.051827 0.672216 0.052139
C8    C     C_R   0.456186 0.948168 0.327781 0.052129
C9    C     C_R   0.672221 0.543812 0.051827 0.052107
C10   C     C_R   0.327781 0.456179 0.948179 0.052118
C11   C     C_R   0.051806 0.672223 0.543821 0.052123
C12   C     C_R   0.948145 0.327788 0.456195 0.052132
C13   C     C_R   0.454049 0.991427 0.451546 -0.018512
C14   C     C_R   0.545953 0.008572 0.548449 -0.018512
C15   C     C_R   0.991389 0.451560 0.454060 -0.018515
C16   C     C_R   0.008541 0.548463 0.545959 -0.018516
C17   C     C_R   0.451546 0.454042 0.991438 -0.018513
C18   C     C_R   0.548451 0.545943 0.008583 -0.018511
C19   C     C_R   0.961715 0.179370 0.438212 0.897642
C20   C     C_R   0.038275 0.820630 0.561793 0.897635
C21   C     C_R   0.179370 0.438210 0.961719 0.897644
C22   C     C_R   0.820630 0.561790 0.038282 0.897617
C23   C     C_R   0.438210 0.961717 0.179369 0.897653
C24   C     C_R   0.561790 0.038281 0.820630 0.897653
C25   C     C_R   0.570204 0.824733 0.017464 0.906798
C26   C     C_R   0.429795 0.175265 0.982539 0.906809
C27   C     C_R   0.017450 0.570208 0.824739 0.906803
C28   C     C_R   0.982537 0.429795 0.175266 0.906790
C29   C     C_R   0.824736 0.017455 0.570207 0.906810
C30   C     C_R   0.175265 0.982542 0.429793 0.906826
C31   C     C_R   0.407831 0.981369 0.404159 0.070380
C32   C     C_R   0.592171 0.018626 0.595838 0.070374
C33   C     C_R   0.981338 0.404168 0.407842 0.070386
C34   C     C_R   0.018605 0.595848 0.592176 0.070381
C35   C     C_R   0.404159 0.407825 0.981379 0.070368
C36   C     C_R   0.595839 0.592163 0.018638 0.070374
C37   C     C_R   0.268958 0.981484 0.392198 -0.109869
C38   C     C_R   0.731045 0.018509 0.607802 -0.109862
C39   C     C_R   0.981471 0.392199 0.268963 -0.109882
C40   C     C_R   0.018498 0.607808 0.731049 -0.109874
C41   C     C_R   0.392197 0.268955 0.981487 -0.109875
C42   C     C_R   0.607798 0.731038 0.018525 -0.109875
C43   C     C_R   0.593880 0.052790 0.722750 -0.123007
C44   C     C_R   0.406121 0.947203 0.277249 -0.123004
C45   C     C_R   0.722751 0.593879 0.052793 -0.122985
C46   C     C_R   0.277248 0.406116 0.947213 -0.123002
C47   C     C_R   0.052773 0.722754 0.593886 -0.122999
C48   C     C_R   0.947195 0.277250 0.406125 -0.123007
C49   C     C_R   0.448441 0.083597 0.694727 -0.210534
C50   C     C_R   0.551564 0.916406 0.305262 -0.210572
C51   C     C_R   0.083568 0.694735 0.448445 -0.210566
C52   C     C_R   0.916385 0.305273 0.551571 -0.210557
C53   C     C_R   0.694748 0.448435 0.083572 -0.210593
C54   C     C_R   0.305264 0.551554 0.916419 -0.210514
C55   C     C_R   0.264526 0.054871 0.496720 -0.219562
C56   C     C_R   0.735478 0.945134 0.503269 -0.219560
C57   C     C_R   0.496731 0.264524 0.054857 -0.219559
C58   C     C_R   0.503268 0.735462 0.945156 -0.219567
C59   C     C_R   0.054837 0.496727 0.264538 -0.219554
C60   C     C_R   0.945138 0.503265 0.735486 -0.219549
C61   C     C_R   0.316177 0.952352 0.316152 -0.296153
C62   C     C_R   0.683825 0.047639 0.683849 -0.296168
C63   C     C_R   0.952350 0.316149 0.316179 -0.296126
C64   C     C_R   0.047618 0.683858 0.683831 -0.296136
C65   C     C_R   0.316147 0.316171 0.952366 -0.296136
C66   C     C_R   0.683848 0.683822 0.047647 -0.296140
C67   C     C_R   0.691296 0.935068 0.454417 0.036716
C68   C     C_R   0.308709 0.064945 0.545565 0.036726
C69   C     C_R   0.935081 0.454404 0.691309 0.036725
C70   C     C_R   0.064895 0.545586 0.308717 0.036722
C71   C     C_R   0.454417 0.691278 0.935093 0.036713
C72   C     C_R   0.545594 0.308702 0.064912 0.036708
C73   C     C_R   0.599144 0.920640 0.355119 0.045801
C74   C     C_R   0.400861 0.079371 0.644864 0.045848
C75   C     C_R   0.355115 0.599131 0.920668 0.045809
C76   C     C_R   0.644899 0.400852 0.079328 0.045705
C77   C     C_R   0.920624 0.355127 0.599156 0.045861
C78   C     C_R   0.079327 0.644882 0.400863 0.045827
C79   C     C_R   0.740856 0.893145 0.383669 -0.049073
C80   C     C_R   0.259153 0.106892 0.616292 -0.049050
C81   C     C_R   0.893228 0.383605 0.740882 -0.049122
C82   C     C_R   0.106807 0.616339 0.259152 -0.049081
C83   C     C_R   0.383679 0.740831 0.893166 -0.049060
C84   C     C_R   0.616362 0.259140 0.106804 -0.049094
C85   C     C_R   0.695001 0.886161 0.334107 -0.035916
C86   C     C_R   0.305007 0.113872 0.665858 -0.035901
C87   C     C_R   0.334109 0.694979 0.886192 -0.035905
C88   C     C_R   0.665927 0.304995 0.113784 -0.035944
C89   C     C_R   0.886204 0.334074 0.695021 -0.035891
C90   C     C_R   0.113793 0.665900 0.305005 -0.035913
C91   C     C_R   0.549748 0.960512 0.427368 0.010806
C92   C     C_R   0.450256 0.039492 0.572622 0.010823
C93   C     C_R   0.960480 0.427383 0.549759 0.010825
C94   C     C_R   0.039454 0.572638 0.450261 0.010816
C95   C     C_R   0.427364 0.549736 0.960535 0.010794
C96   C     C_R   0.572638 0.450247 0.039479 0.010779
C97   C     C_R   0.595707 0.968587 0.476251 0.016696
C98   C     C_R   0.404296 0.031417 0.523740 0.016699
C99   C     C_R   0.476248 0.595694 0.968610 0.016696
C100  C     C_R   0.523753 0.404289 0.031408 0.016692
C101  C     C_R   0.968561 0.476262 0.595717 0.016702
C102  C     C_R   0.031376 0.523756 0.404304 0.016698
H1    H     H_    0.280973 0.940399 0.282614 0.201786
H2    H     H_    0.719029 0.059590 0.717389 0.201787
H3    H     H_    0.940410 0.282605 0.280970 0.201791
H4    H     H_    0.059566 0.717399 0.719037 0.201795
H5    H     H_    0.282607 0.280965 0.940418 0.201793
H6    H     H_    0.717388 0.719029 0.059594 0.201789
H7    H     H_    0.411463 0.115385 0.748823 0.172447
H8    H     H_    0.588539 0.884627 0.251160 0.172468
H9    H     H_    0.115356 0.748827 0.411467 0.172467
H10   H     H_    0.884612 0.251169 0.588550 0.172452
H11   H     H_    0.748849 0.411453 0.115356 0.172486
H12   H     H_    0.251161 0.588535 0.884623 0.172449
H13   H     H_    0.192529 0.087607 0.507984 0.181720
H14   H     H_    0.807476 0.912397 0.492002 0.181718
H15   H     H_    0.507991 0.192529 0.087595 0.181724
H16   H     H_    0.492002 0.807457 0.912418 0.181731
H17   H     H_    0.087587 0.507982 0.192544 0.181717
H18   H     H_    0.912398 0.492001 0.807483 0.181704
O1    O     O_R   0.982940 0.138950 0.510160 -0.636226
O2    O     O_R   0.017060 0.861050 0.489840 -0.636235
O3    O     O_R   0.138950 0.510160 0.982940 -0.636230
O4    O     O_R   0.861050 0.489840 0.017060 -0.636243
O5    O     O_R   0.510160 0.982940 0.138950 -0.636232
O6    O     O_R   0.489840 0.017060 0.861050 -0.636222
O7    O     O_R   0.489840 0.861050 0.017060 -0.633050
O8    O     O_R   0.510160 0.138950 0.982940 -0.633046
O9    O     O_R   0.017060 0.489840 0.861050 -0.633019
O10   O     O_R   0.982940 0.510160 0.138950 -0.633031
O11   O     O_R   0.861050 0.017060 0.489840 -0.633044
O12   O     O_R   0.138950 0.982940 0.510160 -0.633035
O13   O     O_R   0.867700 0.025880 0.612340 -0.630148
O14   O     O_R   0.132300 0.974120 0.387660 -0.630139
O15   O     O_R   0.025880 0.612340 0.867700 -0.630150
O16   O     O_R   0.974120 0.387660 0.132300 -0.630135
O17   O     O_R   0.612340 0.867700 0.025880 -0.630140
O18   O     O_R   0.387660 0.132300 0.974120 -0.630150
O19   O     O_R   0.387660 0.974120 0.132300 -0.617030
O20   O     O_R   0.612340 0.025880 0.867700 -0.617025
O21   O     O_R   0.132300 0.387660 0.974120 -0.617019
O22   O     O_R   0.867700 0.612340 0.025880 -0.617029
O23   O     O_R   0.974120 0.132300 0.387660 -0.617027
O24   O     O_R   0.025880 0.867700 0.612340 -0.617029
Zn1   Zn    Zn3+2 0.004880 0.004880 0.583590 0.987293
Zn2   Zn    Zn3+2 0.995120 0.995120 0.416410 0.987304
Zn3   Zn    Zn3+2 0.004880 0.583590 0.004880 0.987311
Zn4   Zn    Zn3+2 0.995120 0.416410 0.995120 0.987361
Zn5   Zn    Zn3+2 0.583590 0.004880 0.004880 0.987306
Zn6   Zn    Zn3+2 0.416410 0.995120 0.995120 0.987279
C103  C     C_1   0.252755 0.156399 0.738622 0.175590
N1    N     N_1   0.211081 0.190292 0.796557 -0.196197
C104  C     C_1   0.747251 0.843666 0.261318 0.175636
N2    N     N_1   0.788923 0.809798 0.203362 -0.196202
C105  C     C_1   0.156246 0.738721 0.252740 0.175648
N3    N     N_1   0.190074 0.796706 0.211058 -0.196207
C106  C     C_1   0.843783 0.261232 0.747286 0.175621
N4    N     N_1   0.809974 0.203232 0.788969 -0.196211
C107  C     C_1   0.738734 0.252746 0.156250 0.175708
N5    N     N_1   0.796703 0.211077 0.190097 -0.196192
C108  C     C_1   0.261330 0.747226 0.843690 0.175637
N6    N     N_1   0.203386 0.788894 0.809810 -0.196209
C109  C     C_1   0.160605 0.140614 0.640587 0.171206
N7    N     N_1   0.082097 0.167232 0.660122 -0.194135
C110  C     C_1   0.839408 0.859500 0.359317 0.171240
N8    N     N_1   0.917917 0.832959 0.339729 -0.194137
C111  C     C_1   0.640748 0.160587 0.140400 0.171265
N9    N     N_1   0.660366 0.082077 0.166893 -0.194127
C112  C     C_1   0.359379 0.839375 0.859447 0.171206
N10   N     N_1   0.339841 0.917879 0.832833 -0.194129
C113  C     C_1   0.140421 0.640714 0.160594 0.171241
N11   N     N_1   0.166932 0.660323 0.082077 -0.194122
C114  C     C_1   0.859843 0.359063 0.839463 0.171311
N12   N     N_1   0.833553 0.339296 0.917999 -0.194104

loop_
_geom_bond_atom_site_label_1
_geom_bond_atom_site_label_2
_ccdc_geom_bond_type
C68   C80   A    
O23   Zn2   S    
C29   O13   A    
C113  N11   T    
C9    C45   A    
C110  N8    T    
C18   C96   A    
C112  N10   T    
C20   O24   A    
C83   C87   A    
C109  N7    T    
C50   H8    S    
C12   C48   A    
C108  N6    T    
C92   C98   A    
C114  N12   T    
O18   Zn6   S    
O4    Zn4   S    
C77   C89   A    
C106  N4    T    
C16   C101  A    
O12   Zn1   S    
C49   H7    S    
C61   H1    S    
C15   C33   A    
O7    Zn6   S    
C95   C99   A    
C58   C71   A    
C3    C33   A    
C10   C54   A    
C5    C35   A    
C1    C31   A    
O11   Zn2   S    
C2    C32   A    
C88   C107  S    
C74   C92   A    
C13   C98   A    
C58   H16   S    
C6    C58   A    
O9    Zn4   S    
C80   C86   A    
O21   Zn4   S    
C16   C34   A    
C11   C47   A    
C4    C40   A    
C30   O14   A    
C29   C38   S    
C10   C46   A    
C9    C36   A    
C59   H17   S    
C103  N1    T    
C10   C35   A    
C17   C95   A    
C7    C43   A    
C63   H3    S    
C76   C88   A    
C20   O2    A    
C1    C37   A    
C23   O5    A    
C81   C89   A    
C3    C39   A    
C15   C102  A    
C13   C91   A    
C24   O6    A    
O17   Zn5   S    
C78   C90   A    
C12   C52   A    
C53   H11   S    
C55   C68   A    
C105  N3    T    
C71   C83   A    
O14   Zn2   S    
C4    C34   A    
C1    C55   A    
C72   C84   A    
C75   C95   A    
C8    C44   A    
C67   C79   A    
C73   C91   A    
C46   C65   A    
C50   C73   A    
C93   C101  A    
C111  N9    T    
C19   C48   S    
C48   C63   A    
C26   O8    A    
C28   C39   S    
C71   C99   A    
C62   H2    S    
C79   C110  S    
C23   C44   S    
C30   C37   S    
C81   C114  S    
C21   O3    A    
C25   O17   A    
C80   C109  S    
C15   C93   A    
C2    C38   A    
C37   C61   A    
C107  N5    T    
C27   C40   S    
C66   H6    S    
C73   C85   A    
C4    C60   A    
C56   H14   S    
C89   C106  S    
C85   C104  S    
C91   C97   A    
C64   H4    S    
C7    C49   A    
O16   Zn4   S    
O5    Zn5   S    
C51   H9    S    
C69   C81   A    
C75   C87   A    
C87   C108  S    
C14   C92   A    
O15   Zn3   S    
C14   C32   A    
C27   O9    A    
O1    Zn1   S    
C53   C76   A    
O13   Zn1   S    
C18   C99   A    
C52   C77   A    
C24   O20   A    
C8    C50   A    
C47   C64   A    
C14   C97   A    
C57   H15   S    
C21   C46   S    
C72   C100  A    
C23   O19   A    
C5    C41   A    
C82   C113  S    
C19   O1    A    
C19   O23   A    
C7    C32   A    
O10   Zn3   S    
C28   O16   A    
C8    C31   A    
O22   Zn3   S    
C13   C31   A    
C11   C34   A    
C84   C88   A    
O3    Zn3   S    
O24   Zn1   S    
C26   O18   A    
C40   C64   A    
C25   C42   S    
C54   H12   S    
C41   C65   A    
C22   O22   A    
C70   C102  A    
C22   O4    A    
C69   C101  A    
C44   C61   A    
C74   C86   A    
C56   C67   A    
C39   C63   A    
C96   C100  A    
O19   Zn6   S    
C16   C94   A    
C82   C90   A    
C5    C57   A    
C27   O15   A    
C90   C105  S    
C51   C78   A    
C21   O21   A    
C84   C111  S    
C2    C56   A    
C86   C103  S    
C76   C96   A    
O6    Zn6   S    
C29   O11   A    
C55   H13   S    
C60   C69   A    
C78   C94   A    
C30   O12   A    
C83   C112  S    
C77   C93   A    
C79   C85   A    
C6    C36   A    
C60   H18   S    
C28   O10   A    
O2    Zn2   S    
C57   C72   A    
C25   O7    A    
C70   C82   A    
C17   C100  A    
C68   C98   A    
C20   C47   S    
C11   C51   A    
C67   C97   A    
C59   C70   A    
C54   C75   A    
O8    Zn5   S    
C22   C45   S    
C9    C53   A    
C94   C102  A    
C6    C42   A    
C45   C66   A    
C42   C66   A    
C24   C43   S    
C52   H10   S    
C49   C74   A    
C26   C41   S    
C17   C35   A    
C38   C62   A    
C12   C33   A    
C18   C36   A    
O20   Zn5   S    
C65   H5    S    
C43   C62   A    
C104  N2    T    
C3    C59   A    
