data_mof_unit_33358.cif
_audit_creation_date              2013-03-05T16:41:06-0500
_audit_creation_method            fapswitch 2.2
_symmetry_space_group_name_H-M    P1
_symmetry_Int_Tables_number       1
_space_group_crystal_system       triclinic
_cell_length_a                    18.565197
_cell_length_b                    18.64196
_cell_length_c                    19.112899
_cell_angle_alpha                 109.694591
_cell_angle_beta                  109.503463
_cell_angle_gamma                 108.521112
_cell_volume                      5134.80233911

loop_
_atom_site_label
_atom_site_type_symbol
_atom_site_description
_atom_site_fract_x
_atom_site_fract_y
_atom_site_fract_z
_atom_type_partial_charge
O1    O     O_R   0.408360 0.551710 0.460090 -0.639337
O2    O     O_R   0.408400 0.448280 0.356670 -0.586978
C1    C     C_R   0.381181 0.502650 0.380858 0.907775
O3    O     O_R   0.591600 0.643340 0.551710 -0.625387
O4    O     O_R   0.591630 0.539900 0.448290 -0.603950
C2    C     C_R   0.622451 0.620707 0.502558 0.887516
Zn1   Zn    Zn3+2 0.499980 0.569060 0.569060 1.006385
Zn2   Zn    Zn3+2 0.500020 0.430940 0.430940 1.104044
O5    O     O_R   0.591600 0.551720 0.643330 -0.612143
O6    O     O_R   0.591640 0.448290 0.539910 -0.605470
O7    O     O_R   0.408370 0.460100 0.551710 -0.642713
O8    O     O_R   0.408400 0.356660 0.448290 -0.597885
C3    C     C_R   0.616271 0.496012 0.619132 0.865413
C4    C     C_R   0.376971 0.380485 0.497803 0.871679
H1    H     H_    0.736516 0.923405 0.863678 0.196645
C5    C     C_R   0.667860 0.860232 0.727023 -0.207896
H2    H     H_    0.612162 0.868875 0.724048 0.168132
C6    C     C_R   0.670109 0.820867 0.652001 -0.074632
H3    H     H_    0.616709 0.800907 0.591491 0.173727
C7    C     C_R   0.740914 0.807239 0.654777 0.065587
C8    C     C_R   0.812616 0.839698 0.734640 -0.236190
H4    H     H_    0.869256 0.833083 0.737365 0.207354
C9    C     C_R   0.812451 0.882846 0.810778 0.334634
C10   C     C_R   0.738468 0.890850 0.806085 -0.164601
C11   C     C_R   0.811217 0.831314 0.571230 -0.223356
H5    H     H_    0.857835 0.895693 0.626433 0.136430
C12   C     C_R   0.812319 0.810323 0.494659 0.003926
C13   C     C_R   0.748772 0.729081 0.420223 0.135597
C14   C     C_R   0.694682 0.666272 0.428964 -0.083737
H6    H     H_    0.652390 0.600909 0.374537 0.199942
C15   C     C_R   0.689496 0.688136 0.503905 -0.096622
C16   C     C_R   0.746727 0.773273 0.575708 0.056010
C17   C     C_R   0.665158 0.695719 0.267277 0.256827
C18   C     C_R   0.663694 0.684295 0.189626 -0.208770
C19   C     C_R   0.732913 0.679171 0.177741 0.291526
C20   C     C_R   0.796997 0.674747 0.237503 -0.294338
H7    H     H_    0.843907 0.660150 0.222970 0.189950
C21   C     C_R   0.799837 0.686843 0.314825 0.241293
C22   C     C_R   0.739020 0.706110 0.333817 -0.139525
H8    H     H_    0.491671 0.890027 0.617456 0.149088
C23   C     C_R   0.388490 0.757629 0.551327 -0.124391
H9    H     H_    0.370988 0.767192 0.601098 0.168799
C24   C     C_R   0.341965 0.676499 0.477071 -0.056832
H10   H     H_    0.287538 0.624018 0.468988 0.132142
C25   C     C_R   0.364108 0.663624 0.412147 0.121301
C26   C     C_R   0.432359 0.733352 0.421629 -0.013745
H11   H     H_    0.448480 0.725082 0.370974 0.231141
C27   C     C_R   0.477901 0.814890 0.495468 -0.138826
H12   H     H_    0.529673 0.869023 0.502348 0.171592
C28   C     C_R   0.456286 0.826892 0.560405 -0.168487
C29   C     C_R   0.244458 0.578371 0.262407 0.322552
C30   C     C_R   0.185356 0.499100 0.185355 -0.182506
C31   C     C_R   0.186536 0.420737 0.175281 0.010366
C32   C     C_R   0.255544 0.426658 0.239345 -0.062289
H13   H     H_    0.260965 0.368359 0.230437 0.184943
C33   C     C_R   0.314412 0.504614 0.316388 -0.114125
C34   C     C_R   0.307507 0.580830 0.329715 -0.088054
C35   C     C_R   0.082367 0.259576 0.111947 0.296292
C36   C     C_R   0.027840 0.175086 0.041156 -0.112447
H14   H     H_    0.000510 0.120097 0.049643 0.229666
C37   C     C_R   0.007407 0.160949 0.959178 -0.126759
H15   H     H_    0.965552 0.095670 0.904878 0.184281
C38   C     C_R   0.040527 0.231041 0.947077 -0.145005
H16   H     H_    0.025130 0.218703 0.883269 0.149230
C39   C     C_R   0.094273 0.315732 0.016857 -0.116719
H17   H     H_    0.118864 0.369162 0.006172 0.108363
C40   C     C_R   0.118117 0.331605 0.100439 0.036629
H18   H     H_    0.223174 0.625593 0.575089 0.197401
C41   C     C_R   0.294363 0.566853 0.625789 0.354194
C42   C     C_R   0.298304 0.489263 0.608249 -0.126305
H19   H     H_    0.348725 0.488641 0.656236 0.186539
C43   C     C_R   0.238758 0.412462 0.529032 -0.084033
C44   C     C_R   0.168103 0.411961 0.468680 0.302119
C45   C     C_R   0.164880 0.490128 0.486757 -0.203028
H20   H     H_    0.113129 0.491960 0.440903 0.227792
C46   C     C_R   0.227421 0.566571 0.563838 -0.259441
C47   C     C_R   0.183673 0.265858 0.517900 -0.038831
C48   C     C_R   0.187237 0.188059 0.503268 -0.109201
C49   C     C_R   0.256053 0.177588 0.494290 0.042572
C50   C     C_R   0.315796 0.241481 0.491024 -0.222664
H21   H     H_    0.367634 0.232668 0.481800 0.178858
C51   C     C_R   0.310375 0.316616 0.500156 -0.078545
C52   C     C_R   0.245575 0.331406 0.516505 0.013152
C53   C     C_R   0.338720 0.102781 0.542306 0.004472
C54   C     C_R   0.355123 0.032064 0.519664 -0.154560
H22   H     H_    0.411123 0.034104 0.564447 0.173079
C55   C     C_R   0.297751 0.956852 0.440237 -0.110345
H23   H     H_    0.309685 0.901856 0.423926 0.194284
C56   C     C_R   0.222678 0.950886 0.383531 -0.130679
H24   H     H_    0.176214 0.891024 0.324358 0.187397
C57   C     C_R   0.206991 0.021554 0.403371 -0.134255
H25   H     H_    0.150372 0.016875 0.356581 0.149700
C58   C     C_R   0.265260 0.098599 0.482071 0.053287
C59   C     C_R   0.535291 0.558458 0.847668 -0.064316
H26   H     H_    0.547497 0.612783 0.903099 0.208805
C60   C     C_R   0.604407 0.561660 0.832376 -0.149730
H27   H     H_    0.668568 0.617762 0.876913 0.164312
C61   C     C_R   0.591694 0.491511 0.762285 0.125927
C62   C     C_R   0.508031 0.419341 0.705947 -0.100597
H28   H     H_    0.497049 0.364488 0.651765 0.151055
C63   C     C_R   0.438798 0.416305 0.721224 -0.264290
H29   H     H_    0.374792 0.360061 0.677166 0.209267
C64   C     C_R   0.451969 0.484992 0.793060 0.337672
C65   C     C_R   0.732992 0.489249 0.817110 -0.116488
C66   C     C_R   0.810984 0.499314 0.814118 -0.170957
C67   C     C_R   0.820324 0.504149 0.745157 0.079235
C68   C     C_R   0.752671 0.497617 0.679990 -0.113817
H30   H     H_    0.759027 0.499171 0.625955 0.174361
C69   C     C_R   0.678596 0.492314 0.684524 -0.092468
C70   C     C_R   0.668280 0.490440 0.753815 -0.051146
C71   C     C_R   0.964769 0.579171 0.752458 0.352666
C72   C     C_R   0.025627 0.571926 0.726441 -0.094395
H31   H     H_    0.080774 0.629723 0.742335 0.221638
C73   C     C_R   0.013255 0.490208 0.675688 -0.058545
H32   H     H_    0.058866 0.486084 0.653055 0.223548
C74   C     C_R   0.940841 0.414517 0.651822 0.031057
C75   C     C_R   0.881505 0.421077 0.679693 -0.275260
H33   H     H_    0.824304 0.362774 0.659676 0.189977
C76   C     C_R   0.892947 0.502582 0.730279 -0.031019
O9    O     O_R   0.051730 0.908360 0.460060 -0.625667
O10   O     O_R   0.948280 0.908380 0.356650 -0.603846
C77   C     C_R   0.002115 0.879823 0.381097 0.865744
O11   O     O_R   0.960110 0.908350 0.551690 -0.589248
O12   O     O_R   0.856660 0.908370 0.448270 -0.591094
C78   C     C_R   0.879686 0.876221 0.495705 0.866967
Zn3   Zn    Zn3+2 0.069070 0.999960 0.569030 1.036652
Zn4   Zn    Zn3+2 0.930930 0.999990 0.430930 1.113727
O13   O     O_R   0.051720 0.091580 0.643310 -0.627736
O14   O     O_R   0.948270 0.091600 0.539890 -0.590563
O15   O     O_R   0.143340 0.091590 0.551680 -0.597725
O16   O     O_R   0.039890 0.091610 0.448270 -0.566104
C79   C     C_R   0.996330 0.117817 0.618907 0.842910
C80   C     C_R   0.120340 0.119416 0.499868 0.851364
O17   O     O_R   0.051730 0.460050 0.908360 -0.623104
O18   O     O_R   0.948290 0.356630 0.908390 -0.621630
C81   C     C_R   0.003653 0.380459 0.882864 0.825166
O19   O     O_R   0.143340 0.551690 0.091580 -0.579620
O20   O     O_R   0.039900 0.448270 0.091610 -0.610317
C82   C     C_R   0.119882 0.499137 0.119104 0.861992
Zn5   Zn    Zn3+2 0.069070 0.569030 0.999960 1.108252
Zn6   Zn    Zn3+2 0.930930 0.430930 0.000000 1.058221
O21   O     O_R   0.051710 0.643320 0.091560 -0.559762
O22   O     O_R   0.948270 0.539900 0.091590 -0.599635
O23   O     O_R   0.960100 0.551680 0.908340 -0.608046
O24   O     O_R   0.856660 0.448270 0.908370 -0.598543
C83   C     C_R   0.998448 0.620325 0.117909 0.918227
C84   C     C_R   0.879314 0.499466 0.879486 0.882641
H34   H     H_    0.186872 0.760204 0.629883 0.202931
C85   C     C_R   0.191948 0.832313 0.563423 -0.202612
H35   H     H_    0.250630 0.890045 0.617903 0.165329
C86   C     C_R   0.152665 0.832195 0.487065 -0.065105
H36   H     H_    0.182417 0.890080 0.483985 0.156881
C87   C     C_R   0.075520 0.758605 0.416024 0.108762
C88   C     C_R   0.043398 0.682517 0.421543 -0.132534
H37   H     H_    0.988384 0.623265 0.365517 0.204676
C89   C     C_R   0.081010 0.682476 0.498766 0.361408
C90   C     C_R   0.155779 0.758370 0.569795 -0.191512
C91   C     C_R   0.025004 0.688710 0.262142 -0.184985
H38   H     H_    0.039201 0.638418 0.268588 0.176719
C92   C     C_R   0.001990 0.688205 0.184949 -0.037777
C93   C     C_R   0.993277 0.757350 0.176501 0.021788
C94   C     C_R   0.992541 0.818583 0.241861 -0.231436
H39   H     H_    0.979216 0.868517 0.233284 0.197951
C95   C     C_R   0.010823 0.817241 0.318677 -0.134372
C96   C     C_R   0.035972 0.755999 0.332274 0.015927
C97   C     C_R   0.048776 0.820351 0.094276 -0.020918
C98   C     C_R   0.029604 0.831858 0.022559 -0.084944
H40   H     H_    0.081188 0.874401 0.017987 0.204514
C99   C     C_R   0.944215 0.786748 0.954996 0.041017
H41   H     H_    0.930188 0.795360 0.899850 0.225020
C100  C     C_R   0.876977 0.729739 0.957869 -0.135649
H42   H     H_    0.811139 0.694430 0.904775 0.148970
C101  C     C_R   0.894573 0.719318 0.029556 -0.105365
H43   H     H_    0.841622 0.676957 0.032040 0.234235
C102  C     C_R   0.979740 0.764543 0.098598 0.006748
C103  C     C_R   0.272108 0.545987 0.985543 -0.245914
H44   H     H_    0.292414 0.612918 0.000358 0.229781
C104  C     C_R   0.204824 0.478858 0.903688 0.395874
C105  C     C_R   0.171558 0.392326 0.887560 -0.080956
C106  C     C_R   0.220716 0.373191 0.944857 -0.358097
H45   H     H_    0.200329 0.305861 0.928788 0.217649
C107  C     C_R   0.290820 0.440212 0.025960 0.273108
C108  C     C_R   0.310695 0.527625 0.049261 0.234665
C109  C     C_R   0.076440 0.254166 0.750509 -0.096423
H46   H     H_    0.135862 0.256057 0.751558 0.189110
C110  C     C_R   0.994571 0.184782 0.683073 -0.064469
C111  C     C_R   0.916345 0.183285 0.679967 0.069773
C112  C     C_R   0.924312 0.247174 0.750158 -0.268987
H47   H     H_    0.866121 0.244346 0.752995 0.169033
C113  C     C_R   0.005055 0.316387 0.815977 -0.101465
C114  C     C_R   0.083014 0.322356 0.815752 0.085589
C115  C     C_R   0.765174 0.151713 0.586623 -0.219399
H48   H     H_    0.786904 0.220502 0.619876 0.178243
C116  C     C_R   0.677061 0.095105 0.524184 0.323015
C117  C     C_R   0.649315 0.006211 0.479565 -0.272527
H49   H     H_    0.582694 0.961164 0.428136 0.216067
C118  C     C_R   0.708300 0.975018 0.498415 0.322183
C119  C     C_R   0.795050 0.031274 0.563574 -0.221210
H50   H     H_    0.838323 0.004909 0.579218 0.118198
C120  C     C_R   0.825299 0.120764 0.607401 0.022901
N1    N     N_R   0.734271 0.670775 0.101317 0.201031
O25   O     O_R   0.686114 0.595011 0.032280 -0.398691
O26   O     O_R   0.763908 0.740510 0.095413 -0.367701
N2    N     N_R   0.854601 0.664956 0.366620 0.189915
O27   O     O_R   0.837656 0.584182 0.336289 -0.342349
O28   O     O_R   0.908304 0.719541 0.447646 -0.406267
N3    N     N_R   0.237467 0.655644 0.273932 0.192237
O29   O     O_R   0.274100 0.703774 0.246926 -0.310406
O30   O     O_R   0.208277 0.685464 0.323861 -0.451174
N4    N     N_R   0.099467 0.271083 0.194685 0.201549
O31   O     O_R   0.106263 0.211656 0.213226 -0.311858
O32   O     O_R   0.101463 0.337411 0.249093 -0.357956
N5    N     N_R   0.358059 0.645473 0.706103 0.221069
O33   O     O_R   0.351691 0.716262 0.724088 -0.385109
O34   O     O_R   0.423355 0.647247 0.761831 -0.378412
N6    N     N_R   0.096847 0.333144 0.391904 0.253568
O35   O     O_R   0.105070 0.264605 0.359998 -0.286871
O36   O     O_R   0.021503 0.328669 0.354167 -0.289090
C121  C     C_2   0.114550 0.278912 0.533385 0.931719
O37   O     O_2   0.133790 0.332604 0.603956 -0.517493
O38   O     O_R   0.028870 0.233344 0.465554 -0.709929
H51   H     H_    0.988460 0.252622 0.480555 0.370821
C122  C     C_2   0.396102 0.177592 0.630289 0.874344
O39   O     O_2   0.474465 0.202187 0.666700 -0.576952
O40   O     O_R   0.359705 0.216904 0.673364 -0.792937
H52   H     H_    0.404425 0.263207 0.734973 0.368011
N7    N     N_R   0.381196 0.480141 0.810195 0.222456
O41   O     O_R   0.392129 0.545495 0.874178 -0.344360
O42   O     O_R   0.305640 0.409629 0.763012 -0.347610
C123  C     C_2   0.715566 0.473361 0.882886 0.989124
O43   O     O_2   0.770468 0.519148 0.958579 -0.621049
O44   O     O_R   0.635535 0.405354 0.857431 -0.750243
H53   H     H_    0.630857 0.401308 0.907468 0.368969
N8    N     N_R   0.973717 0.663588 0.796044 0.198567
O45   O     O_R   0.051050 0.730656 0.850603 -0.375535
O46   O     O_R   0.907278 0.676450 0.769116 -0.440522
C124  C     C_2   0.925008 0.328476 0.595241 0.902344
O47   O     O_2   0.983216 0.309500 0.612405 -0.581435
O48   O     O_R   0.843256 0.268542 0.522474 -0.765748
H54   H     H_    0.840496 0.211622 0.488581 0.354700
N9    N     N_R   0.888263 0.921401 0.892338 0.168277
O49   O     O_R   0.882567 0.943342 0.961748 -0.389767
O50   O     O_R   0.964570 0.939509 0.898405 -0.412124
N10   N     N_R   0.043035 0.606105 0.505063 0.204858
O51   O     O_R   0.071890 0.608888 0.578557 -0.414710
O52   O     O_R   0.977092 0.533994 0.438008 -0.322140
C125  C     C_2   0.141285 0.864371 0.160802 0.886296
O53   O     O_2   0.188883 0.940920 0.186462 -0.577036
O54   O     O_R   0.175525 0.817176 0.190512 -0.752346
H55   H     H_    0.240567 0.853192 0.232564 0.374587
N11   N     N_R   0.363359 0.596710 0.136900 0.273171
O55   O     O_R   0.382247 0.676443 0.154873 -0.289559
O56   O     O_R   0.374896 0.578719 0.198508 -0.339815
N12   N     N_R   0.170308 0.499033 0.838194 0.228536
O57   O     O_R   0.145164 0.445751 0.759729 -0.295143
O58   O     O_R   0.179947 0.576765 0.858342 -0.391017
N13   N     N_R   0.339707 0.418495 0.083511 0.246248
O59   O     O_R   0.424412 0.465088 0.128637 -0.264648
O60   O     O_R   0.301958 0.344809 0.080668 -0.385720
N14   N     N_R   0.616685 0.127948 0.505452 0.236092
O61   O     O_R   0.643050 0.211058 0.545487 -0.368007
O62   O     O_R   0.534393 0.074880 0.449242 -0.358169
N15   N     N_R   0.683437 0.888524 0.442383 0.204637
O63   O     O_R   0.694879 0.874817 0.376678 -0.342546
O64   O     O_R   0.629994 0.824184 0.443143 -0.430712
N16   N     N_R   0.591051 0.694258 0.276841 0.279518
O65   O     O_R   0.554009 0.736237 0.251706 -0.247691
O66   O     O_R   0.550119 0.638029 0.294301 -0.329975
C126  C     C_2   0.587624 0.671539 0.118068 1.081305
O67   O     O_2   0.514384 0.613778 0.090453 -0.550166
O68   O     O_R   0.599880 0.724850 0.081643 -0.724918
H56   H     H_    0.543031 0.709996 0.033702 0.368815

loop_
_geom_bond_atom_site_label_1
_geom_bond_atom_site_label_2
_geom_bond_distance
_ccdc_geom_bond_type
C103  C108  1.402749 A    
C100  H42   1.080507 S    
C38   C39   1.399405 A    
Zn1   O5    2.014717 S    
C63   H29   1.079663 S    
C61   C70   1.489220 S    
C42   C43   1.407150 A    
C50   H21   1.085565 S    
C67   C76   1.474766 S    
O22   C83   1.288464 A    
C68   C69   1.381124 A    
C99   H41   1.077880 S    
O21   C83   1.274308 A    
O48   H54   1.014001 S    
C49   C58   1.485536 S    
C55   H23   1.082782 S    
C71   N8    1.433874 S    
C75   C76   1.398651 A    
C72   C73   1.395469 A    
C104  C105  1.408330 A    
N2    O28   1.300044 A    
C85   H35   1.082461 S    
N15   O63   1.297608 A    
C98   C99   1.393555 A    
Zn2   O6    2.041212 S    
C47   C48   1.409234 A    
C33   C34   1.411949 A    
C39   H17   1.073623 S    
Zn1   O7    2.025611 S    
N9    O50   1.301689 A    
C100  C101  1.393778 A    
C25   C34   1.481139 S    
C97   C102  1.418941 A    
C113  C114  1.417487 A    
C45   C46   1.393160 A    
O4    Zn2   2.025607 S    
C97   C125  1.477475 S    
C112  C113  1.382903 A    
C95   C96   1.430562 A    
Zn4   O16   2.023569 S    
N6    O36   1.302081 A    
O10   Zn4   2.014077 S    
Zn6   O22   2.026350 S    
O17   Zn5   2.026565 S    
O4    C2    1.294390 A    
C93   C102  1.484655 S    
O7    C4    1.273882 A    
C29   N3    1.436820 S    
O11   C78   1.290787 A    
C83   C92   1.430185 S    
C67   C68   1.378288 A    
C47   C52   1.401739 A    
C64   N7    1.440013 S    
O68   H56   1.013792 S    
C66   C84   1.451630 S    
C30   C82   1.433276 S    
C77   C95   1.456373 S    
N10   O51   1.301372 A    
C41   C46   1.398429 A    
C71   C76   1.414669 A    
N9    O49   1.301473 A    
C23   H9    1.082198 S    
C63   C64   1.405852 A    
C37   C38   1.388224 A    
O5    C3    1.273615 A    
C107  C108  1.417412 A    
C65   C66   1.422987 A    
N12   O58   1.301258 A    
C89   N10   1.439765 S    
C32   H13   1.084641 S    
H1    C10   1.082428 S    
C87   C88   1.408607 A    
N7    O41   1.301517 A    
C106  C107  1.404346 A    
C5    H2    1.082217 S    
C39   C40   1.400543 A    
C60   C61   1.404449 A    
C115  C120  1.415684 A    
C20   H7    1.082034 S    
C3    C69   1.431354 S    
C9    C10   1.404916 A    
C44   N6    1.441488 S    
C42   H19   1.076272 S    
C29   C34   1.395667 A    
C9    N9    1.436898 S    
O18   C81   1.297151 A    
C23   C24   1.397316 A    
C88   C89   1.406758 A    
Zn6   O24   2.031036 S    
C53   C58   1.419512 A    
O14   C79   1.281213 A    
C11   C16   1.385399 A    
C35   N4    1.428423 S    
C116  C117  1.396634 A    
C86   H36   1.076500 S    
C36   H14   1.082199 S    
C5    C10   1.395780 A    
C21   N2    1.429652 S    
C8    H4    1.083421 S    
C91   C92   1.388014 A    
N1    O26   1.300520 A    
C97   C98   1.404468 A    
C37   H15   1.082269 S    
N8    O46   1.300375 A    
C119  C120  1.396050 A    
O23   C84   1.288188 A    
O13   C79   1.291222 A    
C72   H31   1.082721 S    
O24   C84   1.283622 A    
O9    C77   1.276120 A    
C73   H32   1.083325 S    
C94   C95   1.403133 A    
C125  O54   1.397005 S    
C44   C45   1.405777 A    
C17   C18   1.416027 A    
C8    C9    1.407215 A    
O19   Zn5   2.030905 S    
C26   C27   1.399255 A    
C36   C37   1.389114 A    
O10   C77   1.301726 A    
C45   H20   1.082179 S    
C54   C55   1.393494 A    
C29   C30   1.407332 A    
N11   O55   1.301750 A    
C41   N5    1.439873 S    
C53   C54   1.405870 A    
C122  O39   1.223178 D    
N14   O62   1.301711 A    
O20   C82   1.276233 A    
C79   C110  1.443688 S    
C57   H25   1.083398 S    
C126  O68   1.397333 S    
N14   O61   1.301759 A    
C48   C49   1.407839 A    
C19   N1    1.425406 S    
O11   Zn3   2.023479 S    
O17   C81   1.271411 A    
C117  H49   1.083115 S    
C13   C22   1.489278 S    
O3    Zn1   2.027409 S    
C11   H5    1.086045 S    
C101  H43   1.074918 S    
C50   C51   1.392460 A    
C74   C124  1.465514 S    
O20   Zn6   2.025043 S    
C123  O43   1.220989 D    
N3    O29   1.301101 A    
C81   C113  1.440299 S    
C112  H47   1.085204 S    
O1    C1    1.283517 A    
C19   C20   1.394754 A    
C115  C116  1.401675 A    
C59   C60   1.396057 A    
C24   H10   1.080687 S    
Zn4   O14   2.040364 S    
C14   H6    1.084348 S    
C18   C19   1.403704 A    
C57   C58   1.402110 A    
O38   H51   1.009780 S    
O19   C82   1.286657 A    
C1    C33   1.447612 S    
C65   C123  1.494834 S    
C62   H28   1.082797 S    
N5    O33   1.301583 A    
Zn2   O8    2.027413 S    
C60   H27   1.081068 S    
C7    C8    1.406082 A    
N13   O59   1.301129 A    
O40   H52   1.013789 S    
O54   H55   1.013929 S    
C109  C114  1.384634 A    
C105  C114  1.487260 S    
C59   H26   1.081731 S    
C18   C126  1.482990 S    
C17   C22   1.426895 A    
H18   C46   1.081687 S    
N6    O35   1.299472 A    
C123  O44   1.398735 S    
C27   C28   1.397835 A    
C24   C25   1.403199 A    
C88   H37   1.079655 S    
C119  H50   1.079757 S    
C101  C102  1.400787 A    
N16   O66   1.298709 A    
O12   Zn4   2.029460 S    
O3    C2    1.278382 A    
C103  H44   1.082060 S    
C62   C63   1.398570 A    
C108  N11   1.439714 S    
O8    C4    1.297433 A    
C59   C64   1.403729 A    
N4    O31   1.300905 A    
N4    O32   1.300062 A    
C124  O48   1.397146 S    
C91   H38   1.084792 S    
C117  C118  1.396230 A    
C49   C50   1.381969 A    
C35   C36   1.404395 A    
C116  N14   1.440566 S    
C56   C57   1.394611 A    
N8    O45   1.301155 A    
C4    C51   1.444392 S    
C68   H30   1.086628 S    
C20   C21   1.397667 A    
C13   C14   1.379904 A    
C23   C28   1.397204 A    
C98   H40   1.083423 S    
C30   C31   1.416057 A    
C94   H39   1.084738 S    
C7    C16   1.484500 S    
C121  O37   1.220624 D    
C107  N13   1.436847 S    
C26   H11   1.082991 S    
C27   H12   1.081410 S    
Zn3   O13   2.014202 S    
C71   C72   1.403160 A    
C87   C96   1.497949 S    
O1    Zn1   2.041208 S    
C15   C16   1.420639 A    
C47   C121  1.482264 S    
Zn5   O23   2.025049 S    
Zn5   O21   2.028067 S    
C43   C44   1.423350 A    
O16   C80   1.285332 A    
O6    C3    1.290166 A    
C54   H22   1.083374 S    
C6    C7    1.403557 A    
C73   C74   1.399278 A    
C125  O53   1.222928 D    
C122  O40   1.396734 S    
C32   C33   1.395966 A    
C31   C32   1.387231 A    
C104  N12   1.433130 S    
C105  C106  1.400794 A    
C11   C12   1.390850 A    
C66   C67   1.413585 A    
C111  C120  1.494198 S    
C6    H3    1.081134 S    
C109  C110  1.401314 A    
N1    O25   1.299681 A    
C17   N16   1.440315 S    
C115  H48   1.077924 S    
N12   O57   1.299058 A    
C85   C86   1.395683 A    
O2    C1    1.289169 A    
C56   H24   1.074640 S    
N5    O34   1.301422 A    
C111  C112  1.385214 A    
C118  N15   1.411750 S    
N7    O42   1.301406 A    
N15   O64   1.299449 A    
C75   H33   1.081941 S    
C92   C93   1.403235 A    
C65   C70   1.404237 A    
C12   C78   1.436791 S    
O18   Zn6   2.028281 S    
C21   C22   1.406769 A    
C93   C94   1.387068 A    
H8    C28   1.082243 S    
C103  C104  1.398709 A    
O44   H53   1.013771 S    
C61   C62   1.400437 A    
N10   O52   1.301530 A    
C74   C75   1.394880 A    
C2    C15   1.446669 S    
C118  C119  1.397143 A    
H34   C90   1.082429 S    
C86   C87   1.405205 A    
C41   C42   1.402389 A    
C31   C40   1.504786 S    
C48   C80   1.436865 S    
C124  O47   1.218577 D    
C43   C52   1.501491 S    
N11   O56   1.299359 A    
N16   O65   1.300309 A    
C38   H16   1.076259 S    
O15   C80   1.279316 A    
C25   C26   1.403401 A    
C35   C40   1.422061 A    
O9    Zn3   2.040408 S    
C14   C15   1.396601 A    
C89   C90   1.403913 A    
N2    O27   1.300522 A    
C5    C6    1.395175 A    
C51   C52   1.422874 A    
O2    Zn2   2.014716 S    
C69   C70   1.410000 A    
N3    O30   1.300966 A    
C55   C56   1.393254 A    
Zn3   O15   2.029716 S    
C53   C122  1.478814 S    
C109  H46   1.085681 S    
N13   O60   1.301407 A    
C110  C111  1.424426 A    
C126  O67   1.222466 D    
C85   C90   1.394820 A    
C121  O38   1.398167 S    
C106  H45   1.083393 S    
C91   C96   1.390643 A    
O12   C78   1.278309 A    
C12   C13   1.414726 A    
C99   C100  1.390318 A    
