data_mof_unit_44519.cif
_audit_creation_date              2012-12-10T19:42:13-0500
_audit_creation_method            fapswitch 2.2
_symmetry_space_group_name_H-M    P1
_symmetry_Int_Tables_number       1
_space_group_crystal_system       triclinic
_cell_length_a                    11.070243
_cell_length_b                    10.842889
_cell_length_c                    9.900098
_cell_angle_alpha                 91.551574
_cell_angle_beta                  89.756036
_cell_angle_gamma                 90.06596
_cell_volume                      1187.89547847

loop_
_atom_site_label
_atom_site_type_symbol
_atom_type_description
_atom_site_fract_x
_atom_site_fract_y
_atom_site_fract_z
_atom_type_partial_charge
C1    C     C_R   0.500647 0.265822 0.498211 0.875337
C2    C     C_R   0.859426 0.856519 0.732814 0.356289
C3    C     C_R   0.859335 0.845368 0.873450 0.251099
C4    C     C_R   0.261486 0.498043 0.499748 0.830812
C5    C     C_R   0.870889 0.729149 0.931060 0.335549
C6    C     C_R   0.886692 0.623599 0.846424 -0.250719
C7    C     C_R   0.892732 0.634374 0.705539 0.102000
C8    C     C_2   0.571568 0.932131 0.410012 0.382329
C9    C     C_2   0.522568 0.867217 0.510147 -0.334501
C10   C     C_2   0.585364 0.067071 0.429229 0.087690
C11   C     C_2   0.497891 0.132781 0.492003 -0.342716
C12   C     C_R   0.182414 0.605337 0.993693 0.126274
C13   C     C_2   0.534034 0.408485 0.920387 -0.041119
C14   C     C_2   0.552814 0.418039 0.073504 0.650104
C15   C     C_R   0.505857 0.734319 0.501936 0.871106
C16   C     C_R   0.736288 0.501470 0.499309 0.857813
C17   C     C_R   0.141501 0.690648 0.090805 -0.219672
C18   C     C_R   0.107440 0.655099 0.218161 0.403497
C19   C     C_R   0.111446 0.528610 0.249060 -0.122639
C20   C     C_R   0.152584 0.439724 0.152892 0.312966
C21   C     C_R   0.187729 0.476984 0.024278 0.226615
C22   C     C_R   0.932315 0.472373 0.377031 0.421198
C23   C     C_R   0.868639 0.500925 0.496776 -0.164069
C24   C     C_R   0.933275 0.531182 0.614036 -0.130421
C25   C     C_R   0.055976 0.500309 0.617112 0.412379
C26   C     C_R   0.124772 0.494581 0.497592 -0.173688
C27   C     C_R   0.058479 0.489291 0.375738 -0.183887
C28   C     C_R   0.876050 0.750741 0.649693 -0.314171
Cu1   Cu    Cu3+1 0.500020 0.500020 0.638630 1.059880
Cu2   Cu    Cu3+1 0.499980 0.499980 0.361370 1.095768
H1    H     H_    0.893043 0.533952 0.891011 0.136720
H2    H     H_    0.379675 0.617396 0.175834 0.373092
H3    H     H_    0.061534 0.715441 0.399571 0.324168
H4    H     H_    0.148397 0.302209 0.278651 0.346184
H5    H     H_    0.923763 0.399294 0.194899 0.343322
H6    H     H_    0.045983 0.441580 0.795708 0.323782
H7    H     H_    0.848224 0.963557 0.579298 0.351494
H8    H     H_    0.501414 0.912244 0.606810 0.142254
H9    H     H_    0.417331 0.088858 0.531225 0.135683
H10   H     H_    0.547272 0.318746 0.871646 0.121139
H11   H     H_    0.138337 0.787923 0.068591 0.226120
H12   H     H_    0.880358 0.759790 0.541066 0.169505
H13   H     H_    0.866709 0.632672 0.093336 0.352927
H14   H     H_    0.634442 0.935795 0.227199 0.366528
H15   H     H_    0.665398 0.281677 0.060702 0.311219
I1    I     I_    0.248702 0.698968 0.823407 -0.217997
I2    I     I_    0.839332 0.005390 0.999102 -0.157017
I3    I     I_    0.750141 0.149939 0.365574 -0.222093
I4    I     I_    0.574413 0.670035 0.906280 -0.139187
I5    I     I_    0.258520 0.327031 0.900866 -0.177554
N1    N     N_2   0.498640 0.498660 0.846910 -0.045850
N2    N     N_2   0.498610 0.498630 0.153040 -0.013756
O1    O     O_R   0.500020 0.321960 0.617040 -0.590285
O2    O     O_3   0.611885 0.872537 0.293077 -0.646751
O3    O     O_3   0.628928 0.335027 0.132776 -0.680460
O4    O     O_3   0.409799 0.564384 0.100263 -0.651717
O5    O     O_3   0.068706 0.747285 0.307409 -0.671782
O6    O     O_3   0.159141 0.315322 0.180911 -0.675139
O7    O     O_3   0.869471 0.442263 0.260189 -0.675279
O8    O     O_3   0.108429 0.477815 0.736812 -0.685696
O9    O     O_3   0.845278 0.971725 0.679220 -0.686057
O10   O     O_R   0.499980 0.321920 0.382900 -0.525484
O11   O     O_R   0.319660 0.500030 0.617070 -0.491538
O12   O     O_R   0.319620 0.499990 0.382930 -0.616075
O13   O     O_R   0.500020 0.678080 0.617100 -0.562526
O14   O     O_R   0.499980 0.678040 0.382960 -0.538978
O15   O     O_R   0.680380 0.500010 0.617070 -0.596848
O16   O     O_R   0.680340 0.499970 0.382930 -0.486063
O17   O     O_3   0.862080 0.720720 0.069543 -0.651108

loop_
_geom_bond_atom_site_label_1
_geom_bond_atom_site_label_2
_ccdc_geom_bond_type
C12   C17   A    
C8    C9    D    
H7    O9    S    
C23   C24   A    
Cu1   O11   S    
C14   N2    D    
C6    C7    A    
C16   O16   A    
C25   O8    S    
Cu2   O12   S    
C2    C28   A    
C4    O12   A    
C18   O5    S    
C4    C26   S    
C19   C20   A    
C1    C11   S    
C2    O9    S    
C10   I3    S    
C1    O10   A    
I4    N1    S    
C2    C3    A    
C9    C15   S    
H13   O17   S    
C16   O15   A    
Cu2   O14   S    
C13   C14   S    
C24   C25   A    
C11   H9    S    
C4    O11   A    
C26   C27   A    
Cu1   Cu2   S    
Cu1   O1    S    
Cu1   O13   S    
C3    I2    S    
C21   I5    S    
C14   O3    S    
C16   C23   S    
C6    H1    S    
C22   C27   A    
Cu2   O10   S    
C17   C18   A    
C5    C6    A    
H5    O7    S    
C17   H11   S    
C10   C11   D    
C20   O6    S    
C7    C24   S    
C15   O13   A    
Cu1   O15   S    
H14   O2    S    
C19   C27   S    
C20   C21   A    
H15   O3    S    
C8    C10   S    
C18   C19   A    
Cu1   N1    S    
C8    O2    S    
C22   O7    S    
H4    O6    S    
C1    O1    A    
C22   C23   A    
C9    H8    S    
C13   H10   S    
H3    O5    S    
C28   H12   S    
C3    C5    A    
C25   C26   A    
C13   N1    D    
C15   O14   A    
C5    O17   S    
C12   C21   A    
H2    O4    S    
Cu2   O16   S    
C7    C28   A    
N2    O4    S    
Cu2   N2    S    
H6    O8    S    
C12   I1    S    
