data_mof_unit_6455.cif
_audit_creation_date              2012-12-10T19:08:08-0500
_audit_creation_method            fapswitch 2.2
_symmetry_space_group_name_H-M    P1
_symmetry_Int_Tables_number       1
_space_group_crystal_system       triclinic
_cell_length_a                    9.065868
_cell_length_b                    10.833954
_cell_length_c                    9.58048
_cell_angle_alpha                 89.651865
_cell_angle_beta                  90.416102
_cell_angle_gamma                 90.858118
_cell_volume                      940.839949009

loop_
_atom_site_label
_atom_site_type_symbol
_atom_type_description
_atom_site_fract_x
_atom_site_fract_y
_atom_site_fract_z
_atom_type_partial_charge
C1    C     C_R   0.500165 0.262309 0.500246 0.800328
C2    C     C_R   0.507811 0.936461 0.370576 -0.206836
C3    C     C_R   0.518495 0.870600 0.497093 -0.059229
C4    C     C_R   0.547279 0.935762 0.619573 0.037359
C5    C     C_3   0.482511 0.922388 0.761333 -0.502886
C6    C     C_3   0.472029 0.062698 0.763438 0.311936
C7    C     C_R   0.600210 0.570429 0.073839 0.213574
C8    C     C_R   0.390646 0.440825 0.072033 0.061125
C9    C     C_R   0.391151 0.442772 0.923566 -0.064508
C10   C     C_R   0.600252 0.570241 0.926794 0.232234
C11   C     C_3   0.764030 0.560810 0.922066 -0.467696
C12   C     C_R   0.220799 0.499805 0.499673 0.848316
C13   C     C_3   0.764150 0.560696 0.080316 -0.447695
C14   C     C_R   0.503662 0.737488 0.499424 0.796281
C15   C     C_R   0.779199 0.500061 0.500324 0.842973
C16   C     C_1   0.065588 0.499827 0.499538 -0.164264
C17   C     C_1   0.934403 0.499927 0.500416 -0.185591
C18   C     C_R   0.540200 0.062414 0.621268 0.055150
C19   C     C_R   0.510851 0.129015 0.499022 -0.048600
C20   C     C_R   0.504723 0.065046 0.371515 -0.223567
Cu1   Cu    Cu3+1 0.499990 0.499980 0.640670 0.947622
Cu2   Cu    Cu3+1 0.500010 0.500020 0.359330 0.936155
H1    H     H_    0.490248 0.113368 0.273152 0.151184
H2    H     H_    0.816805 0.644824 0.876186 0.192248
H3    H     H_    0.801348 0.471697 0.125883 0.238858
H4    H     H_    0.817385 0.644496 0.125805 0.193519
H5    H     H_    0.493888 0.889240 0.271902 0.162644
H6    H     H_    0.374210 0.872808 0.758922 0.218579
H7    H     H_    0.563324 0.886024 0.838494 0.153586
H8    H     H_    0.545797 0.109598 0.840904 0.063326
H9    H     H_    0.306344 0.393868 0.865281 0.171992
H10   H     H_    0.801196 0.471957 0.877846 0.227164
N1    N     N_R   0.500920 0.500930 0.147930 -0.225801
N2    N     N_R   0.500930 0.500890 0.852020 -0.204622
O1    O     O_R   0.500000 0.319640 0.618810 -0.567576
O2    O     O_R   0.500020 0.319680 0.381230 -0.622564
O3    O     O_R   0.288380 0.499980 0.618770 -0.578934
O4    O     O_R   0.288400 0.500020 0.381190 -0.586957
O5    O     O_R   0.499980 0.680320 0.618770 -0.576874
O6    O     O_R   0.500000 0.680360 0.381190 -0.586545
O7    O     O_R   0.711600 0.499980 0.618810 -0.584501
O8    O     O_R   0.711620 0.500020 0.381230 -0.577460
O9    O     O_3   0.323941 0.102128 0.757727 -0.590197
C21   C     C_3   0.270779 0.126102 0.893382 0.098029
H11   H     H_    0.176921 0.190057 0.881218 0.194546
H12   H     H_    0.354034 0.173946 0.960705 0.102886
C22   C     C_3   0.213992 0.008058 0.965664 -0.393917
H13   H     H_    0.136321 0.958092 0.894834 0.230411
H14   H     H_    0.307847 0.946982 0.990942 0.208698
C23   C     C_3   0.135154 0.037318 0.101474 -0.863777
H15   H     H_    0.211851 0.085093 0.174956 0.251362
H16   H     H_    0.095727 0.950167 0.151194 0.251187
H17   H     H_    0.038590 0.096751 0.080550 0.272376
C24   C     C_2   0.271301 0.368692 0.139813 0.338563
H18   H     H_    0.290374 0.317443 0.234767 0.123372
O10   O     O_2   0.147962 0.364132 0.087782 -0.596986

loop_
_geom_bond_atom_site_label_1
_geom_bond_atom_site_label_2
_ccdc_geom_bond_type
C7    C10   A    
C23   H16   S    
O9    C21   S    
C20   H1    S    
C2    H5    S    
Cu1   O1    S    
C5    H6    S    
C11   C13   S    
C15   O8    A    
C19   C20   A    
Cu1   O5    S    
C21   C22   S    
C8    N1    A    
Cu2   O6    S    
C2    C3    A    
C4    C18   A    
C10   N2    A    
Cu1   Cu2   S    
C7    N1    A    
C13   H3    S    
Cu2   O8    S    
C3    C14   S    
Cu1   O7    S    
C5    C6    S    
C6    H8    S    
C21   H12   S    
C11   H10   S    
C23   H15   S    
C22   C23   S    
C5    H7    S    
C6    O9    S    
C12   O4    A    
C9    N2    A    
C6    C18   S    
C24   O10   D    
C13   H4    S    
C1    C19   S    
C23   H17   S    
C16   C17   T    
C10   C11   S    
C9    H9    S    
C2    C20   A    
C3    C4    A    
Cu2   O4    S    
C22   H13   S    
C11   H2    S    
C7    C13   S    
Cu1   O3    S    
C21   H11   S    
C15   O7    A    
C22   H14   S    
C18   C19   A    
C8    C24   S    
C12   O3    A    
C15   C17   S    
Cu2   N1    S    
C24   H18   S    
C8    C9    A    
Cu1   N2    S    
C1    O1    A    
C14   O5    A    
C14   O6    A    
Cu2   O2    S    
C12   C16   S    
C1    O2    A    
C4    C5    S    
