data_mof_unit_5786.cif
_audit_creation_date              2013-03-05T15:46:17-0500
_audit_creation_method            fapswitch 2.2
_symmetry_space_group_name_H-M    P1
_symmetry_Int_Tables_number       1
_space_group_crystal_system       triclinic
_cell_length_a                    17.390885
_cell_length_b                    24.453844
_cell_length_c                    14.753015
_cell_angle_alpha                 90.133455
_cell_angle_beta                  125.80728
_cell_angle_gamma                 90.31237
_cell_volume                      5088.01424439

loop_
_atom_site_label
_atom_site_type_symbol
_atom_site_description
_atom_site_fract_x
_atom_site_fract_y
_atom_site_fract_z
_atom_type_partial_charge
C1    C     C_R   0.810180 0.625630 0.909542 -0.092668
C2    C     C_R   0.147586 0.347882 0.089181 -0.152407
C3    C     C_R   0.145293 0.653746 0.091525 -0.094611
C4    C     C_R   0.853942 0.347135 0.907781 -0.100092
C5    C     C_R   0.311530 0.127006 0.910768 -0.095772
C6    C     C_R   0.647031 0.846878 0.089367 -0.086532
C7    C     C_R   0.670316 0.144172 0.089176 -0.119474
C8    C     C_R   0.310640 0.872532 0.909505 -0.114319
H1    H     H_    0.751703 0.631894 0.823772 0.116197
H2    H     H_    0.186330 0.332770 0.173887 0.103407
H3    H     H_    0.182670 0.667564 0.177084 0.099778
H4    H     H_    0.815076 0.334435 0.821451 0.097760
H5    H     H_    0.255003 0.138806 0.826655 0.125677
H6    H     H_    0.684998 0.832950 0.174504 0.085890
H7    H     H_    0.720418 0.158197 0.174067 0.105888
H8    H     H_    0.251843 0.865720 0.823763 0.129662
N1    N     N_R   0.892620 0.603790 0.941800 -0.048851
N2    N     N_R   0.107380 0.396210 0.058200 -0.033943
N3    N     N_R   0.107380 0.603790 0.058200 -0.044602
N4    N     N_R   0.892620 0.396210 0.941800 -0.040087
N5    N     N_R   0.392620 0.103790 0.941800 -0.048480
N6    N     N_R   0.607380 0.896210 0.058200 -0.041648
N7    N     N_R   0.607380 0.103790 0.058200 -0.041256
N8    N     N_R   0.392620 0.896210 0.941800 -0.046862
C9    C     C_R   0.947283 0.348641 0.093732 -0.112712
C10   C     C_R   0.054187 0.651428 0.906350 -0.145316
C11   C     C_R   0.057596 0.350977 0.903382 -0.139084
C12   C     C_R   0.907297 0.625993 0.096449 -0.132797
C13   C     C_R   0.407833 0.873104 0.096321 -0.141795
C14   C     C_R   0.571498 0.142887 0.903812 -0.146646
C15   C     C_R   0.553829 0.849315 0.904340 -0.152524
C16   C     C_R   0.402887 0.116525 0.096149 -0.151706
H9    H     H_    0.994288 0.337257 0.179777 0.098370
H10   H     H_    0.011035 0.662514 0.819480 0.091108
H11   H     H_    0.013905 0.339916 0.816612 0.106204
H12   H     H_    0.940487 0.634052 0.183641 0.101505
H13   H     H_    0.440827 0.866392 0.183385 0.113884
H14   H     H_    0.523697 0.156637 0.819732 0.093904
H15   H     H_    0.504528 0.838452 0.818387 0.112125
H16   H     H_    0.427136 0.114286 0.181638 0.111678
N9    N     N_R   0.952210 0.397600 0.057910 -0.041056
N10   N     N_R   0.047790 0.602400 0.942090 -0.038512
N11   N     N_R   0.047790 0.397600 0.942090 -0.036937
N12   N     N_R   0.952210 0.602400 0.057910 -0.042444
N13   N     N_R   0.452210 0.897600 0.057910 -0.043354
N14   N     N_R   0.547790 0.102400 0.942090 -0.036897
N15   N     N_R   0.547790 0.897600 0.942090 -0.038955
N16   N     N_R   0.452210 0.102400 0.057910 -0.044940
C17   C     C_R   0.051828 0.545822 0.306874 -0.135502
C18   C     C_R   0.019709 0.454310 0.750898 -0.106546
C19   C     C_R   0.020033 0.546301 0.751672 -0.116569
C20   C     C_R   0.050181 0.454260 0.305948 -0.112176
C21   C     C_R   0.557621 0.045605 0.309416 -0.139211
C22   C     C_R   0.517275 0.953771 0.748106 -0.111914
C23   C     C_R   0.513225 0.045605 0.743006 -0.114394
C24   C     C_R   0.555730 0.954495 0.308561 -0.148555
H17   H     H_    0.071546 0.587582 0.335773 0.097514
H18   H     H_    0.029639 0.412330 0.738519 0.091574
H19   H     H_    0.030827 0.588558 0.741373 0.095634
H20   H     H_    0.067023 0.412341 0.333286 0.087125
H21   H     H_    0.578376 0.087368 0.338062 0.092801
H22   H     H_    0.528730 0.911559 0.738411 0.094290
H23   H     H_    0.516435 0.087138 0.722694 0.083486
H24   H     H_    0.574471 0.912759 0.336556 0.096502
N17   N     N_R   0.026300 0.529110 0.206760 -0.039118
N18   N     N_R   0.973700 0.470890 0.793240 -0.045679
N19   N     N_R   0.973700 0.529110 0.793240 -0.045137
N20   N     N_R   0.026300 0.470890 0.206760 -0.039121
N21   N     N_R   0.526300 0.029110 0.206760 -0.036904
N22   N     N_R   0.473700 0.970890 0.793240 -0.044251
N23   N     N_R   0.473700 0.029110 0.793240 -0.043352
N24   N     N_R   0.526300 0.970890 0.206760 -0.035783
C25   C     C_R   0.734377 0.453335 0.709653 -0.074750
C26   C     C_R   0.266927 0.546215 0.243377 -0.100953
C27   C     C_R   0.267167 0.455294 0.241747 -0.106389
C28   C     C_R   0.735186 0.544477 0.705106 -0.091757
C29   C     C_R   0.236025 0.953926 0.705259 -0.098587
C30   C     C_R   0.768698 0.045010 0.247415 -0.107678
C31   C     C_R   0.766618 0.954296 0.242675 -0.108021
C32   C     C_R   0.235760 0.044908 0.704795 -0.083378
H25   H     H_    0.718504 0.411026 0.683331 0.138307
H26   H     H_    0.288672 0.588639 0.260050 0.152807
H27   H     H_    0.290400 0.413280 0.258382 0.132698
H28   H     H_    0.718852 0.585602 0.672423 0.110096
H29   H     H_    0.221384 0.912328 0.674260 0.136071
H30   H     H_    0.794288 0.086334 0.272708 0.145869
H31   H     H_    0.788486 0.912064 0.259027 0.144029
H32   H     H_    0.219609 0.086433 0.674337 0.113518
N25   N     N_R   0.818530 0.472270 0.792960 -0.059922
N26   N     N_R   0.181470 0.527730 0.207040 -0.058299
N27   N     N_R   0.181470 0.472270 0.207040 -0.059561
N28   N     N_R   0.818530 0.527730 0.792960 -0.055555
N29   N     N_R   0.318530 0.972270 0.792960 -0.057850
N30   N     N_R   0.681470 0.027730 0.207040 -0.055613
N31   N     N_R   0.681470 0.972270 0.207040 -0.059706
N32   N     N_R   0.318530 0.027730 0.792960 -0.055522
C33   C     C_R   0.815050 0.638288 0.005197 0.068995
C34   C     C_R   0.120309 0.319086 0.993893 0.070182
C35   C     C_R   0.111322 0.685696 0.998044 0.069783
C36   C     C_R   0.889408 0.315082 0.001331 0.051508
C37   C     C_R   0.318536 0.136512 0.008388 0.076664
C38   C     C_R   0.614724 0.815437 0.994273 0.074070
C39   C     C_R   0.655446 0.165991 0.992640 0.077864
C40   C     C_R   0.316225 0.858964 0.005340 0.073307
C41   C     C_R   0.068688 0.500170 0.371288 0.045453
C42   C     C_R   0.051998 0.500486 0.727315 0.048781
C43   C     C_R   0.577553 0.000184 0.375132 0.052235
C44   C     C_R   0.545791 0.999765 0.719391 0.044293
C45   C     C_R   0.680762 0.498453 0.655163 0.201595
C46   C     C_R   0.322252 0.501350 0.265304 0.215841
C47   C     C_R   0.182240 0.998947 0.652285 0.202527
C48   C     C_R   0.822557 0.999495 0.266922 0.217441
Ni1   Ni    Ni4+2 0.934150 0.565840 0.869060 0.215932
Ni2   Ni    Ni4+2 0.065850 0.434160 0.130940 0.215597
Ni3   Ni    Ni4+2 0.065850 0.565840 0.130940 0.228813
Ni4   Ni    Ni4+2 0.934150 0.434160 0.869060 0.219881
Ni5   Ni    Ni4+2 0.434150 0.065840 0.869060 0.221734
Ni6   Ni    Ni4+2 0.565850 0.934160 0.130940 0.217458
Ni7   Ni    Ni4+2 0.565850 0.065840 0.130940 0.225177
Ni8   Ni    Ni4+2 0.434150 0.934160 0.869060 0.219470
C49   C     C_3   0.520708 0.449850 0.493798 0.292232
C50   C     C_3   0.490021 0.550413 0.412492 0.281174
C51   C     C_3   0.502504 0.464892 0.382343 0.352482
C52   C     C_3   0.507872 0.535177 0.523560 0.348084
C53   C     C_3   0.020274 0.950378 0.500825 0.310205
C54   C     C_3   0.992668 0.045877 0.402143 0.314172
C55   C     C_3   0.000445 0.958114 0.386301 0.331832
C56   C     C_3   0.011882 0.038066 0.516262 0.340829
C57   C     C_3   0.439211 0.486430 0.469415 -0.407611
C58   C     C_3   0.572820 0.513910 0.437667 -0.401452
C59   C     C_3   0.941209 0.990204 0.472161 -0.412811
C60   C     C_3   0.073086 0.006023 0.431746 -0.411767
H33   H     H_    0.384798 0.475191 0.483213 0.200820
H34   H     H_    0.628767 0.525109 0.426535 0.197431
H35   H     H_    0.887292 0.983532 0.488856 0.198473
H36   H     H_    0.128311 0.012670 0.417289 0.197372
C61   C     C_3   0.421348 0.501843 0.356059 -0.181476
C62   C     C_3   0.589316 0.498295 0.549855 -0.201731
C63   C     C_3   0.921763 0.998354 0.355802 -0.182998
C64   C     C_3   0.091111 0.998125 0.547074 -0.202809
C65   C     C_R   0.788771 0.238039 0.895110 -0.213323
C66   C     C_R   0.201249 0.769444 0.101961 -0.203258
C67   C     C_R   0.257201 0.263040 0.089047 -0.218718
C68   C     C_R   0.656619 0.680822 0.902996 -0.210223
C69   C     C_R   0.157216 0.814257 0.904786 -0.232216
C70   C     C_R   0.820144 0.199269 0.088702 -0.174412
C71   C     C_R   0.706538 0.732491 0.097473 -0.213973
C72   C     C_R   0.168875 0.178631 0.934077 -0.239172
H37   H     H_    0.781516 0.251040 0.821482 0.120984
H38   H     H_    0.215834 0.753660 0.178784 0.130924
H39   H     H_    0.291294 0.296280 0.148170 0.144028
H40   H     H_    0.636249 0.660308 0.827062 0.176220
H41   H     H_    0.137259 0.831910 0.826975 0.183502
H42   H     H_    0.837772 0.180070 0.164362 0.178649
H43   H     H_    0.727416 0.751256 0.174988 0.129219
H44   H     H_    0.136920 0.145417 0.873566 0.186973
C73   C     C_R   0.096938 0.774992 0.901567 0.149117
C74   C     C_R   0.891095 0.229314 0.094444 0.140986
C75   C     C_R   0.751401 0.683921 0.103899 0.165992
C76   C     C_R   0.117376 0.225663 0.914815 0.123943
C77   C     C_R   0.713413 0.212294 0.886284 0.184124
C78   C     C_R   0.252850 0.814683 0.106838 0.156649
C79   C     C_R   0.312047 0.219843 0.100340 0.174383
C80   C     C_R   0.602651 0.725050 0.895202 0.132567
C81   C     C_R   0.132207 0.744611 0.999442 0.047063
C82   C     C_R   0.865701 0.257231 0.998045 0.021073
C83   C     C_R   0.739062 0.665331 0.005612 0.056325
C84   C     C_R   0.162198 0.267605 0.997125 0.051994
C85   C     C_R   0.727866 0.194961 0.987804 0.026795
C86   C     C_R   0.241420 0.830472 0.007078 0.049167
C87   C     C_R   0.265400 0.176788 0.020510 0.039283
C88   C     C_R   0.638413 0.756912 0.993655 0.051384
C89   C     C_R   0.113586 0.451376 0.635566 -0.143606
C90   C     C_R   0.114132 0.550243 0.542323 -0.143385
C91   C     C_R   0.115782 0.451241 0.543352 -0.151495
C92   C     C_R   0.111975 0.550316 0.634483 -0.155869
C93   C     C_R   0.613364 0.951009 0.632951 -0.145516
C94   C     C_R   0.619441 0.050179 0.544273 -0.148420
C95   C     C_R   0.625051 0.951405 0.547682 -0.188479
C96   C     C_R   0.609771 0.049842 0.630759 -0.160524
H45   H     H_    0.112240 0.412405 0.669000 0.114747
H46   H     H_    0.112747 0.589287 0.507344 0.116960
H47   H     H_    0.115937 0.412164 0.509157 0.114124
H48   H     H_    0.109193 0.589365 0.666822 0.114203
H49   H     H_    0.609927 0.911939 0.664574 0.117329
H50   H     H_    0.619144 0.089317 0.510222 0.111031
H51   H     H_    0.630546 0.912640 0.516636 0.118258
H52   H     H_    0.604160 0.088683 0.660800 0.109726
C97   C     C_R   0.104996 0.500577 0.488984 0.134375
C98   C     C_R   0.099414 0.500781 0.672021 0.137755
C99   C     C_R   0.614724 0.000669 0.493277 0.144692
C100  C     C_R   0.594442 0.000165 0.665311 0.143832
N33   N     N_R   0.535173 0.395278 0.540316 0.232059
O1    O     O_R   0.535500 0.352973 0.487194 -0.447406
O2    O     O_R   0.542096 0.388378 0.632211 -0.401780
N34   N     N_R   0.473946 0.604926 0.365092 0.236251
O3    O     O_R   0.479213 0.647716 0.420998 -0.393892
O4    O     O_R   0.458510 0.611129 0.268203 -0.395387
N35   N     N_R   0.500695 0.427579 0.304082 0.255543
O5    O     O_R   0.579600 0.406997 0.329045 -0.397350
O6    O     O_R   0.423387 0.420635 0.203977 -0.417451
N36   N     N_R   0.506204 0.572583 0.599573 0.252538
O7    O     O_R   0.431576 0.602335 0.561948 -0.386582
O8    O     O_R   0.568793 0.568267 0.706932 -0.423519
N37   N     N_R   0.034202 0.898699 0.557171 0.233521
O9    O     O_R   0.028511 0.852561 0.509556 -0.384802
O10   O     O_R   0.047943 0.898597 0.653718 -0.453824
N38   N     N_R   0.976213 0.096447 0.342193 0.222783
O11   O     O_R   0.983044 0.143377 0.388032 -0.424854
O12   O     O_R   0.955770 0.094431 0.242208 -0.436816
N39   N     N_R   0.995190 0.914813 0.314800 0.263072
O13   O     O_R   0.069367 0.885170 0.349505 -0.365176
O14   O     O_R   0.919662 0.908591 0.213097 -0.392255
N40   N     N_R   0.014105 0.080852 0.586914 0.248099
O15   O     O_R   0.945674 0.116120 0.542438 -0.385806
O16   O     O_R   0.065989 0.074410 0.694658 -0.433024
C101  C     C_3   0.995660 0.769774 0.798008 -0.475513
C102  C     C_3   0.942952 0.824437 0.768124 -0.187373
C103  C     C_3   0.840703 0.818683 0.664705 -0.882400
H53   H     H_    0.839188 0.805293 0.591658 0.272085
H54   H     H_    0.801418 0.788447 0.679685 0.254593
H55   H     H_    0.804676 0.858769 0.645298 0.250553
H56   H     H_    0.942581 0.838707 0.839502 0.203122
H57   H     H_    0.978847 0.856132 0.751378 0.250101
H58   H     H_    0.995804 0.754756 0.726929 0.208776
H59   H     H_    0.954711 0.741052 0.812914 0.193002
C104  C     C_3   0.991975 0.227733 0.199945 -0.387238
C105  C     C_3   0.066080 0.223324 0.174888 -0.268059
C106  C     C_3   0.166667 0.222258 0.282190 -0.884385
H60   H     H_    0.182057 0.260556 0.330891 0.254684
H61   H     H_    0.175594 0.186628 0.334033 0.278285
H62   H     H_    0.218194 0.218865 0.261081 0.249765
H63   H     H_    0.053009 0.185273 0.126233 0.223859
H64   H     H_    0.060685 0.258437 0.124206 0.194715
H65   H     H_    0.006415 0.262588 0.255834 0.173856
H66   H     H_    0.000553 0.191356 0.249105 0.272989
C107  C     C_3   0.809589 0.653393 0.213893 -0.480421
C108  C     C_3   0.754926 0.643503 0.264966 -0.211308
C109  C     C_3   0.811663 0.607792 0.368995 -0.876726
H67   H     H_    0.824498 0.566968 0.347173 0.266246
H68   H     H_    0.880881 0.627564 0.432933 0.254280
H69   H     H_    0.771303 0.602072 0.405153 0.254459
H70   H     H_    0.740269 0.682918 0.289446 0.197412
H71   H     H_    0.686132 0.622843 0.202496 0.221500
H72   H     H_    0.827682 0.612241 0.200113 0.205954
H73   H     H_    0.875696 0.676887 0.274038 0.202465
C110  C     C_3   0.025688 0.231504 0.798729 -0.390116
C111  C     C_3   0.936278 0.234865 0.795565 -0.283074
C112  C     C_3   0.851954 0.251074 0.678199 -0.887671
H74   H     H_    0.865262 0.291471 0.655322 0.257153
H75   H     H_    0.839694 0.219968 0.615907 0.285697
H76   H     H_    0.786656 0.254329 0.673999 0.231021
H77   H     H_    0.921752 0.194373 0.816930 0.217269
H78   H     H_    0.945135 0.264976 0.857180 0.196093
H79   H     H_    0.032914 0.266491 0.756645 0.181090
H80   H     H_    0.015057 0.196010 0.745003 0.233744
C113  C     C_3   0.619340 0.206702 0.771187 -0.472450
C114  C     C_3   0.612390 0.229549 0.669495 -0.253728
C115  C     C_3   0.512560 0.221412 0.562492 -0.824888
H81   H     H_    0.493364 0.177259 0.547850 0.231362
H82   H     H_    0.460098 0.243841 0.568116 0.274110
H83   H     H_    0.509635 0.237339 0.490256 0.266692
H84   H     H_    0.629255 0.274049 0.680897 0.249399
H85   H     H_    0.662438 0.207432 0.659129 0.188842
H86   H     H_    0.604375 0.162588 0.754219 0.182356
H87   H     H_    0.564825 0.228272 0.774253 0.210428
C116  C     C_3   0.306864 0.847756 0.214213 -0.459910
C117  C     C_3   0.390805 0.816308 0.312599 -0.209948
C118  C     C_3   0.442235 0.851062 0.418810 -0.923140
H88   H     H_    0.462305 0.891174 0.403203 0.263609
H89   H     H_    0.395620 0.858022 0.446205 0.271163
H90   H     H_    0.507245 0.829858 0.486607 0.254503
H91   H     H_    0.365612 0.778241 0.328672 0.222603
H92   H     H_    0.441481 0.804253 0.293730 0.201144
H93   H     H_    0.329481 0.888067 0.202850 0.195166
H94   H     H_    0.256799 0.857680 0.235521 0.218059
C119  C     C_3   0.419502 0.221769 0.191916 -0.538076
C120  C     C_3   0.464449 0.275421 0.257187 -0.210642
C121  C     C_3   0.572284 0.269599 0.337829 -0.760202
H95   H     H_    0.591151 0.234632 0.395074 0.226246
H96   H     H_    0.602972 0.262899 0.290555 0.243465
H97   H     H_    0.604586 0.307112 0.389249 0.308255
H98   H     H_    0.447902 0.309241 0.198321 0.255366
H99   H     H_    0.436837 0.285398 0.306675 0.222316
H100  H     H_    0.436029 0.190625 0.255358 0.193318
H101  H     H_    0.456311 0.212921 0.152445 0.221447
C122  C     C_3   0.510651 0.735077 0.781210 -0.413684
C123  C     C_3   0.424535 0.734818 0.785797 -0.268280
C124  C     C_3   0.334531 0.751546 0.673930 -0.833990
H102  H     H_    0.342180 0.793804 0.652533 0.251896
H103  H     H_    0.319812 0.723009 0.606692 0.276892
H104  H     H_    0.273495 0.750357 0.679368 0.252580
H105  H     H_    0.414348 0.692952 0.806567 0.222165
H106  H     H_    0.435499 0.762865 0.851686 0.198925
H107  H     H_    0.516578 0.771966 0.742492 0.174112
H108  H     H_    0.497344 0.701939 0.721666 0.234934

loop_
_geom_bond_atom_site_label_1
_geom_bond_atom_site_label_2
_geom_bond_distance
_ccdc_geom_bond_type
N13   Ni6   1.830463 S    
C21   N21   1.335126 A    
C31   H31   1.080489 S    
C116  H93   1.108249 S    
C65   C82   1.388818 A    
C78   C116  1.513413 S    
C14   H14   1.068260 S    
C92   H48   1.080379 S    
C72   C76   1.385862 A    
N5    Ni5   1.855823 S    
C24   N24   1.335635 A    
C95   C99   1.402129 A    
C3    N3    1.333367 A    
N29   Ni8   1.885690 S    
C123  H106  1.109165 S    
C4    H4    1.078886 S    
C71   H43   1.077074 S    
C5    H5    1.080227 S    
C101  H59   1.107850 S    
N5    N16   1.390273 A    
C7    H7    1.078518 S    
N6    N15   1.390273 A    
N35   O5    1.299628 A    
C8    H8    1.075681 S    
N7    N14   1.389802 A    
C68   C80   1.396139 A    
C58   H34   1.110376 S    
C67   C79   1.370849 A    
C105  C106  1.525481 S    
C38   C88   1.492915 S    
C5    C37   1.391345 A    
N8    Ni8   1.854384 S    
N36   O7    1.300404 A    
C41   C97   1.459707 S    
C113  H86   1.101639 S    
C9    N9    1.332222 A    
C11   H11   1.071081 S    
N21   Ni7   1.851818 S    
N14   Ni5   1.830461 S    
C13   N13   1.335589 A    
C106  H60   1.110877 S    
C69   C73   1.397715 A    
C9    C36   1.387494 A    
C104  C105  1.538798 S    
C70   H42   1.078859 S    
N17   N20   1.423700 A    
C107  H72   1.109225 S    
C102  H57   1.107918 S    
C8    C40   1.400134 A    
N36   O8    1.299723 A    
C57   H33   1.111425 S    
C118  H89   1.110902 S    
C58   C62   1.554348 S    
C91   H47   1.080299 S    
N6    Ni6   1.855823 S    
C69   C86   1.408572 A    
C80   C122  1.518539 S    
C114  H85   1.110844 S    
C50   C61   1.531860 S    
N34   O3    1.300038 A    
C115  H82   1.110823 S    
C26   C46   1.372248 A    
C26   N26   1.326543 A    
C32   H32   1.081421 S    
C33   C83   1.484166 S    
C30   N30   1.330082 A    
C53   N37   1.455819 S    
C122  H107  1.104955 S    
C6    C38   1.393892 A    
C49   C51   1.527810 S    
C3    H3    1.079599 S    
C90   C97   1.402386 A    
C4    N4    1.318292 A    
C57   C61   1.559375 S    
N33   O1    1.298454 A    
C117  H92   1.109340 S    
C53   C55   1.526370 S    
C23   N23   1.333742 A    
C56   N40   1.459445 S    
C35   C81   1.480980 S    
C12   C33   1.398716 A    
C90   H46   1.080018 S    
N1    Ni1   1.855823 S    
C102  H56   1.112187 S    
C112  H74   1.110773 S    
C51   N35   1.455631 S    
C106  H62   1.110902 S    
N7    Ni7   1.854384 S    
N40   O16   1.300041 A    
C17   H17   1.079493 S    
C113  C114  1.539472 S    
C20   H20   1.079926 S    
C21   H21   1.080422 S    
N22   Ni8   1.851816 S    
C28   C45   1.368887 A    
C93   C95   1.386752 A    
C23   H23   1.069958 S    
C107  H73   1.111706 S    
C24   H24   1.080046 S    
N3    N10   1.389802 A    
C27   N27   1.330588 A    
C10   C35   1.390082 A    
C77   C85   1.431659 A    
C110  H80   1.113287 S    
C121  H96   1.110868 S    
N18   N19   1.423700 A    
C29   H29   1.080490 S    
C7    C39   1.397844 A    
C119  C120  1.536817 S    
N17   Ni3   1.851818 S    
C89   C91   1.383114 A    
C53   C64   1.530858 S    
C54   C63   1.527298 S    
N23   Ni5   1.852926 S    
C68   C83   1.399935 A    
N32   Ni5   1.872221 S    
C73   C81   1.409540 A    
C111  H77   1.111552 S    
C79   C119  1.537589 S    
C101  C102  1.537755 S    
C119  H100  1.108870 S    
C108  H70   1.110486 S    
C13   C40   1.396054 A    
C45   C62   1.432374 S    
C94   H50   1.080575 S    
N21   N24   1.423700 A    
N11   Ni4   1.843392 S    
C6    H6    1.078701 S    
C53   C59   1.534306 S    
C54   C60   1.548749 S    
C60   H36   1.110150 S    
C124  H102  1.110997 S    
C5    N5    1.332341 A    
C109  H68   1.111523 S    
C19   N19   1.333339 A    
C105  H63   1.111952 S    
N15   Ni8   1.843392 S    
C20   C41   1.386075 A    
C120  H98   1.111089 S    
C51   C58   1.552406 S    
C80   C88   1.426876 A    
C42   C98   1.460330 S    
N24   Ni6   1.852928 S    
C56   C59   1.532582 S    
C71   C88   1.412388 A    
C10   N10   1.340877 A    
C40   C86   1.485832 S    
C112  H76   1.103821 S    
C54   C56   1.525306 S    
C14   N14   1.318990 A    
C116  C117  1.538614 S    
C70   C74   1.391769 A    
C51   C61   1.527739 S    
C1    N1    1.333550 A    
N27   Ni2   1.872220 S    
C22   C44   1.390103 A    
C23   C44   1.390916 A    
C114  C115  1.527622 S    
C56   C64   1.530668 S    
C68   H40   1.078511 S    
C103  H55   1.110658 S    
C7    N7    1.335201 A    
C67   H39   1.076738 S    
C8    N8    1.337829 A    
C34   C84   1.444814 S    
C59   C63   1.556918 S    
C3    C35   1.384977 A    
C70   C85   1.415783 A    
C43   C99   1.462005 S    
C39   C85   1.479468 S    
C16   C37   1.362170 A    
C44   C100  1.463677 S    
C50   C52   1.526111 S    
C74   C104  1.519144 S    
C101  H58   1.111659 S    
C109  H67   1.111351 S    
C28   H28   1.081512 S    
C76   C84   1.418448 A    
C104  H66   1.103377 S    
N18   Ni4   1.851816 S    
C31   C48   1.369416 A    
C52   C62   1.530585 S    
C95   H51   1.080611 S    
C6    N6    1.335238 A    
C89   C98   1.401745 A    
C72   C87   1.393680 A    
C93   H49   1.080797 S    
C25   H25   1.080287 S    
C29   C47   1.362956 A    
C96   H52   1.075983 S    
C124  H104  1.110545 S    
C54   N38   1.451274 S    
N38   O11   1.299775 A    
C27   C46   1.379764 A    
C14   C39   1.384500 A    
C121  H95   1.110966 S    
N22   N23   1.423700 A    
C79   C87   1.421493 A    
N28   Ni1   1.872221 S    
C89   H45   1.080508 S    
C93   C100  1.402368 A    
C15   N15   1.334960 A    
C118  H88   1.108307 S    
C16   N16   1.319804 A    
C26   H26   1.079574 S    
C49   N33   1.456384 S    
C47   C64   1.429130 S    
N16   Ni7   1.843393 S    
C116  H94   1.112659 S    
C18   H18   1.074714 S    
C15   C38   1.392387 A    
C1    H1    1.075029 S    
N34   O4    1.300288 A    
C103  H53   1.110985 S    
C17   C41   1.384827 A    
C22   H22   1.077296 S    
C52   N36   1.459010 S    
C31   N31   1.326499 A    
C21   C43   1.381948 A    
C92   C98   1.401246 A    
C122  C123  1.538205 S    
C78   C86   1.419797 A    
C73   C101  1.516781 S    
C123  H105  1.111948 S    
C76   C110  1.517964 S    
C111  C112  1.531048 S    
C74   C82   1.398776 A    
C108  C109  1.528170 S    
C46   C61   1.436150 S    
C113  H87   1.111124 S    
C49   C57   1.535274 S    
C66   C78   1.395550 A    
C94   C96   1.381106 A    
C25   C45   1.367929 A    
C60   C64   1.551954 S    
C66   H38   1.079162 S    
N1    N12   1.390273 A    
C25   N25   1.323637 A    
C106  H61   1.110806 S    
N2    N11   1.390273 A    
C27   H27   1.081060 S    
N26   N27   1.356213 A    
C32   C47   1.367657 A    
C29   N29   1.323638 A    
C12   N12   1.337630 A    
C52   C57   1.532604 S    
C37   C87   1.434718 S    
N30   N31   1.356213 A    
C90   C92   1.381928 A    
C11   N11   1.329683 A    
C117  C118  1.524175 S    
C12   H12   1.074915 S    
C118  H90   1.110448 S    
C13   H13   1.070351 S    
N35   O6    1.300190 A    
C30   C48   1.377091 A    
C72   H44   1.084733 S    
C110  H79   1.107180 S    
C11   C34   1.375046 A    
C65   C77   1.386286 A    
C2    N2    1.316078 A    
C114  H84   1.111966 S    
N9    Ni2   1.830463 S    
C115  H83   1.108473 S    
C71   C75   1.397311 A    
N2    Ni2   1.855823 S    
N4    N9    1.389802 A    
C65   H37   1.067034 S    
N37   O9    1.299990 A    
C17   N17   1.331743 A    
N8    N13   1.389802 A    
C59   H35   1.111418 S    
C111  H78   1.106338 S    
C108  H71   1.112214 S    
C122  H108  1.112946 S    
C36   C82   1.464083 S    
C121  H97   1.106809 S    
C55   C60   1.551481 S    
C10   H10   1.075908 S    
N39   O13   1.300302 A    
N12   Ni3   1.843393 S    
N33   O2    1.300492 A    
C22   N22   1.336218 A    
C117  H91   1.110361 S    
C18   C42   1.391016 A    
C32   N32   1.326130 A    
C105  H64   1.107665 S    
C20   N20   1.331418 A    
C69   H41   1.078119 S    
C30   H30   1.075853 S    
N25   Ni4   1.885690 S    
C120  H99   1.110792 S    
C48   C63   1.431884 S    
C55   C63   1.529519 S    
C75   C83   1.409625 A    
N31   Ni6   1.872220 S    
C112  H75   1.110990 S    
C96   C100  1.401783 A    
C1    C33   1.397245 A    
N4    Ni4   1.854384 S    
N40   O15   1.300282 A    
N26   Ni3   1.885688 S    
C49   C62   1.528524 S    
C24   C43   1.382390 A    
C103  H54   1.110961 S    
N30   Ni7   1.885688 S    
N10   Ni1   1.830461 S    
N3    Ni3   1.854384 S    
C75   C107  1.518888 S    
N25   N28   1.356213 A    
C18   N18   1.334926 A    
C28   N28   1.326341 A    
C55   N39   1.457139 S    
N39   O14   1.300147 A    
N29   N32   1.356213 A    
C4    C36   1.383418 A    
C19   H19   1.076166 S    
C115  H81   1.111078 S    
C2    H2    1.082521 S    
C77   C113  1.524609 S    
C120  C121  1.531548 S    
C50   N34   1.457339 S    
C91   C97   1.401784 A    
C110  C111  1.530748 S    
C104  H65   1.105208 S    
C119  H101  1.110307 S    
C123  C124  1.525946 S    
N19   Ni1   1.852926 S    
C66   C81   1.400293 A    
C94   C99   1.400361 A    
C102  C103  1.526869 S    
C19   C42   1.389965 A    
C124  H103  1.110960 S    
C15   H15   1.066511 S    
C109  H69   1.110933 S    
C16   H16   1.072258 S    
C67   C84   1.400799 A    
C2    C34   1.381487 A    
N38   O12   1.300187 A    
C9    H9    1.071012 S    
C107  C108  1.538295 S    
N37   O10   1.299086 A    
C50   C58   1.548549 S    
N20   Ni2   1.852928 S    
