data_mof_unit_8833.cif
_audit_creation_date              2012-12-10T18:12:33-0500
_audit_creation_method            fapswitch 2.2
_symmetry_space_group_name_H-M    P1
_symmetry_Int_Tables_number       1
_space_group_crystal_system       triclinic
_cell_length_a                    12.756648
_cell_length_b                    13.140342
_cell_length_c                    15.751248
_cell_angle_alpha                 93.038157
_cell_angle_beta                  103.188845
_cell_angle_gamma                 82.457097
_cell_volume                      2547.71552934

loop_
_atom_site_label
_atom_site_type_symbol
_atom_type_description
_atom_site_fract_x
_atom_site_fract_y
_atom_site_fract_z
_atom_type_partial_charge
C1    C     C_R   0.439904 0.690239 0.483180 0.947650
C2    C     C_R   0.596315 0.197848 0.502604 -0.282420
C3    C     C_R   0.298440 0.839093 0.468269 -0.362148
C4    C     C_R   0.501783 0.500688 0.661764 0.876485
C5    C     C_R   0.269760 0.945187 0.474292 0.389447
C6    C     C_R   0.349514 0.011276 0.477830 0.453689
C7    C     C_R   0.453242 0.970476 0.462309 -0.103872
C8    C     C_R   0.477399 0.864004 0.448734 -0.017101
C9    C     C_R   0.538592 0.031237 0.468618 -0.060189
C10   C     C_R   0.647100 0.985372 0.484762 -0.119421
C11   C     C_R   0.666158 0.883819 0.455505 -0.301098
C12   C     C_3   0.505308 0.502467 0.917242 -0.009530
C13   C     C_R   0.578402 0.826762 0.427477 0.515787
C14   C     C_R   0.519804 0.136336 0.456621 0.483441
C15   C     C_R   0.703032 0.151488 0.539379 0.096219
C16   C     C_R   0.560551 0.308420 0.507890 0.933990
C17   C     C_R   0.403509 0.798373 0.462143 -0.152366
C18   C     C_R   0.076870 0.382270 0.352480 -0.223425
C19   C     C_R   0.799221 0.628476 0.607042 0.415346
C20   C     C_R   0.898998 0.669711 0.622668 0.173120
C21   C     C_R   0.979777 0.626492 0.578697 0.415444
C22   C     C_R   0.959880 0.542476 0.519220 -0.171551
C23   C     C_3   0.432041 0.435883 0.009122 0.001563
C24   C     C_R   0.853366 0.511323 0.498771 -0.030741
C25   C     C_R   0.039842 0.490679 0.475583 0.063906
C26   C     C_R   0.005187 0.428801 0.400902 -0.004778
C27   C     C_R   0.900318 0.406734 0.377201 -0.309430
C28   C     C_R   0.498245 0.499319 0.338257 0.925238
C29   C     C_R   0.828903 0.436672 0.430538 0.512614
C30   C     C_R   0.153200 0.493907 0.503193 -0.048510
C31   C     C_R   0.185233 0.390729 0.380236 0.577111
C32   C     C_3   0.466976 0.594655 0.026004 0.126988
C33   C     C_3   0.571455 0.567577 0.990648 -0.345510
C34   C     C_3   0.496312 0.499296 0.083228 -0.076823
C35   C     C_1   0.505749 0.501871 0.751334 -0.141288
C36   C     C_1   0.494539 0.498486 0.248811 -0.122090
C37   C     C_3   0.402014 0.531543 0.952666 0.365988
C38   C     C_3   0.414304 0.776659 0.995842 -0.684679
C39   C     C_3   0.306981 0.312749 0.944214 -0.669946
C40   C     C_3   0.877265 0.222345 0.567767 -0.529436
C41   C     C_3   0.535046 0.406685 0.974081 0.357008
C42   C     C_3   0.599020 0.470611 0.047348 0.400177
C43   C     C_1   0.506914 0.502463 0.826776 0.103061
C44   C     C_1   0.494060 0.498467 0.173551 0.056639
C45   C     C_R   0.730897 0.045584 0.523799 0.450945
H1    H     H_    0.629048 0.620730 0.982438 0.181636
H2    H     H_    0.663716 0.723327 0.369542 0.333765
H3    H     H_    0.326113 0.340389 0.363109 0.417346
H4    H     H_    0.756411 0.685304 0.711828 0.327288
H5    H     H_    0.362403 0.694349 0.084434 0.225736
H6    H     H_    0.389938 0.850949 0.027186 0.233472
H7    H     H_    0.350127 0.762961 0.937106 0.260671
H8    H     H_    0.491626 0.782045 0.976220 0.242970
H9    H     H_    0.078048 0.727895 0.630647 0.399283
H10   H     H_    0.847920 0.796715 0.678065 0.348804
H11   H     H_    0.737002 0.333863 0.371250 0.314500
H12   H     H_    0.240409 0.788225 0.474486 0.204414
H13   H     H_    0.750420 0.425654 0.058295 0.344572
H14   H     H_    0.584953 0.264678 0.996461 0.354245
H15   H     H_    0.303550 0.399873 0.057726 0.237937
H16   H     H_    0.257453 0.257285 0.962022 0.229176
H17   H     H_    0.369097 0.269205 0.912725 0.273146
H18   H     H_    0.253078 0.367696 0.897357 0.255245
H19   H     H_    0.250868 0.577240 0.942339 0.332702
H20   H     H_    0.751583 0.265601 0.634700 0.228848
H21   H     H_    0.887867 0.305038 0.572591 0.196995
H22   H     H_    0.873607 0.194980 0.499223 0.240098
H23   H     H_    0.877102 0.355381 0.321677 0.163963
H24   H     H_    0.948898 0.179941 0.610946 0.249865
H25   H     H_    0.840646 0.928806 0.560448 0.347747
H26   H     H_    0.049416 0.336772 0.293976 0.179183
H27   H     H_    0.188985 0.532515 0.562617 0.218889
H28   H     H_    0.746389 0.850724 0.449202 0.146971
H29   H     H_    0.401670 0.124003 0.354564 0.349032
H30   H     H_    0.257303 0.130056 0.513791 0.381680
H31   H     H_    0.121591 0.928835 0.479616 0.358175
N1    N     N_R   0.222180 0.444680 0.455580 -0.184493
N2    N     N_R   0.776980 0.554790 0.543960 -0.128489
N3    N     N_2   0.428290 0.695079 0.056937 -0.280537
N4    N     N_2   0.357946 0.366647 0.021940 -0.292814
N5    N     N_2   0.780306 0.207416 0.596354 -0.268389
O1    O     O_R   0.366730 0.627160 0.478790 -0.628250
O2    O     O_3   0.331107 0.113490 0.502913 -0.725195
O3    O     O_3   0.167017 0.985356 0.483295 -0.767436
O4    O     O_3   0.588483 0.737307 0.378171 -0.759976
O5    O     O_3   0.251813 0.344604 0.328609 -0.746573
O6    O     O_3   0.720553 0.663555 0.652263 -0.722799
O7    O     O_3   0.072986 0.672463 0.585429 -0.779556
O8    O     O_3   0.917929 0.754421 0.677261 -0.767462
O9    O     O_3   0.740014 0.385820 0.419580 -0.719346
O10   O     O_3   0.701009 0.437155 0.099076 -0.742629
O11   O     O_3   0.572880 0.309194 0.945406 -0.750521
O12   O     O_R   0.544830 0.662520 0.507160 -0.533026
O13   O     O_3   0.299688 0.564390 0.901158 -0.745276
O14   O     O_3   0.837361 0.003662 0.554137 -0.734960
O15   O     O_R   0.410960 0.482330 0.609040 -0.614974
O16   O     O_R   0.589060 0.517690 0.637410 -0.566627
O17   O     O_R   0.455170 0.337480 0.492840 -0.572581
O18   O     O_R   0.633270 0.372840 0.521210 -0.567012
O19   O     O_R   0.410940 0.482310 0.362590 -0.640353
O20   O     O_R   0.589040 0.517670 0.390960 -0.530724
O21   O     O_3   0.432550 0.178950 0.394408 -0.724437
Zn1   Zn    Zn3+2 0.381080 0.476390 0.481050 0.995322
Zn2   Zn    Zn3+2 0.618920 0.523610 0.518950 1.045259

loop_
_geom_bond_atom_site_label_1
_geom_bond_atom_site_label_2
_ccdc_geom_bond_type
C8    C13   A    
C27   C29   A    
C41   C42   S    
H4    O6    S    
C19   C20   A    
C34   C42   S    
H30   O2    S    
H5    N3    S    
H31   O3    S    
C7    C8    A    
C15   N5    S    
C26   C27   A    
C33   C42   S    
H2    O4    S    
C12   C43   S    
C19   O6    S    
C5    C6    A    
C14   O21   S    
C38   H7    S    
C38   N3    S    
O17   Zn1   S    
C25   C30   A    
C42   O10   S    
C12   C37   S    
C24   C29   A    
C27   H23   S    
C4    O15   A    
C30   N1    A    
C28   O20   A    
C22   C25   A    
C18   C26   A    
O1    Zn1   S    
C23   N4    S    
C2    C16   S    
C9    C10   A    
H29   O21   S    
C28   O19   A    
H11   O9    S    
O18   Zn2   S    
C21   O7    S    
C31   O5    S    
C40   H21   S    
C4    O16   A    
C33   H1    S    
O12   Zn2   S    
C29   O9    S    
C31   N1    A    
C39   H16   S    
C40   H24   S    
N2    Zn2   S    
C34   C44   S    
C11   H28   S    
C5    O3    S    
C38   H6    S    
C1    O1    A    
C23   C37   S    
C40   H22   S    
O19   Zn1   S    
C32   C34   S    
C19   N2    A    
C9    C14   A    
C12   C41   S    
H20   N5    S    
C23   C34   S    
C10   C45   A    
C32   C37   S    
C2    C15   A    
C3    H12   S    
C24   N2    A    
O20   Zn2   S    
H3    O5    S    
N1    Zn1   S    
C15   C45   A    
C45   O14   S    
C35   C43   T    
H13   O10   S    
C18   H26   S    
C7    C9    A    
C39   H17   S    
H15   N4    S    
C6    O2    S    
C40   N5    S    
C3    C5    A    
C30   H27   S    
C16   O18   A    
C6    C7    A    
C39   H18   S    
C20   O8    S    
C1    C17   S    
C8    C17   A    
C23   C41   S    
C32   C33   S    
H25   O14   S    
C25   C26   A    
H19   O13   S    
H10   O8    S    
C39   N4    S    
C32   N3    S    
H9    O7    S    
C11   C13   A    
C16   O17   A    
C38   H8    S    
C37   O13   S    
C3    C17   A    
C22   C24   A    
H14   O11   S    
C2    C14   A    
C4    C35   S    
O16   Zn2   S    
C36   C44   T    
C10   C11   A    
C41   O11   S    
C20   C21   A    
C28   C36   S    
C1    O12   A    
O15   Zn1   S    
C13   O4    S    
C18   C31   A    
C12   C33   S    
C21   C22   A    
