data_mof_unit_12480.cif
_audit_creation_date              2012-12-10T18:42:28-0500
_audit_creation_method            fapswitch 2.2
_symmetry_space_group_name_H-M    P1
_symmetry_Int_Tables_number       1
_space_group_crystal_system       triclinic
_cell_length_a                    8.591011
_cell_length_b                    10.669852
_cell_length_c                    9.856319
_cell_angle_alpha                 89.823787
_cell_angle_beta                  98.630695
_cell_angle_gamma                 90.19877
_cell_volume                      893.238444097

loop_
_atom_site_label
_atom_site_type_symbol
_atom_type_description
_atom_site_fract_x
_atom_site_fract_y
_atom_site_fract_z
_atom_type_partial_charge
C1    C     C_R   0.502862 0.260265 0.500600 0.872658
C2    C     C_R   0.497138 0.739735 0.499400 0.872658
C3    C     C_R   0.201130 0.500019 0.464093 0.966989
C4    C     C_R   0.798870 0.499981 0.535907 0.966989
C5    C     C_2   0.036005 0.500268 0.444783 -0.377157
C6    C     C_2   0.963995 0.499732 0.555217 -0.377157
C7    C     C_R   0.403560 0.066990 0.397913 -0.237775
C8    C     C_R   0.596440 0.933010 0.602087 -0.237775
C9    C     C_R   0.397818 0.938255 0.395948 -0.001449
C10   C     C_R   0.602182 0.061745 0.604052 -0.001449
C11   C     C_R   0.495619 0.872188 0.498648 -0.071958
C12   C     C_R   0.504381 0.127812 0.501352 -0.071958
C13   C     C_R   0.597026 0.578697 0.084285 -0.060446
C14   C     C_R   0.402974 0.421303 0.915715 -0.060446
C15   C     C_R   0.596984 0.578665 0.940492 -0.058346
C16   C     C_R   0.403016 0.421335 0.059508 -0.058346
H1    H     H_    0.327499 0.120166 0.320646 0.151865
H2    H     H_    0.672501 0.879834 0.679354 0.151865
H3    H     H_    0.674677 0.641639 0.148586 0.133402
H4    H     H_    0.325323 0.358361 0.851414 0.133402
H5    H     H_    0.674566 0.641610 0.896006 0.128449
H6    H     H_    0.325433 0.358390 0.103994 0.128449
N1    N     N_R   0.499960 0.499970 0.857200 -0.083256
N2    N     N_R   0.500040 0.500030 0.142800 -0.083256
O1    O     O_R   0.499990 0.316750 0.614620 -0.616165
O2    O     O_R   0.500010 0.683250 0.385380 -0.616165
O3    O     O_R   0.499990 0.316780 0.385290 -0.623950
O4    O     O_R   0.500010 0.683220 0.614710 -0.623950
O5    O     O_R   0.271750 0.499990 0.587840 -0.617247
O6    O     O_R   0.728250 0.500010 0.412160 -0.617247
O7    O     O_R   0.271750 0.500010 0.358510 -0.622351
O8    O     O_R   0.728250 0.499990 0.641490 -0.622352
Zn1   Zn    Zn3+2 0.500000 0.499980 0.653120 0.958518
Zn2   Zn    Zn3+2 0.500000 0.500020 0.346880 0.958518
H7    H     H_    0.974147 0.500972 0.340023 0.183043
H8    H     H_    0.025852 0.499028 0.659977 0.183043
C17   C     C_1   0.287392 0.876844 0.291610 0.176003
N3    N     N_1   0.199058 0.827660 0.208216 -0.200827
C18   C     C_1   0.712608 0.123156 0.708390 0.176003
N4    N     N_1   0.800942 0.172340 0.791784 -0.200826

loop_
_geom_bond_atom_site_label_1
_geom_bond_atom_site_label_2
_ccdc_geom_bond_type
C14   N1    A    
C3    O7    A    
C17   N3    T    
C14   H4    S    
C8    H2    S    
C2    O4    A    
O8    Zn1   S    
C2    O2    A    
O7    Zn2   S    
C16   N2    A    
C1    O1    A    
C9    C11   A    
C3    O5    A    
C4    O8    A    
C1    C12   S    
C10   C12   A    
C8    C11   A    
C2    C11   S    
C5    H7    S    
C15   N1    A    
C6    H8    S    
O4    Zn1   S    
C7    C9    A    
C13   C15   A    
O3    Zn2   S    
C5    C6    D    
C14   C16   A    
C7    C12   A    
C13   H3    S    
O5    Zn1   S    
C15   H5    S    
N1    Zn1   S    
C4    C6    S    
C9    C17   S    
C18   N4    T    
C1    O3    A    
O6    Zn2   S    
C16   H6    S    
C7    H1    S    
O2    Zn2   S    
C8    C10   A    
C4    O6    A    
C13   N2    A    
O1    Zn1   S    
C10   C18   S    
C3    C5    S    
N2    Zn2   S    
