data_mof_unit_13966.cif
_audit_creation_date              2012-12-10T20:37:31-0500
_audit_creation_method            fapswitch 2.2
_symmetry_space_group_name_H-M    P1
_symmetry_Int_Tables_number       1
_space_group_crystal_system       triclinic
_cell_length_a                    15.682659
_cell_length_b                    10.663326
_cell_length_c                    9.937161
_cell_angle_alpha                 89.365047
_cell_angle_beta                  89.081144
_cell_angle_gamma                 91.094291
_cell_volume                      1661.16001104

loop_
_atom_site_label
_atom_site_type_symbol
_atom_type_description
_atom_site_fract_x
_atom_site_fract_y
_atom_site_fract_z
_atom_type_partial_charge
C1    C     C_R   0.501098 0.260397 0.500513 0.887675
C2    C     C_3   0.083296 0.532959 0.494551 0.218094
C3    C     C_3   0.971303 0.645727 0.515732 -0.165619
C4    C     C_3   0.917653 0.526767 0.492100 0.219354
C5    C     C_3   0.030079 0.609064 0.396196 -0.170757
C6    C     C_3   0.974312 0.490185 0.372540 -0.164875
C7    C     C_1   0.174347 0.527443 0.497203 -0.110942
C8    C     C_1   0.826581 0.518725 0.493517 -0.095557
C9    C     C_R   0.441104 0.060241 0.576549 0.061379
C10   C     C_R   0.500753 0.128065 0.498951 -0.015286
C11   C     C_R   0.552077 0.067278 0.404215 -0.149208
C12   C     C_R   0.338035 0.503112 0.500549 0.905151
C13   C     C_R   0.551033 0.937520 0.401293 -0.211166
C14   C     C_R   0.499646 0.870849 0.494738 -0.093888
C15   C     C_R   0.440967 0.932084 0.574638 -0.058839
C16   C     C_3   0.422383 0.921276 0.723356 0.360325
C17   C     C_3   0.421034 0.063532 0.723789 -0.550765
C18   C     C_R   0.465785 0.400805 0.073451 0.087438
C19   C     C_R   0.540548 0.592318 0.069905 -0.217669
C20   C     C_R   0.542560 0.591440 0.925263 0.556153
C21   C     C_R   0.466029 0.401121 0.932079 -0.073507
C22   C     C_3   0.378837 0.342031 0.929191 0.184201
C23   C     C_R   0.501436 0.739313 0.498980 0.852590
C24   C     C_3   0.376019 0.349552 0.083044 0.694006
C25   C     C_R   0.662036 0.501357 0.498966 0.873634
C26   C     C_3   0.971057 0.450986 0.590207 -0.164271
C27   C     C_3   0.029248 0.414349 0.470787 -0.168743
C28   C     C_1   0.249404 0.516690 0.500221 -0.164672
C29   C     C_1   0.751162 0.510127 0.496085 -0.190229
C30   C     C_3   0.026477 0.569768 0.613980 -0.178927
H1    H     H_    0.055039 0.319695 0.452406 0.133679
H2    H     H_    0.476872 0.883629 0.780338 0.171303
H3    H     H_    0.356338 0.100681 0.742424 0.203834
H4    H     H_    0.473605 0.106143 0.782771 0.193416
H5    H     H_    0.570316 0.668881 0.123251 0.156677
H6    H     H_    0.384883 0.245245 0.892295 0.075802
H7    H     H_    0.945152 0.386070 0.669547 0.131860
H8    H     H_    0.950922 0.457427 0.273856 0.129162
H9    H     H_    0.056072 0.674424 0.317408 0.140151
H10   H     H_    0.945368 0.740264 0.534111 0.130301
H11   H     H_    0.048576 0.603432 0.712978 0.137185
H12   H     H_    0.594745 0.119724 0.336611 0.164257
H13   H     H_    0.593165 0.889761 0.332087 0.147948
N1    N     N_R   0.499430 0.499140 0.142800 -0.112579
N2    N     N_R   0.499430 0.499180 0.857150 -0.106250
O1    O     O_R   0.500010 0.316790 0.614690 -0.643576
O2    O     O_R   0.500000 0.316760 0.385350 -0.556452
O3    O     O_R   0.376780 0.500010 0.614650 -0.570450
O4    O     O_R   0.376770 0.499970 0.385310 -0.550497
O5    O     O_R   0.500000 0.683240 0.614650 -0.569912
O6    O     O_R   0.499990 0.683210 0.385310 -0.624640
O7    O     O_R   0.623230 0.500030 0.614690 -0.612712
O8    O     O_R   0.623220 0.499990 0.385350 -0.627507
Zn1   Zn    Zn3+2 0.500010 0.500020 0.653130 1.019672
Zn2   Zn    Zn3+2 0.499990 0.499980 0.346870 1.017168
O9    O     O_3   0.579639 0.689745 0.851812 -0.598863
C31   C     C_3   0.665937 0.710899 0.886246 0.075204
H14   H     H_    0.705689 0.700871 0.793590 0.175483
H15   H     H_    0.691414 0.643724 0.961857 0.107367
C32   C     C_3   0.677486 0.844490 0.936372 -0.870003
H16   H     H_    0.638735 0.858102 0.029342 0.250488
H17   H     H_    0.745659 0.863135 0.958831 0.215667
H18   H     H_    0.657060 0.912279 0.858108 0.260644
O10   O     O_3   0.316425 0.415706 0.866721 -0.547655
C33   C     C_3   0.255329 0.335422 0.805692 0.136809
H19   H     H_    0.243530 0.245341 0.861821 0.133548
H20   H     H_    0.277855 0.312388 0.702497 0.154890
C34   C     C_3   0.169979 0.399816 0.797424 -0.863792
H21   H     H_    0.179841 0.500084 0.770704 0.274151
H22   H     H_    0.130267 0.353133 0.720557 0.219926
H23   H     H_    0.134808 0.392879 0.894825 0.230646
O11   O     O_3   0.322043 0.443420 0.135623 -0.587777
C35   C     C_3   0.236226 0.403008 0.152116 0.234526
H24   H     H_    0.226175 0.362607 0.254705 0.175725
H25   H     H_    0.216563 0.331502 0.078126 0.148378
C36   C     C_3   0.179312 0.516091 0.137567 -0.854333
H26   H     H_    0.189418 0.560805 0.037027 0.283119
H27   H     H_    0.111373 0.486305 0.149261 0.194782
H28   H     H_    0.194935 0.586353 0.215372 0.266120
S1    S     S_3+6 0.368471 0.196672 0.163568 -0.036453
O12   O     O_2   0.348245 0.208763 0.311010 -0.328576
O13   O     O_2   0.298706 0.120563 0.099461 -0.373710
O14   O     O_3   0.461388 0.122733 0.142292 -0.601521
H29   H     H_    0.447262 0.032548 0.156322 0.395327
O15   O     O_3   0.343306 0.865110 0.767703 -0.561025
C37   C     C_3   0.281860 0.852978 0.665693 0.184563
H30   H     H_    0.302260 0.781899 0.591287 0.136787
H31   H     H_    0.271253 0.944264 0.613808 0.139657
C38   C     C_3   0.197471 0.809119 0.728950 -0.829108
H32   H     H_    0.174002 0.880528 0.800384 0.257994
H33   H     H_    0.149505 0.795088 0.649253 0.201458
H34   H     H_    0.205884 0.719355 0.784190 0.266641

loop_
_geom_bond_atom_site_label_1
_geom_bond_atom_site_label_2
_ccdc_geom_bond_type
C18   C21   A    
C35   H24   S    
C19   C20   A    
C36   H28   S    
C4    C8    S    
C12   O4    A    
O15   C37   S    
O3    Zn1   S    
C26   C27   S    
O5    Zn1   S    
C12   C28   S    
C32   H18   S    
C18   C24   S    
C8    C29   T    
C36   H27   S    
C5    C6    S    
C37   H31   S    
C1    O1    A    
C31   H15   S    
C15   C16   S    
O9    C31   S    
C11   H12   S    
C32   H17   S    
C2    C7    S    
C24   S1    S    
O14   H29   S    
C34   H21   S    
C33   H20   S    
C6    H8    S    
C30   H11   S    
C2    C27   S    
C38   H33   S    
C9    C10   A    
C20   N2    A    
C20   O9    S    
C21   C22   S    
C35   H25   S    
C17   H3    S    
S1    O14   S    
O7    Zn1   S    
C21   N2    A    
O8    Zn2   S    
C25   C29   S    
C27   H1    S    
C36   H26   S    
C4    C6    S    
C37   H30   S    
O11   C35   S    
C31   C32   S    
C3    C5    S    
O4    Zn2   S    
C7    C28   T    
C32   H16   S    
C14   C23   S    
C3    C30   S    
C18   N1    A    
C23   O6    A    
C6    C27   S    
C33   C34   S    
O1    Zn1   S    
C38   H34   S    
S1    O13   D    
C9    C17   S    
C3    H10   S    
C26   C30   S    
C5    H9    S    
C16   O15   S    
C35   C36   S    
C22   C24   S    
C2    C5    S    
C17   H4    S    
C3    C4    S    
C13   H13   S    
C19   N1    A    
C24   O11   S    
O2    Zn2   S    
C1    O2    A    
C1    C10   S    
C25   O8    A    
S1    O12   D    
C23   O5    A    
C37   C38   S    
N2    Zn1   S    
C4    C26   S    
C26   H7    S    
C16   H2    S    
C22   H6    S    
C2    C30   S    
O10   C33   S    
C9    C15   A    
C25   O7    A    
C19   H5    S    
C11   C13   A    
N1    Zn2   S    
C31   H14   S    
C16   C17   S    
C34   H23   S    
C12   O3    A    
O6    Zn2   S    
C10   C11   A    
C22   O10   S    
C34   H22   S    
C33   H19   S    
C14   C15   A    
C38   H32   S    
C13   C14   A    
