data_mof_unit_42996.cif
_audit_creation_date              2012-10-26T18:54:55-0400
_audit_creation_method            fapswitch 2.2
_symmetry_space_group_name_H-M    P1
_symmetry_Int_Tables_number       1
_space_group_crystal_system       triclinic
_cell_length_a                    10.831105
_cell_length_b                    9.522079
_cell_length_c                    10.794508
_cell_angle_alpha                 89.868026
_cell_angle_beta                  90.203833
_cell_angle_gamma                 90.044824
_cell_volume                      1113.27733735

loop_
_atom_site_label
_atom_site_type_symbol
_atom_type_description
_atom_site_fract_x
_atom_site_fract_y
_atom_site_fract_z
_atom_type_partial_charge
Br1   Br    Br    0.705826 0.284934 0.156196 -0.424780
Br2   Br    Br    0.710002 0.289430 0.847625 -0.475680
C1    C     C_R   0.262070 0.499924 0.499909 0.539797
C2    C     C_R   0.457275 0.607371 0.936221 -0.007689
C3    C     C_R   0.517366 0.502519 0.129516 -0.012732
C4    C     C_R   0.517581 0.502245 0.870827 -0.011503
C5    C     C_R   0.597000 0.409587 0.066227 0.164334
C6    C     C_R   0.597603 0.410062 0.935452 0.159569
C7    C     C_3   0.326463 0.656174 0.928680 -0.256179
C8    C     C_3   0.326584 0.656628 0.069475 -0.262736
C9    C     C_R   0.063733 0.372290 0.499815 -0.124336
C10   C     C_R   0.936009 0.372322 0.499959 -0.097025
C11   C     C_R   0.871756 0.499974 0.500122 0.039328
C12   C     C_R   0.737924 0.499982 0.500101 0.577415
C13   C     C_R   0.128210 0.499905 0.499902 0.018233
C14   C     C_R   0.936222 0.627580 0.500214 -0.127047
C15   C     C_R   0.063942 0.627548 0.500070 -0.134570
C16   C     C_R   0.415679 0.074517 0.431303 0.029970
C17   C     C_R   0.584845 0.074173 0.567860 0.037536
C18   C     C_R   0.415786 0.925702 0.431160 0.022286
C19   C     C_R   0.584559 0.925454 0.568311 0.025374
C20   C     C_R   0.504328 0.500209 0.262481 0.573961
C21   C     C_R   0.504797 0.500017 0.737601 0.576021
C22   C     C_R   0.457369 0.607696 0.063115 -0.006825
Cu1   Cu    Cu3+1 0.500000 0.640660 0.500000 0.961807
Cu2   Cu    Cu3+1 0.500000 0.359340 0.500000 1.007445
H1    H     H_    0.318840 0.762985 0.887596 0.159282
H2    H     H_    0.653386 0.129832 0.621492 0.158543
H3    H     H_    0.348456 0.869760 0.375808 0.106999
H4    H     H_    0.652290 0.869380 0.623177 0.124032
H5    H     H_    0.263830 0.576843 0.110730 0.141321
H6    H     H_    0.263685 0.576063 0.887834 0.144131
H7    H     H_    0.319116 0.763699 0.109599 0.149774
H8    H     H_    0.111690 0.272499 0.499643 0.131152
H9    H     H_    0.887877 0.272549 0.499920 0.148693
H10   H     H_    0.888263 0.727370 0.500385 0.134989
H11   H     H_    0.112057 0.727328 0.500106 0.130556
H12   H     H_    0.348221 0.130617 0.376122 0.113081
N1    N     N_R   0.500000 0.852070 0.500000 -0.230554
N2    N     N_R   0.500000 0.147940 0.500000 -0.224752
O1    O     O_R   0.319640 0.618740 0.499990 -0.519036
O2    O     O_R   0.680360 0.618740 0.500010 -0.515172
O3    O     O_R   0.319620 0.381170 0.499990 -0.519116
O4    O     O_R   0.680380 0.381170 0.500010 -0.486327
O5    O     O_R   0.499990 0.618810 0.319660 -0.497884
O6    O     O_R   0.500010 0.618810 0.680340 -0.501956
O7    O     O_R   0.499960 0.381240 0.319650 -0.468962
O8    O     O_R   0.500040 0.381240 0.680350 -0.470769

loop_
_geom_bond_atom_site_label_1
_geom_bond_atom_site_label_2
_ccdc_geom_bond_type
Cu1   O2    S    
C9    C10   A    
C3    C5    A    
C19   H4    S    
C19   N1    A    
Cu2   O8    S    
C12   O2    A    
Cu1   Cu2   S    
Cu2   N2    S    
C20   O7    A    
C16   H12   S    
Cu2   O4    S    
C5    C6    A    
C21   O6    A    
C15   H11   S    
C11   C12   S    
Cu1   N1    S    
C10   H9    S    
C17   H2    S    
C1    O3    A    
C3    C22   A    
Cu2   O7    S    
C4    C21   S    
C8    H5    S    
C2    C4    A    
C17   C19   A    
Cu2   O3    S    
C8    H7    S    
C16   C18   A    
C18   H3    S    
C2    C22   A    
Br2   C6    S    
C17   N2    A    
Cu1   O5    S    
C20   O5    A    
C1    C13   S    
C10   C11   A    
C7    H1    S    
C12   O4    A    
C7    C8    S    
C11   C14   A    
Cu1   O1    S    
C13   C15   A    
C18   N1    A    
C16   N2    A    
C1    O1    A    
C4    C6    A    
C21   O8    A    
C7    H6    S    
C8    C22   S    
C2    C7    S    
Br1   C5    S    
C9    C13   A    
Cu1   O6    S    
C9    H8    S    
C14   H10   S    
C3    C20   S    
C14   C15   A    
