data_mof_unit_32831.cif
_audit_creation_date              2012-12-11T17:02:15-0500
_audit_creation_method            fapswitch 2.2
_symmetry_space_group_name_H-M    P1
_symmetry_Int_Tables_number       1
_space_group_crystal_system       triclinic
_cell_length_a                    21.617204
_cell_length_b                    7.089447
_cell_length_c                    15.340956
_cell_angle_alpha                 89.853233
_cell_angle_beta                  108.405836
_cell_angle_gamma                 89.808435
_cell_volume                      2230.76320074

loop_
_atom_site_label
_atom_site_type_symbol
_atom_type_description
_atom_site_fract_x
_atom_site_fract_y
_atom_site_fract_z
_atom_type_partial_charge
O1    O     O_R   0.585850 0.505770 0.002130 -0.545396
O2    O     O_R   0.414150 0.005770 0.997870 -0.530369
O3    O     O_R   0.467530 0.173560 0.861970 -0.557088
O4    O     O_R   0.532470 0.673560 0.138030 -0.556788
C1    C     C_R   0.454046 0.344497 0.826172 0.816383
C2    C     C_R   0.547311 0.843883 0.173701 0.826845
O5    O     O_R   0.588690 0.175900 0.993250 -0.551845
O6    O     O_R   0.411310 0.675900 0.006750 -0.553755
O7    O     O_R   0.536170 0.007950 0.130090 -0.525124
O8    O     O_R   0.463830 0.507950 0.869910 -0.545238
C3    C     C_R   0.615334 0.344064 0.999194 0.716505
C4    C     C_R   0.384149 0.844036 0.998083 0.724597
O9    O     O_3   0.482630 0.339970 0.044740 -0.379919
O10   O     O_3   0.517370 0.839970 0.955260 -0.405346
V1    V     V_3+5 0.503220 0.064200 0.991700 1.427841
V2    V     V_3+5 0.496780 0.564200 0.008300 1.408498
C5    C     C_R   0.297742 0.965354 0.060221 -0.074836
C6    C     C_R   0.701418 0.463599 0.934614 -0.072978
C7    C     C_R   0.315633 0.850263 0.998371 -0.205769
C8    C     C_R   0.683600 0.349974 0.997710 -0.197445
C9    C     C_R   0.265687 0.753916 0.931728 -0.227981
C10   C     C_R   0.733613 0.253943 0.065288 -0.214317
H1    H     H_    0.277324 0.677020 0.877949 0.149402
H2    H     H_    0.721829 0.176760 0.118979 0.146248
C11   C     C_R   0.199435 0.775386 0.927189 0.444575
C12   C     C_R   0.799945 0.275173 0.070850 0.442720
C13   C     C_R   0.183006 0.880446 0.994789 -0.217059
C14   C     C_R   0.816768 0.382584 0.004305 -0.222751
C15   C     C_R   0.232582 0.981645 0.058467 -0.091016
C16   C     C_R   0.767190 0.482998 0.939371 -0.085738
C17   C     C_3   0.239468 0.193194 0.063360 0.712591
C18   C     C_3   0.759044 0.694341 0.933608 0.733778
C19   C     C_3   0.311445 0.170207 0.073111 0.254516
C20   C     C_3   0.686493 0.668463 0.917566 0.226270
H3    H     H_    0.326894 0.232907 0.016483 0.054712
H4    H     H_    0.669019 0.739751 0.970417 0.048123
C21   C     C_R   0.929637 0.873280 0.724367 -0.205045
C22   C     C_R   0.071167 0.371566 0.275553 -0.201590
C23   C     C_R   0.577576 0.847762 0.274004 -0.214286
C24   C     C_R   0.425032 0.348876 0.725847 -0.210651
C25   C     C_R   0.947804 0.780904 0.580686 0.416717
C26   C     C_R   0.054730 0.274890 0.419903 0.419902
C27   C     C_R   0.972573 0.843672 0.672829 0.236765
C28   C     C_R   0.028846 0.336303 0.327440 0.236498
C29   C     C_R   0.862809 0.847597 0.682843 -0.198268
C30   C     C_R   0.138378 0.351935 0.316879 -0.195882
C31   C     C_R   0.836790 0.784405 0.591387 -0.021365
C32   C     C_R   0.165508 0.289638 0.408556 -0.019899
C33   C     C_R   0.879704 0.751923 0.539711 -0.073480
C34   C     C_R   0.123252 0.252418 0.460737 -0.075536
C35   C     C_R   0.768399 0.759431 0.548971 -0.057441
C36   C     C_R   0.234282 0.270228 0.450641 -0.049891
C37   C     C_R   0.742346 0.751299 0.452129 -0.014489
C38   C     C_R   0.260694 0.262038 0.547386 -0.015988
C39   C     C_R   0.785240 0.693596 0.404768 -0.276494
C40   C     C_R   0.218730 0.201175 0.595523 -0.278779
C41   C     C_R   0.853152 0.690598 0.447788 0.483173
C42   C     C_R   0.150868 0.193247 0.553055 0.483932
C43   C     C_R   0.725610 0.725023 0.599952 0.339434
C44   C     C_R   0.277143 0.239716 0.399351 0.332486
C45   C     C_R   0.658064 0.750500 0.558859 0.310307
C46   C     C_R   0.344688 0.266616 0.439976 0.294135
C47   C     C_R   0.632780 0.798373 0.464772 -0.165459
C48   C     C_R   0.370169 0.308745 0.534548 -0.160526
C49   C     C_R   0.674026 0.787056 0.408415 -0.103318
C50   C     C_R   0.328788 0.298288 0.590685 -0.106813
C51   C     C_R   0.566375 0.851675 0.426542 0.428289
C52   C     C_R   0.437121 0.353489 0.573809 0.430296
C53   C     C_R   0.539279 0.879612 0.331214 0.259509
C54   C     C_R   0.464826 0.367591 0.669721 0.247910
C55   C     C_R   0.645189 0.818541 0.311804 0.255712
C56   C     C_R   0.357158 0.330659 0.687051 0.255039
H5    H     H_    0.831500 0.880424 0.723185 0.191331
H6    H     H_    0.169145 0.388706 0.276333 0.186291
H7    H     H_    0.766757 0.640464 0.335541 0.186556
H8    H     H_    0.238098 0.149900 0.665249 0.184886
O11   O     O_R   0.036080 0.231270 0.130120 -0.526616
O12   O     O_R   0.963920 0.731270 0.869880 -0.526728
O13   O     O_R   0.911300 0.558970 0.006750 -0.521369
O14   O     O_R   0.088700 0.058970 0.993250 -0.519354
C57   C     C_R   0.885167 0.390838 0.003157 0.753349
C58   C     C_R   0.114759 0.890214 0.996561 0.753549
O15   O     O_R   0.032450 0.561140 0.138040 -0.557038
O16   O     O_R   0.967550 0.061140 0.861960 -0.556441
O17   O     O_R   0.085870 0.728910 0.002130 -0.557861
O18   O     O_R   0.914130 0.228910 0.997870 -0.554369
C59   C     C_R   0.045918 0.391141 0.174588 0.718094
C60   C     C_R   0.954325 0.891719 0.825364 0.726092
O19   O     O_3   0.017320 0.394650 0.955270 -0.385892
O20   O     O_3   0.982680 0.894650 0.044730 -0.385642
V3    V     V_3+5 0.996780 0.670490 0.008300 1.446737
V4    V     V_3+5 0.003220 0.170490 0.991700 1.450897
O21   O     O_3   0.615609 0.724143 0.608753 -0.609886
H9    H     H_    0.637251 0.649606 0.664450 0.368709
O22   O     O_3   0.387130 0.244047 0.389608 -0.616570
H10   H     H_    0.363841 0.192419 0.328483 0.367392
O23   O     O_3   0.988905 0.751143 0.528638 -0.598992
H11   H     H_    0.034880 0.772082 0.565767 0.360299
O24   O     O_3   0.014245 0.240013 0.472346 -0.597979
H12   H     H_    0.967959 0.257140 0.435351 0.357904
O25   O     O_3   0.038850 0.872017 0.710351 -0.624223
H13   H     H_    0.048114 0.942549 0.768600 0.303186
O26   O     O_3   0.962152 0.358101 0.290012 -0.625678
H14   H     H_    0.951746 0.429456 0.231622 0.303999
O27   O     O_3   0.748849 0.653170 0.688187 -0.527037
C61   C     C_3   0.758934 0.457138 0.683396 -0.181168
H15   H     H_    0.797825 0.426200 0.652174 0.134296
H16   H     H_    0.713021 0.383657 0.644866 0.096367
H17   H     H_    0.775273 0.398884 0.754207 0.156513
O28   O     O_3   0.254100 0.164538 0.312142 -0.530485
C62   C     C_3   0.249043 0.967046 0.319540 -0.177354
H18   H     H_    0.212207 0.928997 0.353386 0.132331
H19   H     H_    0.297051 0.901740 0.356951 0.096636
H20   H     H_    0.232596 0.906449 0.249420 0.157517
O29   O     O_3   0.532230 0.903432 0.485694 -0.545841
C63   C     C_3   0.471486 0.812956 0.466451 -0.069310
H21   H     H_    0.467414 0.683444 0.424745 0.159091
H22   H     H_    0.431842 0.912331 0.431468 0.163060
H23   H     H_    0.464165 0.774244 0.532586 0.167563
O30   O     O_3   0.471756 0.411452 0.516265 -0.545250
C64   C     C_3   0.529716 0.307853 0.529381 -0.037708
H24   H     H_    0.532139 0.176203 0.569067 0.158254
H25   H     H_    0.572263 0.396173 0.564567 0.153828
H26   H     H_    0.533631 0.271433 0.461036 0.174321
O31   O     O_3   0.151160 0.742948 0.845105 -0.550909
C65   C     C_3   0.133668 0.552589 0.839153 -0.179532
H27   H     H_    0.089366 0.535317 0.779098 0.161405
H28   H     H_    0.120116 0.505268 0.899589 0.193906
H29   H     H_    0.173379 0.465767 0.828507 0.125921
O32   O     O_3   0.847943 0.238104 0.152913 -0.552899
C66   C     C_3   0.865246 0.047117 0.157423 -0.175170
H30   H     H_    0.910544 0.027413 0.215803 0.160268
H31   H     H_    0.877038 0.000461 0.095531 0.193261
H32   H     H_    0.826209 0.960872 0.169976 0.129256
O33   O     O_3   0.227020 0.268042 0.141475 -0.510153
C67   C     C_3   0.224662 0.467456 0.138647 -0.113309
H33   H     H_    0.254179 0.532187 0.098853 0.109134
H34   H     H_    0.243974 0.522139 0.209733 0.112278
H35   H     H_    0.173272 0.514047 0.109481 0.141665
O34   O     O_3   0.774762 0.772954 0.858537 -0.509529
C68   C     C_3   0.765360 0.970847 0.855102 -0.072551
H36   H     H_    0.723292 0.017408 0.877044 0.115822
H37   H     H_    0.755367 0.019928 0.783308 0.116159
H38   H     H_    0.810475 0.040319 0.898038 0.125120
O35   O     O_3   0.202587 0.280201 0.980619 -0.689693
H39   H     H_    0.214318 0.220926 0.929305 0.235215
O36   O     O_3   0.791999 0.782274 0.017434 -0.692548
H40   H     H_    0.778616 0.721131 0.067001 0.238405
O37   O     O_3   0.353610 0.199794 0.162976 -0.534292
C69   C     C_3   0.381020 0.381606 0.172463 -0.112686
H41   H     H_    0.367484 0.455613 0.227364 0.134719
H42   H     H_    0.365069 0.472220 0.109994 0.090974
H43   H     H_    0.434881 0.367713 0.194155 0.177005
O38   O     O_3   0.650264 0.700251 0.824467 -0.540400
C70   C     C_3   0.589015 0.777469 0.817311 -0.112974
H44   H     H_    0.562139 0.803887 0.743856 0.181768
H45   H     H_    0.594002 0.914116 0.854195 0.103215
H46   H     H_    0.560089 0.675537 0.842763 0.189229
O39   O     O_3   0.893590 0.618825 0.401568 -0.510556
C71   C     C_3   0.890177 0.734824 0.325533 -0.100752
H47   H     H_    0.936442 0.720697 0.309352 0.169015
H48   H     H_    0.884729 0.887353 0.339469 0.110981
H49   H     H_    0.849864 0.687521 0.264691 0.118531
O40   O     O_3   0.111556 0.120304 0.600641 -0.510677
C72   C     C_3   0.114479 0.237391 0.675842 -0.097833
H50   H     H_    0.067818 0.226147 0.691047 0.170500
H51   H     H_    0.120494 0.389525 0.661605 0.106313
H52   H     H_    0.154286 0.188812 0.737344 0.119411
O41   O     O_3   0.681518 0.839096 0.253049 -0.661677
H53   H     H_    0.717472 0.927166 0.282880 0.288110
O42   O     O_3   0.320360 0.360676 0.744608 -0.661880
H54   H     H_    0.283712 0.445096 0.711730 0.289766
O43   O     O_3   0.477936 0.960771 0.296516 -0.528236
C73   C     C_3   0.432304 0.824269 0.249567 -0.174984
H55   H     H_    0.447935 0.676644 0.269773 0.063188
H56   H     H_    0.422871 0.840491 0.175247 0.148864
H57   H     H_    0.385586 0.849277 0.263387 0.158482
O44   O     O_3   0.528861 0.426086 0.706332 -0.548499
C74   C     C_3   0.569243 0.272662 0.748285 -0.227616
H58   H     H_    0.549876 0.132460 0.720516 0.099637
H59   H     H_    0.577261 0.273847 0.822735 0.137748
H60   H     H_    0.617486 0.290184 0.738093 0.166083

loop_
_geom_bond_atom_site_label_1
_geom_bond_atom_site_label_2
_ccdc_geom_bond_type
O15   C59   A    
O42   H54   S    
C47   C49   A    
O11   V4    S    
O4    V2    S    
C65   H27   S    
C40   H8    S    
C13   C15   A    
C5    C15   A    
O41   H53   S    
C21   C60   S    
O22   H10   S    
O1    C3    A    
C66   H32   S    
C42   O40   S    
C2    O7    A    
C27   O25   S    
O23   H11   S    
O17   V3    S    
O33   C67   S    
C31   C33   A    
C18   O36   S    
O43   C73   S    
O5    C3    A    
O25   H13   S    
C24   C54   A    
C48   C52   A    
C10   H2    S    
C29   H5    S    
O40   C72   S    
C7    C9    A    
C18   O34   S    
C68   H37   S    
C45   O21   S    
C70   H45   S    
C61   H15   S    
O29   C63   S    
C33   C41   A    
C63   H21   S    
C44   C46   A    
C29   C31   A    
C45   C47   A    
C51   O29   S    
O28   C62   S    
C64   H26   S    
C46   C48   A    
C36   C44   A    
C19   H3    S    
C73   H55   S    
C50   C56   A    
O36   H40   S    
C40   C42   A    
C69   H43   S    
C17   C19   S    
C6    C16   A    
O19   V3    S    
C37   C49   A    
C20   H4    S    
C57   O18   A    
C12   O32   S    
C11   O31   S    
C74   H60   S    
C39   H7    S    
C32   C34   A    
C41   O39   S    
O2    C4    A    
C72   H51   S    
C46   O22   S    
C70   H46   S    
C25   C27   A    
C5    C19   S    
C67   H35   S    
C25   C33   A    
C28   O26   S    
C36   C38   A    
O35   H39   S    
C70   H44   S    
C38   C40   A    
C37   C39   A    
C30   C32   A    
C3    C8    S    
C43   C45   A    
C64   H24   S    
C34   C42   A    
C56   O42   S    
O44   C74   S    
O34   C68   S    
C17   O33   S    
C68   H38   S    
O13   C57   A    
C54   O44   S    
C31   C35   A    
C65   H29   S    
C66   H31   S    
C49   C55   A    
C26   O24   S    
C53   O43   S    
C51   C53   A    
C18   C20   S    
O14   V4    S    
C71   H49   S    
C47   C51   A    
C22   C28   A    
C69   H42   S    
O20   V4    S    
O39   C71   S    
C32   C36   A    
O6    C4    A    
C55   O41   S    
C23   C53   A    
C62   H19   S    
O1    V2    S    
C43   O27   S    
O19   V4    S    
O2    V1    S    
C6    C20   S    
C73   H57   S    
C48   C50   A    
O38   C70   S    
C26   C34   A    
C67   H34   S    
C8    C10   A    
C20   O38   S    
C9    H1    S    
O31   C65   S    
C25   O23   S    
C21   C27   A    
C1    C24   S    
O4    C2    A    
C35   C43   A    
C21   C29   A    
C66   H30   S    
O18   V4    S    
C30   H6    S    
C64   H25   S    
O3    V1    S    
O30   C64   S    
O27   C61   S    
O12   C60   A    
C9    C11   A    
C65   H28   S    
C24   C56   A    
C62   H18   S    
C14   C57   S    
O10   V1    S    
O13   V3    S    
C13   C58   S    
O16   C60   A    
C67   H33   S    
O3    C1    A    
C63   H23   S    
C38   C50   A    
O12   V3    S    
C72   H52   S    
C58   O17   A    
O15   V3    S    
O21   H9    S    
C12   C14   A    
C69   H41   S    
O24   H12   S    
C22   C59   S    
C71   H47   S    
C39   C41   A    
O32   C66   S    
O7    V1    S    
C26   C28   A    
C14   C16   A    
C15   C17   S    
C19   O37   S    
O37   C69   S    
C52   O30   S    
C16   C18   S    
O20   V3    S    
C61   H16   S    
C4    C7    S    
O5    V1    S    
C5    C7    A    
O14   C58   A    
C63   H22   S    
C62   H20   S    
C6    C8    A    
C73   H56   S    
C22   C30   A    
C44   O28   S    
C74   H58   S    
C17   O35   S    
C72   H50   S    
C1    O8    A    
O11   C59   A    
O6    V2    S    
C10   C12   A    
O9    V2    S    
O26   H14   S    
C52   C54   A    
C23   C55   A    
C2    C23   S    
O8    V2    S    
O16   V4    S    
C35   C37   A    
C68   H36   S    
C61   H17   S    
C71   H48   S    
C74   H59   S    
C11   C13   A    
