data_mof_unit_10889.cif
_audit_creation_date              2013-03-05T16:03:26-0500
_audit_creation_method            fapswitch 2.2
_symmetry_space_group_name_H-M    P1
_symmetry_Int_Tables_number       1
_space_group_crystal_system       triclinic
_cell_length_a                    13.998751
_cell_length_b                    14.978854
_cell_length_c                    16.520436
_cell_angle_alpha                 89.438347
_cell_angle_beta                  84.352858
_cell_angle_gamma                 89.467763
_cell_volume                      3446.99343912

loop_
_atom_site_label
_atom_site_type_symbol
_atom_site_description
_atom_site_fract_x
_atom_site_fract_y
_atom_site_fract_z
_atom_type_partial_charge
O1    O     O_R   0.419720 0.632140 0.499990 -0.604950
O2    O     O_R   0.580280 0.367860 0.500010 -0.607514
O3    O     O_R   0.580270 0.632160 0.499980 -0.632077
O4    O     O_R   0.419730 0.367840 0.500020 -0.641707
C1    C     C_R   0.499555 0.673470 0.499916 0.911053
C2    C     C_R   0.500438 0.326607 0.499718 0.883921
O5    O     O_R   0.410240 0.500000 0.615800 -0.590387
O6    O     O_R   0.589760 0.500000 0.384200 -0.568297
O7    O     O_R   0.570790 0.500020 0.615800 -0.635070
O8    O     O_R   0.429210 0.499980 0.384200 -0.634274
C3    C     C_R   0.485821 0.498172 0.653882 0.975445
C4    C     C_R   0.513950 0.497578 0.345919 0.913256
Zn1   Zn    Zn3+2 0.392800 0.499980 0.500010 0.968666
Zn2   Zn    Zn3+2 0.607200 0.500020 0.499990 0.986318
C5    C     C_R   0.473610 0.471973 0.739007 -0.208364
C6    C     C_R   0.521309 0.479319 0.258895 -0.225975
C7    C     C_R   0.523085 0.395058 0.760919 -0.391034
C8    C     C_R   0.444438 0.507106 0.216497 -0.350227
C9    C     C_R   0.504564 0.356974 0.838633 0.532153
C10   C     C_R   0.431557 0.472302 0.140011 0.559452
C11   C     C_R   0.432970 0.395718 0.892884 0.005016
C12   C     C_R   0.503318 0.414806 0.102847 -0.000798
C13   C     C_R   0.379942 0.469663 0.869751 -0.274431
C14   C     C_R   0.582639 0.390520 0.143606 -0.303979
C15   C     C_R   0.400196 0.509398 0.793243 0.298897
C16   C     C_R   0.591846 0.420931 0.221794 0.326641
C17   C     C_2   0.427723 0.374403 0.979525 -0.074644
C18   C     C_2   0.506178 0.389502 0.017211 -0.132956
H1    H     H_    0.573448 0.363090 0.716120 0.160064
H2    H     H_    0.393460 0.554814 0.244699 0.162659
H3    H     H_    0.575535 0.395361 0.981622 0.147442
H4    H     H_    0.357690 0.368756 0.013245 0.169433
H5    H     H_    0.327044 0.500048 0.913635 0.213610
H6    H     H_    0.638051 0.347422 0.114254 0.187827
C19   C     C_R   0.576036 0.184360 0.530472 -0.203186
C20   C     C_R   0.421454 0.815895 0.473068 -0.196606
C21   C     C_R   0.500989 0.231006 0.499292 -0.067115
C22   C     C_R   0.498441 0.769200 0.501249 -0.068605
C23   C     C_R   0.425431 0.186713 0.468419 -0.221526
C24   C     C_R   0.574685 0.813586 0.530906 -0.213769
C25   C     C_R   0.422602 0.094233 0.470163 0.022665
C26   C     C_R   0.574375 0.906068 0.534041 0.005068
C27   C     C_R   0.497825 0.046614 0.502957 0.002171
C28   C     C_R   0.497285 0.953700 0.504096 0.004057
C29   C     C_R   0.575128 0.092020 0.532421 0.073457
C30   C     C_R   0.420867 0.908291 0.473262 0.077925
C31   C     C_R   0.346777 0.048625 0.439144 0.460599
C32   C     C_R   0.650191 0.951855 0.565173 0.487740
C33   C     C_R   0.346557 0.955595 0.440938 -0.299812
C34   C     C_R   0.650699 0.044771 0.562707 -0.298211
H7    H     H_    0.634346 0.219950 0.554114 0.150078
H8    H     H_    0.363258 0.780332 0.449254 0.152004
H9    H     H_    0.369047 0.224748 0.443051 0.189308
H10   H     H_    0.633645 0.775595 0.552262 0.187828
H11   H     H_    0.289540 0.920490 0.415069 0.166211
H12   H     H_    0.710613 0.079895 0.584064 0.162478
C35   C     C_R   0.195648 0.456315 0.560735 -0.009784
C36   C     C_R   0.804614 0.544003 0.439491 0.045293
N1    N     N_R   0.249970 0.499930 0.499970 -0.107538
N2    N     N_R   0.750030 0.500070 0.500030 -0.111281
C37   C     C_R   0.208490 0.543385 0.439319 -0.020203
C38   C     C_R   0.791662 0.456053 0.560393 -0.019531
C39   C     C_R   0.108199 0.543641 0.437576 -0.027970
C40   C     C_R   0.892170 0.454746 0.561566 -0.024167
C41   C     C_R   0.050878 0.497982 0.499133 0.028702
C42   C     C_R   0.949678 0.498369 0.498879 0.017962
C43   C     C_R   0.094690 0.453707 0.561883 -0.091886
C44   C     C_R   0.905825 0.543934 0.436922 -0.087685
C45   C     C_R   0.064374 0.589228 0.376299 -0.308020
C46   C     C_R   0.935950 0.412098 0.624505 -0.293197
C47   C     C_R   0.964054 0.588548 0.374727 0.495549
C48   C     C_R   0.036457 0.409561 0.624466 0.503964
H13   H     H_    0.231602 0.423626 0.608073 0.159464
H14   H     H_    0.768837 0.578884 0.393234 0.177948
H15   H     H_    0.253739 0.578013 0.392423 0.122597
H16   H     H_    0.746391 0.422027 0.607683 0.125305
H17   H     H_    0.108015 0.625952 0.329738 0.151760
H18   H     H_    0.892134 0.381462 0.674573 0.149842
O9    O     O_3   0.923017 0.637147 0.315332 -0.651973
C49   C     C_3   0.918117 0.584026 0.245425 0.109355
H19   H     H_    0.846157 0.595304 0.223992 0.199200
H20   H     H_    0.924714 0.510594 0.256737 0.157980
C50   C     C_3   0.994646 0.613290 0.178026 -0.387034
H21   H     H_    0.991236 0.686977 0.169992 0.252724
H22   H     H_    0.066931 0.594996 0.195392 0.204558
C51   C     C_3   0.980171 0.569119 0.097310 -0.912731
H23   H     H_    0.981538 0.495296 0.103810 0.263737
H24   H     H_    0.038620 0.589332 0.050573 0.274438
H25   H     H_    0.910346 0.590308 0.076409 0.272750
O10   O     O_3   0.075807 0.372214 0.690767 -0.632613
C52   C     C_3   0.108227 0.284164 0.672736 0.059527
H26   H     H_    0.166440 0.268762 0.711941 0.182276
H27   H     H_    0.140759 0.276412 0.608809 0.103162
C53   C     C_3   0.027069 0.217032 0.692511 -0.369142
H28   H     H_    0.993772 0.228120 0.755521 0.245436
H29   H     H_    0.971276 0.227043 0.649882 0.218979
C54   C     C_3   0.063828 0.120974 0.685363 -0.927197
H30   H     H_    0.096731 0.107968 0.622679 0.257005
H31   H     H_    0.003004 0.074443 0.699346 0.270106
H32   H     H_    0.117924 0.108056 0.729042 0.270592
N3    N     N_R   0.671053 0.389267 0.263070 0.217896
O11   O     O_R   0.736901 0.444821 0.279996 -0.442210
O12   O     O_R   0.688428 0.303945 0.267072 -0.386313
N4    N     N_R   0.347773 0.588263 0.772554 0.218917
O13   O     O_R   0.388692 0.649414 0.724884 -0.404895
O14   O     O_R   0.261955 0.603584 0.807751 -0.373413
O15   O     O_3   0.354655 0.499036 0.097775 -0.658388
C55   C     C_3   0.264585 0.492882 0.145473 0.057350
H33   H     H_    0.208566 0.512225 0.105297 0.184761
H34   H     H_    0.257634 0.542295 0.195348 0.130642
C56   C     C_3   0.241721 0.397703 0.177840 -0.392502
H35   H     H_    0.241907 0.351008 0.126060 0.224656
H36   H     H_    0.296489 0.374452 0.217734 0.228122
C57   C     C_3   0.143800 0.394348 0.227231 -0.922567
H37   H     H_    0.142376 0.439224 0.280386 0.263480
H38   H     H_    0.129462 0.325195 0.249692 0.269729
H39   H     H_    0.086387 0.414703 0.188979 0.267827
O16   O     O_3   0.547653 0.277886 0.861882 -0.641722
C58   C     C_3   0.647756 0.274659 0.838845 0.075643
H40   H     H_    0.683534 0.256403 0.893884 0.168217
H41   H     H_    0.679624 0.339595 0.817015 0.120966
C59   C     C_3   0.669865 0.201609 0.775535 -0.328915
H42   H     H_    0.643470 0.136863 0.801910 0.238062
H43   H     H_    0.631972 0.216074 0.720824 0.210131
C60   C     C_3   0.777270 0.194125 0.750281 -1.006388
H44   H     H_    0.804683 0.258813 0.725071 0.258298
H45   H     H_    0.791235 0.142770 0.702598 0.263754
H46   H     H_    0.816208 0.174931 0.803342 0.277465
O17   O     O_3   0.280065 0.093889 0.397391 -0.635911
C61   C     C_3   0.196921 0.110797 0.450661 0.044327
H47   H     H_    0.214307 0.153140 0.502258 0.129108
H48   H     H_    0.164430 0.047060 0.474834 0.148522
C62   C     C_3   0.124052 0.160562 0.403284 -0.298734
H49   H     H_    0.156868 0.222877 0.376610 0.225889
H50   H     H_    0.104885 0.117878 0.352719 0.237300
C63   C     C_3   0.032818 0.184643 0.457179 -0.949112
H51   H     H_    0.000809 0.124133 0.487922 0.275050
H52   H     H_    0.979655 0.215140 0.419350 0.281256
H53   H     H_    0.048938 0.233921 0.503452 0.256555
O18   O     O_3   0.728577 0.906770 0.591213 -0.640157
C64   C     C_3   0.707397 0.877606 0.672759 0.068085
H54   H     H_    0.751195 0.816637 0.681359 0.181293
H55   H     H_    0.630844 0.858096 0.687685 0.135947
C65   C     C_3   0.734799 0.949001 0.731706 -0.374942
H56   H     H_    0.810568 0.969100 0.715532 0.240085
H57   H     H_    0.687714 0.008213 0.726496 0.216814
C66   C     C_3   0.723028 0.915388 0.819530 -0.903849
H58   H     H_    0.647390 0.895998 0.837204 0.270581
H59   H     H_    0.742377 0.969263 0.860487 0.268823
H60   H     H_    0.770893 0.856951 0.827023 0.268282

loop_
_geom_bond_atom_site_label_1
_geom_bond_atom_site_label_2
_geom_bond_distance
_ccdc_geom_bond_type
C42   C44   1.411562 A    
C39   C41   1.407755 A    
N3    O11   1.299946 A    
C46   H18   1.081153 S    
C7    H1    1.082628 S    
C45   H17   1.083046 S    
C56   H35   1.110060 S    
O7    Zn2   1.930888 S    
C47   O9    1.382726 S    
C54   H30   1.109470 S    
C23   C25   1.386116 A    
C37   H15   1.082656 S    
O5    C3    1.283012 A    
C30   C33   1.399122 A    
C31   O17   1.383279 S    
O1    C1    1.282509 A    
C9    C11   1.402548 A    
C14   C16   1.392120 A    
C64   H55   1.116703 S    
C16   N3    1.432505 S    
C51   H24   1.110391 S    
C5    C15   1.411090 A    
C52   H27   1.114907 S    
C36   N2    1.364992 A    
C55   H33   1.110804 S    
N2    C38   1.364976 A    
C43   C48   1.414736 A    
C35   H13   1.081683 S    
O4    Zn1   2.011444 S    
C45   C47   1.407271 A    
O16   C58   1.415985 S    
C38   C40   1.408976 A    
C66   H58   1.110827 S    
C3    C5    1.450520 S    
C4    C6    1.459582 S    
C9    O16   1.392172 S    
C41   C43   1.412344 A    
C62   C63   1.525756 S    
O15   C55   1.422827 S    
C20   C30   1.383964 A    
C8    H2    1.081037 S    
C40   C46   1.403557 A    
C20   H8    1.085125 S    
C10   O15   1.393004 S    
C24   C26   1.386711 A    
C60   H44   1.107761 S    
C11   C17   1.458386 S    
N3    O12   1.301001 A    
C12   C18   1.464876 S    
C1    C22   1.434227 S    
C25   C27   1.414884 A    
C38   H16   1.082828 S    
O2    C2    1.282587 A    
C26   C28   1.414983 A    
C35   C43   1.412448 A    
C65   C66   1.525091 S    
N4    O14   1.301545 A    
N4    O13   1.301598 A    
C54   H31   1.110531 S    
C28   C30   1.412112 A    
C57   H37   1.109610 S    
C58   H41   1.115656 S    
C6    C16   1.411005 A    
C21   C23   1.394601 A    
N1    C37   1.363637 A    
C32   O18   1.385151 S    
C39   C45   1.402962 A    
C66   H60   1.110761 S    
O18   C64   1.416286 S    
C65   H57   1.107838 S    
C64   C65   1.529932 S    
C52   H26   1.110969 S    
C51   H23   1.110107 S    
C49   H19   1.111092 S    
C53   C54   1.525322 S    
C13   H5    1.084274 S    
C33   H11   1.084241 S    
O8    Zn1   1.930888 S    
C34   H12   1.083888 S    
C40   C42   1.407115 A    
C61   H48   1.114743 S    
C27   C28   1.391772 A    
C60   H45   1.108714 S    
C60   H46   1.111034 S    
C48   O10   1.384600 S    
C50   H21   1.111546 S    
O6    C4    1.288706 A    
C37   C39   1.407045 A    
C25   C31   1.408327 A    
C2    C21   1.432027 S    
C56   H36   1.110617 S    
C26   C32   1.410393 A    
C53   H29   1.110165 S    
O7    C3    1.290109 A    
O3    Zn2   2.011446 S    
O8    C4    1.288583 A    
C49   H20   1.118389 S    
C50   H22   1.109848 S    
C10   C12   1.414461 A    
C24   H10   1.083602 S    
C11   C13   1.398628 A    
C19   H7    1.085331 S    
C62   H49   1.111995 S    
C12   C14   1.397703 A    
O4    C2    1.282166 A    
O1    Zn1   2.018583 S    
C59   H43   1.110706 S    
C19   C29   1.383352 A    
C54   H32   1.110713 S    
Zn2   N2    1.999515 S    
C36   H14   1.081878 S    
C63   H52   1.110292 S    
C49   C50   1.531036 S    
O17   C61   1.410888 S    
C58   C59   1.529523 S    
C36   C44   1.413275 A    
C5    C7    1.401576 A    
O6    Zn2   1.952107 S    
C19   C21   1.393926 A    
C17   H4    1.082465 S    
C18   H3    1.088242 S    
C65   H56   1.111598 S    
O3    C1    1.283284 A    
C51   H25   1.110800 S    
C57   H38   1.110214 S    
C58   H40   1.111115 S    
C15   N4    1.440900 S    
Zn1   N1    1.999515 S    
C31   C33   1.393532 A    
C66   H59   1.110512 S    
C55   C56   1.542966 S    
C59   C60   1.523673 S    
C20   C22   1.394920 A    
C61   H47   1.114629 S    
C27   C29   1.412208 A    
C64   H54   1.110986 S    
C63   H53   1.108253 S    
C52   C53   1.533083 S    
C22   C24   1.394168 A    
O10   C52   1.415674 S    
C23   H9    1.084109 S    
C29   C34   1.397758 A    
C44   C47   1.413707 A    
C32   C34   1.392036 A    
C7    C9    1.401368 A    
C55   H34   1.109509 S    
C56   C57   1.525683 S    
C8    C10   1.400156 A    
C13   C15   1.396429 A    
C53   H28   1.111270 S    
O2    Zn2   2.018583 S    
C14   H6    1.084621 S    
C57   H39   1.109007 S    
C35   N1    1.363433 A    
O9    C49   1.416416 S    
C61   C62   1.529830 S    
O5    Zn1   1.952107 S    
C50   C51   1.526406 S    
C6    C8    1.398613 A    
C41   C42   1.417055 A    
C17   C18   1.336748 D    
C62   H50   1.111918 S    
C63   H51   1.110848 S    
C46   C48   1.407083 A    
C59   H42   1.110692 S    
