data_mof_unit_12811.cif
_audit_creation_date              2012-12-11T16:52:09-0500
_audit_creation_method            fapswitch 2.2
_symmetry_space_group_name_H-M    P1
_symmetry_Int_Tables_number       1
_space_group_crystal_system       triclinic
_cell_length_a                    7.20395
_cell_length_b                    26.063492
_cell_length_c                    28.782632
_cell_angle_alpha                 89.999871
_cell_angle_beta                  90.00057
_cell_angle_gamma                 89.999554
_cell_volume                      5404.22966623

loop_
_atom_site_label
_atom_site_type_symbol
_atom_type_description
_atom_site_fract_x
_atom_site_fract_y
_atom_site_fract_z
_atom_type_partial_charge
O1    O     O_R   0.601030 0.796770 0.202460 -0.536761
O2    O     O_R   0.398970 0.203230 0.797540 -0.536761
O3    O     O_R   0.398970 0.203230 0.702460 -0.536762
O4    O     O_R   0.601030 0.796770 0.297540 -0.536757
O5    O     O_R   0.101030 0.703230 0.297540 -0.536759
O6    O     O_R   0.898970 0.296770 0.702460 -0.536758
O7    O     O_R   0.898970 0.296770 0.797540 -0.536759
O8    O     O_R   0.101030 0.703230 0.202460 -0.536756
O9    O     O_R   0.271290 0.802910 0.297210 -0.541146
O10   O     O_R   0.728710 0.197090 0.702790 -0.541143
O11   O     O_R   0.728710 0.197090 0.797210 -0.541144
O12   O     O_R   0.271290 0.802910 0.202790 -0.541144
O13   O     O_R   0.771290 0.697090 0.202790 -0.541147
O14   O     O_R   0.228710 0.302910 0.797210 -0.541144
O15   O     O_R   0.228710 0.302910 0.702790 -0.541143
O16   O     O_R   0.771290 0.697090 0.297210 -0.541143
C1    C     C_R   0.440114 0.815099 0.312811 0.696067
C2    C     C_R   0.559886 0.184902 0.687188 0.696063
C3    C     C_R   0.559887 0.184900 0.812811 0.696068
C4    C     C_R   0.440113 0.815100 0.187189 0.696066
C5    C     C_R   0.940113 0.684901 0.187189 0.696069
C6    C     C_R   0.059886 0.315097 0.812813 0.696072
C7    C     C_R   0.059885 0.315099 0.687189 0.696067
C8    C     C_R   0.940115 0.684901 0.312811 0.696064
O17   O     O_3   0.434520 0.717290 0.250000 -0.374875
O18   O     O_3   0.565480 0.282710 0.750000 -0.374874
O19   O     O_3   0.934520 0.782710 0.250000 -0.374876
O20   O     O_3   0.065480 0.217290 0.750000 -0.374878
V1    V     V_3+5 0.159680 0.756060 0.250000 1.388077
V2    V     V_3+5 0.840320 0.243940 0.750000 1.388080
V3    V     V_3+5 0.659680 0.743940 0.250000 1.388075
V4    V     V_3+5 0.340320 0.256060 0.750000 1.388077
C9    C     C_R   0.881489 0.358784 0.623419 -0.226980
C10   C     C_R   0.118512 0.641223 0.376585 -0.226990
C11   C     C_R   0.118498 0.641211 0.123421 -0.226990
C12   C     C_R   0.881477 0.358766 0.876586 -0.227040
C13   C     C_R   0.381478 0.141209 0.876573 -0.226980
C14   C     C_R   0.618521 0.858791 0.123427 -0.226996
C15   C     C_R   0.618500 0.858786 0.376581 -0.226978
C16   C     C_R   0.381476 0.141227 0.623417 -0.226983
H1    H     H_    0.762041 0.335343 0.631933 0.128131
H2    H     H_    0.237960 0.664663 0.368070 0.128141
H3    H     H_    0.237953 0.664648 0.131935 0.128102
H4    H     H_    0.762038 0.335326 0.868062 0.128137
H5    H     H_    0.262019 0.164643 0.868053 0.128150
H6    H     H_    0.737980 0.835357 0.131948 0.128147
H7    H     H_    0.737948 0.835344 0.368070 0.128114
H8    H     H_    0.262021 0.164662 0.631939 0.128147
C17   C     C_R   0.867442 0.393499 0.586182 0.306065
C18   C     C_R   0.132556 0.606513 0.413826 0.306034
C19   C     C_R   0.132533 0.606494 0.086185 0.306096
C20   C     C_R   0.867405 0.393469 0.913831 0.306078
C21   C     C_R   0.367430 0.106496 0.913811 0.306042
C22   C     C_R   0.632568 0.893504 0.086189 0.306042
C23   C     C_R   0.632543 0.893505 0.413815 0.306096
C24   C     C_R   0.367424 0.106523 0.586172 0.306034
C25   C     C_R   0.021422 0.424613 0.574328 0.062290
C26   C     C_R   0.978576 0.575402 0.425684 0.062285
C27   C     C_R   0.978541 0.575384 0.074331 0.062274
C28   C     C_R   0.021379 0.424581 0.925698 0.062403
C29   C     C_R   0.521421 0.075392 0.925676 0.062302
C30   C     C_R   0.478577 0.924608 0.074324 0.062307
C31   C     C_R   0.478562 0.924624 0.425663 0.062283
C32   C     C_R   0.521408 0.075418 0.574303 0.062302
C33   C     C_R   0.187771 0.418667 0.599355 -0.215638
C34   C     C_R   0.812227 0.581342 0.400655 -0.215642
C35   C     C_R   0.812192 0.581336 0.099355 -0.215642
C36   C     C_R   0.187744 0.418640 0.900675 -0.215637
C37   C     C_R   0.687782 0.081342 0.900656 -0.215647
C38   C     C_R   0.312215 0.918658 0.099344 -0.215644
C39   C     C_R   0.312215 0.918674 0.400636 -0.215634
C40   C     C_R   0.687768 0.081360 0.599326 -0.215638
H9    H     H_    0.307069 0.442260 0.591126 0.133619
H10   H     H_    0.692929 0.557750 0.408886 0.133598
H11   H     H_    0.692884 0.557747 0.091127 0.133637
H12   H     H_    0.307044 0.442229 0.908914 0.133663
H13   H     H_    0.807086 0.057754 0.908891 0.133600
H14   H     H_    0.192909 0.942245 0.091108 0.133608
H15   H     H_    0.192914 0.942268 0.408861 0.133636
H16   H     H_    0.807069 0.057771 0.591089 0.133596
C41   C     C_R   0.201469 0.383137 0.635720 -0.176244
C42   C     C_R   0.798531 0.616866 0.364285 -0.176234
C43   C     C_R   0.798508 0.616867 0.135720 -0.176255
C44   C     C_R   0.201460 0.383122 0.864301 -0.176267
C45   C     C_R   0.701481 0.116869 0.864288 -0.176232
C46   C     C_R   0.298516 0.883131 0.135712 -0.176234
C47   C     C_R   0.298523 0.883140 0.364274 -0.176252
C48   C     C_R   0.701472 0.116879 0.635701 -0.176237
H17   H     H_    0.331814 0.379812 0.654219 0.131112
H18   H     H_    0.668185 0.620189 0.345785 0.131105
H19   H     H_    0.668164 0.620196 0.154217 0.131117
H20   H     H_    0.331814 0.379800 0.845807 0.131110
H21   H     H_    0.831835 0.120198 0.845795 0.131095
H22   H     H_    0.168161 0.879801 0.154204 0.131098
H23   H     H_    0.168181 0.879814 0.345775 0.131120
H24   H     H_    0.831826 0.120202 0.654196 0.131097
C49   C     C_R   0.048023 0.352985 0.648473 -0.077499
C50   C     C_R   0.951977 0.647018 0.351530 -0.077495
C51   C     C_R   0.951965 0.647015 0.148473 -0.077493
C52   C     C_R   0.048019 0.352975 0.851536 -0.077485
C53   C     C_R   0.548026 0.147015 0.851527 -0.077496
C54   C     C_R   0.451973 0.852985 0.148473 -0.077496
C55   C     C_R   0.451970 0.852986 0.351526 -0.077498
C56   C     C_R   0.548021 0.147024 0.648466 -0.077498
C57   C     C_R   0.149187 0.465761 0.502056 -0.194947
C58   C     C_R   0.850816 0.534259 0.497961 -0.194945
C59   C     C_R   0.850736 0.534218 0.002068 -0.194995
C60   C     C_R   0.149157 0.465738 0.997966 -0.194957
C61   C     C_R   0.649170 0.034253 0.997956 -0.194927
C62   C     C_R   0.350826 0.965748 0.002044 -0.194931
C63   C     C_R   0.350762 0.965789 0.497924 -0.194970
C64   C     C_R   0.649173 0.034271 0.502027 -0.194948
H25   H     H_    0.264624 0.439148 0.502770 0.123337
H26   H     H_    0.735377 0.560872 0.497247 0.123337
H27   H     H_    0.735277 0.560824 0.002785 0.123331
H28   H     H_    0.264617 0.439133 0.997250 0.123405
H29   H     H_    0.764599 0.060868 0.997244 0.123334
H30   H     H_    0.235398 0.939133 0.002756 0.123335
H31   H     H_    0.235310 0.939181 0.497208 0.123328
H32   H     H_    0.764631 0.060877 0.502745 0.123339
C65   C     C_R   0.138063 0.501633 0.465941 -0.099013
C66   C     C_R   0.861941 0.498387 0.534077 -0.099017
C67   C     C_R   0.861858 0.498344 0.965955 -0.099164
C68   C     C_R   0.138033 0.501612 0.034080 -0.099037
C69   C     C_R   0.638046 0.998382 0.034072 -0.099040
C70   C     C_R   0.361950 0.001619 0.965928 -0.099034
C71   C     C_R   0.361889 0.001659 0.534039 -0.099037
C72   C     C_R   0.638046 0.998399 0.465911 -0.099010
H33   H     H_    0.245167 0.501851 0.439546 0.130314
H34   H     H_    0.754834 0.498165 0.560469 0.130341
H35   H     H_    0.754728 0.498114 0.939566 0.130406
H36   H     H_    0.245160 0.501840 0.060469 0.130395
H37   H     H_    0.745142 0.998165 0.060469 0.130343
H38   H     H_    0.254856 0.001835 0.939531 0.130336
H39   H     H_    0.254772 0.001883 0.560431 0.130348
H40   H     H_    0.745171 0.998171 0.439522 0.130372
C73   C     C_R   0.989243 0.536486 0.463610 0.097695
C74   C     C_R   0.010761 0.463534 0.536408 0.097663
C75   C     C_R   0.010705 0.463500 0.963620 0.097552
C76   C     C_R   0.989192 0.536458 0.036414 0.097617
C77   C     C_R   0.489241 0.963525 0.036400 0.097665
C78   C     C_R   0.510755 0.036476 0.963601 0.097676
C79   C     C_R   0.510730 0.036505 0.536375 0.097675
C80   C     C_R   0.489210 0.963552 0.463577 0.097637
N1    N     N_2   0.698427 0.396307 0.560637 -0.540767
H41   H     H_    0.582744 0.386646 0.579830 0.250324
C81   C     C_3   0.702161 0.369966 0.516417 -0.552794
H42   H     H_    0.568261 0.376092 0.498130 0.193711
H43   H     H_    0.722441 0.328121 0.521843 0.190180
H44   H     H_    0.815211 0.385036 0.494046 0.212344
N2    N     N_2   0.301565 0.603711 0.439374 -0.540741
H45   H     H_    0.417263 0.613348 0.420173 0.250288
C82   C     C_3   0.297835 0.630093 0.483580 -0.552561
H46   H     H_    0.431773 0.623990 0.501861 0.193684
H47   H     H_    0.184803 0.615028 0.505974 0.212276
H48   H     H_    0.277490 0.671942 0.478123 0.190128
N3    N     N_2   0.301556 0.603675 0.060645 -0.540721
H49   H     H_    0.417247 0.613380 0.079834 0.250225
C83   C     C_3   0.297761 0.629964 0.016383 -0.552253
H50   H     H_    0.431593 0.623759 0.998083 0.193678
H51   H     H_    0.277691 0.671846 0.021769 0.190010
H52   H     H_    0.184515 0.614904 0.994036 0.212174
N4    N     N_2   0.698364 0.396257 0.939369 -0.540740
H53   H     H_    0.582723 0.386544 0.920178 0.250339
C84   C     C_3   0.702177 0.369966 0.983620 -0.553022
H54   H     H_    0.567915 0.375840 0.001790 0.193612
H55   H     H_    0.814484 0.385289 0.006070 0.212491
H56   H     H_    0.723626 0.328162 0.978256 0.190282
N5    N     N_2   0.198401 0.103681 0.939347 -0.540751
H57   H     H_    0.082712 0.113310 0.920138 0.250287
C85   C     C_3   0.202058 0.130061 0.983554 -0.552631
H58   H     H_    0.068091 0.123968 0.001819 0.193673
H59   H     H_    0.222436 0.171906 0.978104 0.190152
H60   H     H_    0.315026 0.114987 0.005958 0.212312
N6    N     N_2   0.801597 0.896317 0.060652 -0.540742
H61   H     H_    0.917283 0.886679 0.079859 0.250284
C86   C     C_3   0.797921 0.869947 0.016440 -0.552635
H62   H     H_    0.931910 0.876027 0.998181 0.193666
H63   H     H_    0.684994 0.885041 0.994034 0.212313
H64   H     H_    0.777466 0.828102 0.021882 0.190148
N7    N     N_2   0.801570 0.896323 0.439355 -0.540795
H65   H     H_    0.917239 0.886632 0.420170 0.250336
C87   C     C_3   0.797845 0.870031 0.483599 -0.552793
H66   H     H_    0.931706 0.876208 0.501892 0.193724
H67   H     H_    0.777701 0.828174 0.478206 0.190166
H68   H     H_    0.684707 0.885092 0.505947 0.212337
N8    N     N_2   0.198397 0.103719 0.560632 -0.540761
H69   H     H_    0.082709 0.113353 0.579840 0.250288
C88   C     C_3   0.202084 0.130100 0.516426 -0.552619
H70   H     H_    0.068113 0.124015 0.498157 0.193674
H71   H     H_    0.315047 0.115020 0.494023 0.212307
H72   H     H_    0.222495 0.171945 0.521877 0.190149

loop_
_geom_bond_atom_site_label_1
_geom_bond_atom_site_label_2
_ccdc_geom_bond_type
O17   V3    S    
C13   C53   A    
C85   H58   S    
C48   H24   S    
O18   V4    S    
N3    H49   S    
O12   V1    S    
O19   V1    S    
N5    C85   S    
N5    H57   S    
C37   H13   S    
C81   H42   S    
C10   H2    S    
C59   C67   A    
C32   C40   A    
C62   H30   S    
C39   H15   S    
N1    H41   S    
C35   H11   S    
C61   H29   S    
O15   V4    S    
N6    C86   S    
N7    H65   S    
O16   V3    S    
C35   C43   A    
C85   H59   S    
O11   C3    A    
C84   H54   S    
C58   H26   S    
C8    C50   S    
O8    V1    S    
C64   C79   A    
C57   H25   S    
N4    C84   S    
C71   H39   S    
C87   H67   S    
C83   H50   S    
C5    C51   S    
N8    C88   S    
C38   H14   S    
C9    C17   A    
C34   H10   S    
C67   C75   A    
O1    V3    S    
C33   H9    S    
C30   C38   A    
O3    C2    A    
C63   H31   S    
C65   C73   A    
C59   C76   A    
C88   H71   S    
C20   C28   A    
C27   C35   A    
C57   C74   A    
C7    C49   S    
C21   C29   A    
C18   N2    S    
C26   C34   A    
C15   C23   A    
N4    H53   S    
O11   V2    S    
C69   C77   A    
C16   C24   A    
C23   C31   A    
N2    H45   S    
C83   H51   S    
C61   C78   A    
C82   H47   S    
C11   H3    S    
C12   C20   A    
O9    V1    S    
C14   C54   A    
C41   H17   S    
O15   C7    A    
N3    C83   S    
O7    V2    S    
C43   C51   A    
C13   C21   A    
C42   C50   A    
O12   C4    A    
C84   H55   S    
O3    V4    S    
C45   H21   S    
C60   C68   A    
C11   C51   A    
C70   H38   S    
C40   C48   A    
C68   H36   S    
C68   C76   A    
O5    V1    S    
N7    C87   S    
C46   H22   S    
C85   H60   S    
C10   C18   A    
C6    C52   S    
N1    C81   S    
C57   C65   A    
C36   C44   A    
C81   H44   S    
C66   C74   A    
C87   H68   S    
C65   H33   S    
C64   H32   S    
C58   C73   A    
C2    C56   S    
C22   C30   A    
C86   H63   S    
C67   H35   S    
C70   C78   A    
C47   H23   S    
C44   C52   A    
C22   N6    S    
C88   H72   S    
C87   H66   S    
C37   C45   A    
C16   C56   A    
O10   V2    S    
C33   C41   A    
N6    H61   S    
C14   C22   A    
C24   N8    S    
C31   C80   S    
C86   H64   S    
C25   C33   A    
C58   C66   A    
C24   C32   A    
O8    C5    A    
C23   N7    S    
C83   H52   S    
C17   N1    S    
C12   C52   A    
C71   C79   A    
O9    C1    A    
C82   H48   S    
O2    V4    S    
C72   C80   A    
C59   H27   S    
C63   C80   A    
C62   C70   A    
C47   C55   A    
O4    C1    A    
C26   C73   S    
C61   C69   A    
C18   C26   A    
O6    V2    S    
C31   C39   A    
C84   H56   S    
C11   C19   A    
C39   C47   A    
C12   H4    S    
C19   C27   A    
C30   C77   S    
C13   H5    S    
C46   C54   A    
C45   C53   A    
C15   H7    S    
C69   H37   S    
C16   H8    S    
O1    C4    A    
C81   H43   S    
O2    C3    A    
O13   V3    S    
O14   V4    S    
C17   C25   A    
C15   C55   A    
C32   C79   S    
C21   N5    S    
C36   H12   S    
O7    C6    A    
C43   H19   S    
C42   H18   S    
C62   C77   A    
C29   C37   A    
O14   C6    A    
C60   C75   A    
C72   H40   S    
C1    C55   S    
C9    H1    S    
N8    H69   S    
C40   H16   S    
O13   C5    A    
C14   H6    S    
C63   C71   A    
C3    C53   S    
C60   H28   S    
O5    C8    A    
C41   C49   A    
C27   C76   S    
O10   C2    A    
O6    C7    A    
O20   V2    S    
C10   C50   A    
C19   N3    S    
C25   C74   S    
C9    C49   A    
N2    C82   S    
C88   H70   S    
C64   C72   A    
O4    V3    S    
C28   C75   S    
C29   C78   S    
C4    C54   S    
C28   C36   A    
O16   C8    A    
C86   H62   S    
C44   H20   S    
C20   N4    S    
C48   C56   A    
C66   H34   S    
C34   C42   A    
C82   H46   S    
C38   C46   A    
