data_mof_unit_7394.cif
_audit_creation_date              2013-03-05T15:54:21-0500
_audit_creation_method            fapswitch 2.2
_symmetry_space_group_name_H-M    P1
_symmetry_Int_Tables_number       1
_space_group_crystal_system       triclinic
_cell_length_a                    13.546001
_cell_length_b                    13.559697
_cell_length_c                    28.444669
_cell_angle_alpha                 90.384444
_cell_angle_beta                  90.30512
_cell_angle_gamma                 60.182319
_cell_volume                      4532.90513668

loop_
_atom_site_label
_atom_site_type_symbol
_atom_site_description
_atom_site_fract_x
_atom_site_fract_y
_atom_site_fract_z
_atom_type_partial_charge
O1    O     O_R   0.503010 0.303330 0.550820 -0.527688
O2    O     O_R   0.320040 0.522690 0.547470 -0.526741
C1    C     C_R   0.279810 0.620507 0.566581 0.805852
O3    O     O_R   0.303930 0.694040 0.551750 -0.540407
O4    O     O_R   0.523510 0.657900 0.548240 -0.528360
C2    C     C_R   0.621910 0.601121 0.566600 0.798494
O5    O     O_R   0.694770 0.503160 0.551780 -0.543429
O6    O     O_R   0.657990 0.319990 0.547370 -0.537590
C3    C     C_R   0.600913 0.278909 0.565835 0.805517
O7    O     O_R   0.501900 0.302960 0.447930 -0.550342
O8    O     O_R   0.319020 0.522350 0.452090 -0.544203
C4    C     C_R   0.276025 0.621350 0.434611 0.798130
O9    O     O_R   0.302820 0.693680 0.448870 -0.522138
O10   O     O_R   0.522480 0.657560 0.452870 -0.532601
C5    C     C_R   0.620591 0.600550 0.434243 0.802926
O11   O     O_R   0.693670 0.502790 0.448900 -0.528186
O12   O     O_R   0.656970 0.319650 0.452000 -0.516454
C6    C     C_R   0.600572 0.277092 0.433876 0.795059
Cr1   Cr    Cr6+3 0.413560 0.417690 0.499580 0.976917
Cr2   Cr    Cr6+3 0.418030 0.668340 0.500400 0.994958
Cr3   Cr    Cr6+3 0.668390 0.413960 0.499990 0.995325
O13   O     O_3   0.499990 0.499990 0.499990 -0.347604
C7    C     C_3   0.615012 0.782146 0.729997 0.365061
C8    C     C_3   0.555848 0.745578 0.766559 -0.258093
H1    H     H_    0.469138 0.799557 0.781089 0.161690
H2    H     H_    0.545084 0.592873 0.730038 0.199723
C9    C     C_1   0.698343 0.702795 0.886258 -0.112069
C10   C     C_1   0.639171 0.634870 0.611971 -0.114846
C11   C     C_3   0.724855 0.726252 0.758540 0.370791
C12   C     C_3   0.667986 0.688015 0.794957 0.011331
C13   C     C_3   0.767883 0.614196 0.730980 -0.271646
C14   C     C_3   0.655923 0.671510 0.702510 -0.001484
C15   C     C_3   0.709702 0.575345 0.767800 -0.143003
C16   C     C_3   0.597696 0.632395 0.738698 -0.142190
C17   C     C_1   0.680204 0.694823 0.845525 0.069311
C18   C     C_1   0.648451 0.655548 0.652257 0.083085
H3    H     H_    0.747860 0.489729 0.783898 0.155252
H4    H     H_    0.854837 0.561861 0.716415 0.156052
C19   C     C_1   0.632233 0.232978 0.612037 -0.089990
C20   C     C_R   0.754121 0.096706 0.721465 -0.133357
C21   C     C_R   0.765129 0.079711 0.769845 -0.116024
C22   C     C_R   0.592735 0.261733 0.782656 0.310919
C23   C     C_R   0.581034 0.278528 0.733502 0.319855
C24   C     C_R   0.662253 0.194885 0.703124 -0.053252
C25   C     C_R   0.684987 0.160995 0.800469 -0.073470
C26   C     C_1   0.696370 0.135409 0.849795 0.107707
C27   C     C_1   0.649919 0.209406 0.653030 0.097054
C28   C     C_1   0.706440 0.105236 0.890024 -0.093085
H5    H     H_    0.816467 0.032384 0.698286 0.170022
H6    H     H_    0.835869 0.002054 0.783456 0.189409
C29   C     C_1   0.233140 0.636296 0.612777 -0.110033
C30   C     C_R   0.114587 0.621109 0.723352 -0.059258
C31   C     C_R   0.101045 0.625011 0.772135 -0.043489
C32   C     C_R   0.235589 0.692746 0.781098 -0.084701
C33   C     C_R   0.249309 0.688634 0.732377 -0.075453
C34   C     C_R   0.188112 0.653793 0.703414 0.140624
C35   C     C_R   0.161244 0.661173 0.801044 0.129686
C36   C     C_1   0.137484 0.676646 0.850490 0.008738
C37   C     C_1   0.207170 0.645680 0.653610 0.012345
C38   C     C_1   0.107880 0.696366 0.890891 -0.115328
H7    H     H_    0.067864 0.592890 0.701300 0.125992
H8    H     H_    0.042330 0.601631 0.787253 0.145195
H9    H     H_    0.281630 0.721901 0.803084 0.127714
H10   H     H_    0.307611 0.712603 0.717272 0.123574
C39   C     C_1   0.637921 0.633370 0.388835 -0.122503
C40   C     C_R   0.694835 0.568439 0.270383 -0.245980
C41   C     C_R   0.699666 0.576095 0.221502 0.286542
C42   C     C_R   0.628150 0.779258 0.229562 -0.215303
C43   C     C_R   0.624000 0.771648 0.278594 0.309530
C44   C     C_R   0.658386 0.664831 0.298947 0.014284
C45   C     C_R   0.664971 0.682549 0.201065 0.040973
C46   C     C_1   0.675620 0.692638 0.151347 0.014015
C47   C     C_1   0.648737 0.651899 0.348494 -0.014691
C48   C     C_1   0.692795 0.702372 0.110686 -0.151022
H11   H     H_    0.720035 0.486675 0.286158 0.193714
H12   H     H_    0.604243 0.860629 0.213691 0.142446
C49   C     C_1   0.635576 0.225200 0.389110 -0.096701
C50   C     C_R   0.603312 0.142873 0.276855 -0.195465
C51   C     C_R   0.605842 0.132658 0.228298 -0.128455
C52   C     C_R   0.754262 0.182917 0.224802 -0.279519
C53   C     C_R   0.752440 0.194626 0.273923 0.385202
C54   C     C_R   0.675411 0.173826 0.299835 0.006104
C55   C     C_R   0.680261 0.153855 0.202365 0.079451
C56   C     C_1   0.687864 0.133977 0.153034 -0.034744
C57   C     C_1   0.658298 0.195513 0.349064 0.055004
C58   C     C_1   0.697240 0.105994 0.112657 -0.151350
H13   H     H_    0.543348 0.128631 0.296550 0.150583
H14   H     H_    0.550115 0.107681 0.210980 0.130466
H15   H     H_    0.812845 0.196836 0.203896 0.160756
C59   C     C_1   0.215911 0.642850 0.391434 -0.110078
C60   C     C_R   0.152375 0.760122 0.279124 0.337292
C61   C     C_R   0.145228 0.762275 0.229767 0.187109
C62   C     C_R   0.118466 0.597519 0.231068 -0.198149
C63   C     C_R   0.122286 0.595924 0.280171 0.257093
C64   C     C_R   0.143876 0.674933 0.304087 -0.124674
C65   C     C_R   0.132419 0.677865 0.206049 -0.049530
C66   C     C_1   0.118470 0.682401 0.156174 -0.009016
C67   C     C_1   0.176585 0.658526 0.352609 0.053820
C68   C     C_1   0.096407 0.696645 0.115151 -0.155011
H16   H     H_    0.104654 0.535586 0.212256 0.155269
O14   O     O_R   0.035380 0.825870 0.952240 -0.544704
O15   O     O_R   0.818010 0.012400 0.954990 -0.540169
C69   C     C_R   0.720611 0.055398 0.935366 0.806764
O16   O     O_R   0.644810 0.033340 0.949080 -0.526755
O17   O     O_R   0.674910 0.816000 0.950960 -0.529274
C70   C     C_R   0.730413 0.717760 0.932297 0.808640
O18   O     O_R   0.827060 0.642880 0.947470 -0.540420
O19   O     O_R   0.013800 0.673690 0.954100 -0.527992
C71   C     C_R   0.057571 0.729226 0.936470 0.810652
O20   O     O_R   0.031250 0.825430 0.055080 -0.544602
O21   O     O_R   0.814180 0.011990 0.050320 -0.536838
C72   C     C_R   0.714626 0.056164 0.067394 0.801785
O22   O     O_R   0.640680 0.032900 0.051920 -0.541940
O23   O     O_R   0.671090 0.815590 0.046300 -0.535261
C73   C     C_R   0.725670 0.717369 0.064874 0.792080
O24   O     O_R   0.822940 0.642440 0.050310 -0.543281
O25   O     O_R   0.009970 0.673280 0.049430 -0.534395
C74   C     C_R   0.052955 0.728032 0.068910 0.798844
Cr4   Cr    Cr6+3 0.919710 0.916540 0.003080 0.954069
Cr5   Cr    Cr6+3 0.665300 0.919470 0.999630 0.976194
Cr6   Cr    Cr6+3 0.916060 0.665490 0.000390 0.967353
O26   O     O_3   0.833690 0.833830 0.001040 -0.342596
N1    N     N_R   0.483371 0.376873 0.714590 0.111894
O27   O     O_R   0.495303 0.439467 0.683177 -0.413069
O28   O     O_R   0.381710 0.402831 0.728211 -0.337545
N2    N     N_2   0.738661 0.476772 0.193177 -0.509914
H17   H     H_    0.716251 0.419750 0.206134 0.267493
C75   C     C_3   0.858370 0.422100 0.181711 -0.492474
H18   H     H_    0.910692 0.391333 0.214220 0.222420
H19   H     H_    0.878352 0.481936 0.163225 0.198247
H20   H     H_    0.880837 0.348283 0.158174 0.199962
N3    N     N_2   0.587090 0.871231 0.306702 -0.539576
H21   H     H_    0.617166 0.856940 0.340782 0.259535
C76   C     C_3   0.466488 0.951470 0.303845 -0.454676
H22   H     H_    0.445754 0.026862 0.326099 0.185842
H23   H     H_    0.417146 0.911779 0.316768 0.248934
H24   H     H_    0.441288 0.980582 0.267077 0.204895
N4    N     N_R   0.565427 0.895875 0.710231 0.122339
O29   O     O_R   0.536627 0.982769 0.737842 -0.338749
O30   O     O_R   0.551084 0.911115 0.665085 -0.362908
N5    N     N_R   0.828239 0.227279 0.296080 0.084381
O31   O     O_R   0.807391 0.273674 0.337672 -0.373034
O32   O     O_R   0.916076 0.216866 0.273331 -0.384270
N6    N     N_R   0.171164 0.842641 0.303683 0.117943
O33   O     O_R   0.243401 0.870929 0.287644 -0.358501
O34   O     O_R   0.113315 0.892658 0.341364 -0.352796
N7    N     N_2   0.148374 0.851110 0.204455 -0.463664
H25   H     H_    0.189076 0.827056 0.172417 0.262627
C77   C     C_3   0.039962 0.955193 0.201836 -0.407033
H26   H     H_    0.978042 0.941118 0.181230 0.163726
H27   H     H_    0.051160 0.021854 0.184280 0.198405
H28   H     H_    0.005586 0.985967 0.237636 0.244203
N8    N     N_2   0.108258 0.512050 0.304590 -0.505559
H29   H     H_    0.140931 0.493683 0.338212 0.264672
C78   C     C_3   0.995243 0.526013 0.301474 -0.479511
H30   H     H_    0.993581 0.454982 0.319963 0.224762
H31   H     H_    0.970626 0.524877 0.264257 0.194835
H32   H     H_    0.932269 0.607484 0.318244 0.190241
N9    N     N_R   0.793461 0.779791 0.767818 0.081602
O35   O     O_R   0.835365 0.808337 0.732860 -0.391571
O36   O     O_R   0.812051 0.800671 0.810645 -0.403665
N10   N     N_R   0.512773 0.347718 0.814034 0.120428
O37   O     O_R   0.467801 0.320763 0.848402 -0.356150
O38   O     O_R   0.484052 0.453769 0.808137 -0.368123

loop_
_geom_bond_atom_site_label_1
_geom_bond_atom_site_label_2
_geom_bond_distance
_ccdc_geom_bond_type
C50   H13   1.083147 S    
C33   C34   1.402178 A    
C62   C63   1.397324 A    
C23   N1    1.437171 S    
C78   H31   1.110524 S    
C7    N4    1.457032 S    
O21   C72   1.270048 A    
C3    C19   1.427349 S    
O19   Cr6   1.914666 S    
O16   Cr5   2.031735 S    
C75   H18   1.111587 S    
O20   C74   1.266894 A    
C76   H24   1.110802 S    
O23   C73   1.274990 A    
C64   C67   1.431881 S    
N1    O27   1.301173 A    
C11   N9    1.458117 S    
O4    Cr2   1.922000 S    
C25   C26   1.436575 S    
O8    Cr1   1.917995 S    
N2    H17   1.031632 S    
C12   C17   1.454586 S    
C63   N8    1.427918 S    
C14   C18   1.454804 S    
C4    C59   1.419337 S    
N7    C77   1.446761 S    
C56   C58   1.194553 T    
N10   O37   1.301132 A    
C30   H7    1.083430 S    
N5    O32   1.301635 A    
N9    O35   1.300181 A    
O4    C2    1.272639 A    
N1    O28   1.300855 A    
C70   O18   1.268496 A    
C48   C73   1.427429 S    
C36   C38   1.202967 T    
C20   H5    1.083674 S    
C5    C39   1.426975 S    
C61   C65   1.407551 A    
C39   C47   1.201490 T    
O19   C71   1.273742 A    
O21   Cr4   1.918696 S    
C52   H15   1.083745 S    
O25   Cr6   1.920412 S    
C72   O22   1.266602 A    
C38   C71   1.429495 S    
N5    O31   1.300808 A    
H2    C16   1.109939 S    
C2    C10   1.422988 S    
N7    H25   1.031188 S    
C42   C43   1.402687 A    
C7    C8    1.542963 S    
N9    O36   1.300234 A    
O17   Cr5   1.922554 S    
N8    C78   1.448408 S    
O9    Cr2   2.037448 S    
C24   C27   1.437234 S    
C53   N5    1.445324 S    
C40   C41   1.399266 A    
C49   C57   1.195279 T    
Cr3   O13   1.979413 S    
C65   C66   1.427912 S    
C61   N7    1.426253 S    
C43   C44   1.409785 A    
C52   C55   1.396455 A    
C51   H14   1.084083 S    
C66   C68   1.195889 T    
Cr5   O26   1.979535 S    
C15   C16   1.553592 S    
N10   O38   1.301375 A    
C26   C28   1.201892 T    
O1    Cr1   2.034716 S    
O24   Cr6   2.030326 S    
O14   Cr4   2.035295 S    
O10   Cr2   1.913933 S    
Cr1   O13   1.978700 S    
O1    C3    1.268846 A    
C8    H1    1.110090 S    
N6    O34   1.301349 A    
C77   H28   1.110873 S    
C60   C61   1.406268 A    
C31   C35   1.402387 A    
C50   C51   1.386074 A    
O6    C3    1.272992 A    
C76   H23   1.111087 S    
C53   C54   1.419589 A    
C9    C70   1.422283 S    
C9    C17   1.198396 T    
O5    Cr3   2.039885 S    
C28   C69   1.427258 S    
C5    O11   1.268463 A    
C8    C16   1.558232 S    
C75   H19   1.110727 S    
C22   C25   1.410383 A    
C14   C16   1.547586 S    
C58   C72   1.415254 S    
C23   C24   1.414025 A    
C11   C12   1.532393 S    
O22   Cr5   2.038048 S    
C31   H8    1.083614 S    
C50   C54   1.398022 A    
C43   N3    1.425113 S    
C55   C56   1.421654 S    
O7    Cr1   2.036502 S    
C33   H10   1.083840 S    
C44   C47   1.436030 S    
C13   C15   1.557132 S    
O12   C6    1.269915 A    
C63   C64   1.412728 A    
C62   H16   1.084322 S    
Cr6   O26   1.980538 S    
C2    O5    1.268616 A    
N4    O30   1.300201 A    
C46   C48   1.201952 T    
C20   C21   1.391780 A    
Cr2   O13   1.980697 S    
C62   C65   1.394883 A    
C41   N2    1.422849 S    
C8    C12   1.544467 S    
C29   C37   1.202844 T    
C22   C23   1.413468 A    
O18   Cr6   2.038482 S    
C1    O3    1.268851 A    
C75   H20   1.110395 S    
C7    C11   1.523618 S    
C21   H6    1.083978 S    
C69   O16   1.267748 A    
C30   C31   1.397871 A    
C19   C27   1.202090 T    
C60   N6    1.440695 S    
Cr4   O26   1.979131 S    
C32   C33   1.396309 A    
N2    C75   1.446496 S    
C12   C15   1.542844 S    
O2    Cr1   1.919955 S    
C13   C14   1.543739 S    
C52   C53   1.404125 A    
O6    Cr3   1.913988 S    
O20   Cr4   2.035028 S    
O8    C4    1.271535 A    
C22   N10   1.438625 S    
O11   Cr3   2.029529 S    
C42   C45   1.401786 A    
C76   H22   1.110104 S    
C42   H12   1.084379 S    
C54   C57   1.425182 S    
O17   C70   1.272928 A    
C34   C37   1.435008 S    
N6    O33   1.301207 A    
C7    C14   1.526802 S    
C13   H4    1.110231 S    
C77   H27   1.110249 S    
O2    C1    1.275308 A    
C45   C46   1.436641 S    
C11   C13   1.539846 S    
C77   H26   1.111754 S    
C68   C74   1.416939 S    
C51   C55   1.393522 A    
C35   C36   1.435098 S    
C40   C44   1.400185 A    
O7    C6    1.267648 A    
C6    C49   1.415624 S    
C40   H11   1.084317 S    
C1    C29   1.429200 S    
C15   H3    1.110152 S    
N3    H21   1.031025 S    
C41   C45   1.405744 A    
O15   C69   1.274271 A    
O12   Cr3   1.921913 S    
N4    O29   1.300386 A    
C60   C64   1.412780 A    
O3    Cr2   2.031090 S    
C20   C24   1.395683 A    
C4    O9    1.266998 A    
C10   C18   1.198639 T    
N3    C76   1.446168 S    
C32   H9    1.083552 S    
C78   H30   1.110524 S    
C21   C25   1.399786 A    
O10   C5    1.274713 A    
C73   O24   1.268412 A    
N8    H29   1.030334 S    
O25   C74   1.272096 A    
O14   C71   1.269123 A    
C59   C67   1.197026 T    
O23   Cr5   1.914850 S    
O15   Cr4   1.918742 S    
C30   C34   1.399403 A    
C78   H32   1.111626 S    
C32   C35   1.399099 A    
