data_mof_unit_50002.cif
_audit_creation_date              2012-12-10T19:13:31-0500
_audit_creation_method            fapswitch 2.2
_symmetry_space_group_name_H-M    P1
_symmetry_Int_Tables_number       1
_space_group_crystal_system       triclinic
_cell_length_a                    9.872712
_cell_length_b                    10.887987
_cell_length_c                    16.867152
_cell_angle_alpha                 89.349673
_cell_angle_beta                  85.32428
_cell_angle_gamma                 88.438175
_cell_volume                      1806.33578465

loop_
_atom_site_label
_atom_site_type_symbol
_atom_type_description
_atom_site_fract_x
_atom_site_fract_y
_atom_site_fract_z
_atom_type_partial_charge
C1    C     C_R   0.499297 0.742203 0.497911 0.901864
C2    C     C_R   0.530816 0.461112 0.263629 -0.130227
C3    C     C_3   0.446943 0.934841 0.418269 0.154703
C4    C     C_R   0.481850 0.502234 0.652261 0.846612
C5    C     C_3   0.470921 0.076605 0.416059 0.252045
C6    C     C_3   0.397374 0.928585 0.564818 -0.563488
C7    C     C_3   0.651372 0.924835 0.508370 0.565267
C8    C     C_3   0.500664 0.879111 0.496680 -0.121443
C9    C     C_3   0.501401 0.120785 0.501521 -0.010434
C10   C     C_3   0.381186 0.069418 0.557594 -0.585704
C11   C     C_3   0.644698 0.066863 0.523725 0.537085
C12   C     C_R   0.399974 0.578003 0.785872 -0.306332
C13   C     C_3   0.915342 0.623615 0.483381 -0.411346
C14   C     C_3   0.076703 0.623478 0.474520 0.348829
C15   C     C_3   0.914498 0.454202 0.580936 0.436497
C16   C     C_R   0.500603 0.257764 0.502015 0.937931
C17   C     C_3   0.933499 0.425424 0.435373 0.331486
C18   C     C_3   0.075609 0.470897 0.581658 0.162772
C19   C     C_3   0.091825 0.410163 0.445568 -0.515400
C20   C     C_R   0.519106 0.494648 0.347450 0.918093
C21   C     C_R   0.476429 0.494065 0.737714 -0.024749
C22   C     C_R   0.560546 0.406480 0.770885 -0.240805
C23   C     C_R   0.425172 0.360794 0.157562 0.441285
C24   C     C_R   0.565991 0.398688 0.851818 -0.204119
C25   C     C_R   0.483741 0.477012 0.901666 0.161334
C26   C     C_R   0.399157 0.567721 0.868676 0.252348
C27   C     C_3   0.807308 0.546684 0.044185 -0.765958
C28   C     C_3   0.890077 0.907486 0.437210 -0.775199
C29   C     C_3   0.587460 0.117563 0.674631 -0.874195
C30   C     C_3   0.829113 0.642580 0.670587 -0.674712
C31   C     C_3   0.110423 0.512151 0.724184 -0.837822
C32   C     C_3   0.760386 0.660921 0.246230 -0.736847
C33   C     C_3   0.933051 0.249425 0.656097 -0.959425
C34   C     C_R   0.419244 0.403696 0.234930 -0.388802
C35   C     C_3   0.194176 0.596892 0.955579 -0.795463
C36   C     C_R   0.654193 0.470908 0.215136 0.168380
C37   C     C_R   0.661128 0.425088 0.137149 0.096344
C38   C     C_R   0.544783 0.374934 0.108748 0.043353
C39   C     C_2   0.494895 0.470455 0.987263 -0.206567
C40   C     C_2   0.535399 0.367987 0.023963 -0.075089
H1    H     H_    0.626071 0.346472 0.733731 0.150024
H2    H     H_    0.875586 0.655582 0.426833 0.161327
H3    H     H_    0.109229 0.636532 0.409848 0.069816
H4    H     H_    0.922349 0.472781 0.376916 0.100372
H5    H     H_    0.148886 0.419590 0.386397 0.160611
H6    H     H_    0.116338 0.315529 0.466754 0.206086
H7    H     H_    0.128358 0.383127 0.595734 0.153252
H8    H     H_    0.554884 0.280707 0.994298 0.144422
H9    H     H_    0.342525 0.651351 0.759113 0.137411
H10   H     H_    0.469042 0.552599 0.022098 0.174030
H11   H     H_    0.638166 0.333442 0.874506 0.141258
H12   H     H_    0.334424 0.923337 0.420959 0.093485
H13   H     H_    0.867900 0.389896 0.107009 0.222588
H14   H     H_    0.891538 0.594483 0.069652 0.229001
H15   H     H_    0.715421 0.608368 0.048043 0.241243
H16   H     H_    0.837028 0.527990 0.980505 0.245478
H17   H     H_    0.453701 0.799050 0.343745 0.321432
H18   H     H_    0.536486 0.108727 0.306042 0.355582
H19   H     H_    0.638785 0.868460 0.620616 0.316656
H20   H     H_    0.713188 0.922106 0.382965 0.318133
H21   H     H_    0.922986 0.994668 0.408007 0.246005
H22   H     H_    0.943747 0.837397 0.398654 0.202283
H23   H     H_    0.374700 0.123561 0.399853 0.056300
H24   H     H_    0.924401 0.902327 0.498174 0.275703
H25   H     H_    0.830401 0.122472 0.496248 0.355426
H26   H     H_    0.771997 0.057269 0.619695 0.253148
H27   H     H_    0.646235 0.133788 0.726646 0.237437
H28   H     H_    0.526411 0.036439 0.690962 0.249463
H29   H     H_    0.524861 0.201641 0.665748 0.240328
H30   H     H_    0.137300 0.792041 0.477912 0.315070
H31   H     H_    0.811369 0.456850 0.698175 0.233927
H32   H     H_    0.732324 0.680100 0.651488 0.277122
H33   H     H_    0.824362 0.652873 0.736228 0.206828
H34   H     H_    0.295723 0.889057 0.560430 0.243234
H35   H     H_    0.915582 0.697163 0.645977 0.268122
H36   H     H_    0.178288 0.623157 0.628758 0.318932
H37   H     H_    0.122680 0.590327 0.764205 0.241842
H38   H     H_    0.194192 0.443256 0.728805 0.260772
H39   H     H_    0.014670 0.469405 0.746402 0.246569
H40   H     H_    0.916771 0.273636 0.379331 0.330174
H41   H     H_    0.862526 0.494842 0.221542 0.214312
H42   H     H_    0.850281 0.695971 0.273455 0.219347
H43   H     H_    0.667875 0.692983 0.282604 0.262504
H44   H     H_    0.758375 0.699542 0.185153 0.238895
H45   H     H_    0.283605 0.090721 0.530804 0.196723
H46   H     H_    0.792285 0.301982 0.579194 0.317530
H47   H     H_    0.847360 0.239602 0.702172 0.248874
H48   H     H_    0.016851 0.288415 0.685829 0.252612
H49   H     H_    0.968281 0.157038 0.634941 0.261377
H50   H     H_    0.296319 0.733515 0.891110 0.224457
H51   H     H_    0.125908 0.569848 0.909953 0.238043
H52   H     H_    0.139471 0.665543 0.995447 0.238908
H53   H     H_    0.219144 0.515056 0.992004 0.274948
H54   H     H_    0.237188 0.308474 0.168750 0.322629
H55   H     H_    0.326405 0.391767 0.272701 0.165907
H56   H     H_    0.424991 0.899793 0.624503 0.188169
H57   H     H_    0.362508 0.112835 0.616218 0.221412
H58   H     H_    0.872333 0.691658 0.525929 0.274001
N1    N     N_3   0.861190 0.500250 0.501720 -0.110739
N2    N     N_2   0.316293 0.650073 0.917951 -0.326711
N3    N     N_3   0.138550 0.503270 0.501080 -0.111811
N4    N     N_2   0.782791 0.431293 0.085755 -0.298988
N5    N     N_2   0.743583 0.894117 0.436988 -0.231631
N6    N     N_2   0.680221 0.095001 0.605264 -0.330361
N7    N     N_2   0.841300 0.513030 0.650943 -0.274907
N8    N     N_2   0.107404 0.557598 0.642960 -0.265923
N9    N     N_2   0.768728 0.528044 0.244104 -0.293663
N10   N     N_2   0.889948 0.321905 0.588827 -0.300163
O1    O     O_R   0.383960 0.685090 0.500020 -0.601487
O2    O     O_3   0.575435 0.108819 0.358491 -0.692831
O3    O     O_3   0.704995 0.863556 0.573549 -0.820712
O4    O     O_3   0.743366 0.120818 0.470707 -0.686992
O5    O     O_3   0.121777 0.723117 0.516265 -0.790192
O6    O     O_3   0.874863 0.311801 0.428991 -0.691320
O7    O     O_3   0.313793 0.310094 0.126913 -0.770370
O8    O     O_R   0.616040 0.685320 0.499960 -0.579177
O9    O     O_R   0.370240 0.499890 0.615830 -0.631412
O10   O     O_R   0.602330 0.500120 0.615770 -0.623170
O11   O     O_R   0.383960 0.314680 0.500040 -0.669048
O12   O     O_R   0.616040 0.314910 0.499980 -0.525353
O13   O     O_R   0.397670 0.499880 0.384230 -0.644508
O14   O     O_R   0.629760 0.500110 0.384170 -0.569740
O15   O     O_3   0.502918 0.876573 0.348656 -0.790883
Zn1   Zn    Zn3+2 0.345040 0.499850 0.500040 0.920801
Zn2   Zn    Zn3+2 0.654960 0.500150 0.499960 0.997645

loop_
_geom_bond_atom_site_label_1
_geom_bond_atom_site_label_2
_ccdc_geom_bond_type
C15   C18   S    
H41   N9    S    
C10   H45   S    
C30   H35   S    
C1    C8    S    
C18   H7    S    
C27   H16   S    
C12   H9    S    
C27   H14   S    
C7    C8    S    
N1    Zn2   S    
C35   H51   S    
O11   Zn1   S    
C7    C11   S    
C36   C37   A    
C9    C16   S    
C16   O12   A    
C37   N4    S    
C27   H15   S    
C22   H1    S    
C5    O2    S    
C33   H48   S    
C5    H23   S    
C13   H58   S    
O13   Zn1   S    
C1    O1    A    
C29   H27   S    
C32   N9    S    
H19   O3    S    
C31   H37   S    
C11   N6    S    
C1    O8    A    
H20   N5    S    
C9    C10   S    
C20   O14   A    
C35   H52   S    
C2    C34   A    
C24   H11   S    
C7    N5    S    
C13   C14   S    
C36   N9    S    
C4    O10   A    
C33   N10   S    
H50   N2    S    
C13   H2    S    
C3    O15   S    
C17   O6    S    
C6    H34   S    
C29   H29   S    
C35   H53   S    
H30   O5    S    
C32   H44   S    
C19   H6    S    
N3    Zn1   S    
C2    C20   S    
H26   N6    S    
C24   C25   A    
C3    C8    S    
C16   O11   A    
C39   C40   D    
C30   H33   S    
O12   Zn2   S    
C14   N3    S    
C6    C8    S    
C25   C26   A    
C12   C21   A    
C29   N6    S    
C12   C26   A    
C18   N3    S    
C15   N10   S    
C13   N1    S    
C10   H57   S    
C18   N8    S    
H25   O4    S    
C5    C9    S    
C37   C38   A    
C33   H49   S    
H17   O15   S    
C29   H28   S    
C17   N1    S    
H13   N4    S    
C3    H12   S    
C23   C34   A    
C34   H55   S    
C9    C11   S    
C20   O13   A    
C28   H24   S    
O10   Zn2   S    
H40   O6    S    
C6    H56   S    
O8    Zn2   S    
H31   N7    S    
C30   N7    S    
C31   N8    S    
C22   C24   A    
C4    O9    A    
C35   N2    S    
C23   C38   A    
C31   H38   S    
C2    C36   A    
C40   H8    S    
C32   H43   S    
H36   N8    S    
C11   O4    S    
H18   O2    S    
O9    Zn1   S    
H46   N10   S    
C15   N1    S    
C3    C5    S    
C6    C10   S    
C30   H32   S    
H54   O7    S    
C19   H5    S    
O1    Zn1   S    
C31   H39   S    
C14   O5    S    
C32   H42   S    
C27   N4    S    
C15   N7    S    
O14   Zn2   S    
C33   H47   S    
C17   H4    S    
C28   H21   S    
C38   C40   S    
C4    C21   S    
C19   N3    S    
C28   N5    S    
C17   C19   S    
C7    O3    S    
C23   O7    S    
C39   H10   S    
C21   C22   A    
C25   C39   S    
C26   N2    S    
C14   H3    S    
C28   H22   S    
