data_mof_unit_52588.cif
_audit_creation_date              2013-03-05T16:23:17-0500
_audit_creation_method            fapswitch 2.2
_symmetry_space_group_name_H-M    P1
_symmetry_Int_Tables_number       1
_space_group_crystal_system       triclinic
_cell_length_a                    27.052351
_cell_length_b                    10.583038
_cell_length_c                    9.859656
_cell_angle_alpha                 89.848193
_cell_angle_beta                  89.346825
_cell_angle_gamma                 87.918425
_cell_volume                      2820.72761101

loop_
_atom_site_label
_atom_site_type_symbol
_atom_site_description
_atom_site_fract_x
_atom_site_fract_y
_atom_site_fract_z
_atom_type_partial_charge
O1    O     O_R   0.500000 0.313960 0.616610 -0.581929
O2    O     O_R   0.500000 0.686040 0.383390 -0.587409
O3    O     O_R   0.500020 0.313950 0.383350 -0.566523
O4    O     O_R   0.499980 0.686050 0.616650 -0.561025
C1    C     C_R   0.499788 0.257903 0.500333 0.996249
C2    C     C_R   0.499420 0.742041 0.499776 0.965925
O5    O     O_R   0.428750 0.500030 0.616610 -0.596549
O6    O     O_R   0.571250 0.499970 0.383390 -0.633173
O7    O     O_R   0.428770 0.500020 0.383360 -0.593547
O8    O     O_R   0.571230 0.499980 0.616640 -0.562454
C3    C     C_R   0.405863 0.505148 0.500040 0.972595
C4    C     C_R   0.594419 0.498676 0.498828 0.965958
Zn1   Zn    Zn3+2 0.499990 0.500010 0.655740 1.109914
Zn2   Zn    Zn3+2 0.500010 0.499990 0.344260 1.078291
C5    C     C_R   0.189792 0.509202 0.300319 0.641484
C6    C     C_R   0.816972 0.606062 0.370362 0.649559
O9    O     O_2   0.223749 0.428472 0.243801 -0.423048
O10   O     O_2   0.781971 0.697036 0.345934 -0.429435
N1    N     N_R   0.205208 0.606918 0.377265 -0.329221
N2    N     N_R   0.802797 0.491430 0.417125 -0.330753
C7    C     C_R   0.173937 0.706606 0.410534 0.670070
C8    C     C_R   0.835470 0.391025 0.429383 0.660235
C9    C     C_R   0.291267 0.676161 0.384817 0.343210
C10   C     C_R   0.720823 0.418370 0.357244 0.323503
C11   C     C_R   0.340112 0.648389 0.420429 -0.184294
C12   C     C_R   0.669981 0.424493 0.379572 -0.188871
C13   C     C_R   0.316386 0.462145 0.547336 0.216206
C14   C     C_R   0.679486 0.544763 0.587145 0.205804
C15   C     C_R   0.266351 0.493556 0.519618 0.236620
C16   C     C_R   0.731256 0.537801 0.566940 0.242753
C17   C     C_R   0.254188 0.596417 0.431959 0.008942
C18   C     C_R   0.751600 0.477106 0.450373 0.021267
C19   C     C_R   0.106027 0.593860 0.318802 -0.070037
C20   C     C_R   0.901574 0.524318 0.354664 -0.069965
C21   C     C_R   0.139035 0.491698 0.284968 -0.138525
C22   C     C_R   0.867337 0.628296 0.348102 -0.131955
C23   C     C_R   0.119999 0.375857 0.241571 0.326931
C24   C     C_R   0.884543 0.749718 0.317535 0.320324
C25   C     C_R   0.124421 0.708762 0.366350 -0.091590
C26   C     C_R   0.885156 0.402040 0.386626 -0.088600
C27   C     C_R   0.353145 0.539415 0.494623 -0.211384
C28   C     C_R   0.648768 0.488953 0.491205 -0.249424
C29   C     C_R   0.985908 0.437905 0.319836 0.070581
C30   C     C_R   0.021512 0.684782 0.328177 0.066361
C31   C     C_R   0.969910 0.666990 0.320339 0.019354
C32   C     C_R   0.036224 0.457959 0.290394 0.010593
C33   C     C_R   0.952448 0.542974 0.330605 0.097981
C34   C     C_R   0.054534 0.579454 0.310347 0.099030
C35   C     C_R   0.968728 0.316472 0.345557 -0.218273
C36   C     C_R   0.041035 0.802992 0.358267 -0.215145
C37   C     C_R   0.919388 0.297499 0.379161 -0.023829
C38   C     C_R   0.091801 0.816414 0.377535 -0.041684
O11   O     O_2   0.819722 0.282945 0.485004 -0.448988
O12   O     O_2   0.190146 0.798849 0.490963 -0.452273
C39   C     C_R   0.069098 0.359873 0.246919 -0.256059
C40   C     C_R   0.935203 0.768272 0.306453 -0.270881
H1    H     H_    0.646551 0.382770 0.304914 0.258339
H2    H     H_    0.368914 0.707654 0.381638 0.229975
H3    H     H_    0.993757 0.234470 0.344474 0.173480
H4    H     H_    0.017027 0.885780 0.372291 0.186678
H5    H     H_    0.055879 0.268972 0.217201 0.180403
H6    H     H_    0.946620 0.862928 0.284242 0.169654
C41   C     C_3   0.496753 0.040947 0.630495 -0.123358
C42   C     C_3   0.501104 0.958861 0.370204 -0.139376
C43   C     C_3   0.538437 0.952679 0.569441 -0.202037
C44   C     C_3   0.459378 0.047203 0.431359 -0.188812
H7    H     H_    0.571262 0.913112 0.623314 0.262273
H8    H     H_    0.426536 0.087828 0.378082 0.253594
H9    H     H_    0.494226 0.075595 0.736600 0.263576
H10   H     H_    0.503715 0.924152 0.264117 0.265801
C45   C     C_3   0.498670 0.876942 0.499248 -0.190171
C46   C     C_3   0.499336 0.122874 0.501352 -0.184581
C47   C     C_3   0.457931 0.963666 0.558774 0.304358
C48   C     C_3   0.539948 0.035725 0.442043 0.302070
C49   C     C_3   0.498074 0.387678 0.047269 0.216288
C50   C     C_3   0.502008 0.612517 0.952967 0.225597
C51   C     C_3   0.537446 0.435768 0.951160 0.233121
C52   C     C_3   0.462647 0.564078 0.049064 0.250156
N3    N     N_3   0.499960 0.500030 0.863290 -0.209400
N4    N     N_3   0.500040 0.499970 0.136710 -0.210641
C53   C     C_3   0.460232 0.451160 0.953046 -0.274738
C54   C     C_3   0.539927 0.548943 0.047380 -0.265365
N5    N     N_R   0.329732 0.348463 0.620071 0.239690
O13   O     O_R   0.362921 0.269132 0.569926 -0.372722
O14   O     O_R   0.306107 0.318835 0.730693 -0.229640
N6    N     N_R   0.658502 0.614410 0.699795 0.256472
O15   O     O_R   0.627240 0.708359 0.678360 -0.342831
O16   O     O_R   0.675242 0.595148 0.821545 -0.210872
N7    N     N_R   0.412204 0.924088 0.623179 0.256886
O17   O     O_R   0.380442 0.008677 0.669822 -0.246320
O18   O     O_R   0.402620 0.805021 0.634132 -0.359070
N8    N     N_R   0.585970 0.073491 0.378354 0.265825
O19   O     O_R   0.617428 0.987704 0.332580 -0.286634
O20   O     O_R   0.597093 0.191730 0.372938 -0.367997
N9    N     N_R   0.577256 0.356519 0.891701 0.265265
O21   O     O_R   0.623236 0.378084 0.916393 -0.241513
O22   O     O_R   0.566744 0.257752 0.821021 -0.312809
N10   N     N_R   0.422407 0.641253 0.109112 0.259493
O23   O     O_R   0.376867 0.607322 0.100654 -0.285120
O24   O     O_R   0.432069 0.744815 0.172611 -0.336218
N11   N     N_R   0.494874 0.260648 0.103192 0.254184
O25   O     O_R   0.532674 0.181393 0.096324 -0.275829
O26   O     O_R   0.453008 0.223402 0.152210 -0.348673
N12   N     N_R   0.504234 0.739957 0.897630 0.251665
O27   O     O_R   0.464846 0.814052 0.896241 -0.274499
O28   O     O_R   0.546514 0.783711 0.859920 -0.310670
C55   C     C_2   0.417669 0.383132 0.896575 1.108084
O29   O     O_2   0.375962 0.430947 0.901854 -0.494209
O30   O     O_R   0.426105 0.262985 0.840989 -0.744238
H11   H     H_    0.394395 0.221221 0.816266 0.410571
C56   C     C_2   0.582848 0.613914 0.107504 1.104310
O31   O     O_2   0.624705 0.567757 0.096551 -0.523052
O32   O     O_R   0.574466 0.727491 0.177111 -0.748834
H12   H     H_    0.605976 0.761399 0.215192 0.380474
N13   N     N_R   0.227821 0.415315 0.569888 0.244145
O33   O     O_R   0.230358 0.293727 0.550126 -0.213112
O34   O     O_R   0.187860 0.466761 0.623779 -0.337272
N14   N     N_R   0.763213 0.600706 0.658387 0.250478
O35   O     O_R   0.754177 0.718488 0.690723 -0.224733
O36   O     O_R   0.803623 0.543832 0.700734 -0.312598
N15   N     N_R   0.151333 0.268688 0.205560 0.252194
O37   O     O_R   0.180495 0.217475 0.295891 -0.218631
O38   O     O_R   0.142609 0.205994 0.095585 -0.281192
N16   N     N_R   0.851394 0.856963 0.302764 0.250960
O39   O     O_R   0.828618 0.905417 0.408494 -0.241641
O40   O     O_R   0.845656 0.909645 0.184352 -0.237839
N17   N     N_R   0.740212 0.357559 0.236284 0.262929
O41   O     O_R   0.717244 0.263891 0.183517 -0.216181
O42   O     O_R   0.777305 0.403523 0.169743 -0.308544
N18   N     N_R   0.280640 0.779988 0.293819 0.274222
O43   O     O_R   0.307850 0.878906 0.295006 -0.245214
O44   O     O_R   0.248202 0.770039 0.198365 -0.282211
C57   C     C_2   0.905170 0.165208 0.394399 1.014185
O45   O     O_2   0.871628 0.126001 0.326314 -0.477847
O46   O     O_R   0.931745 0.084128 0.481421 -0.769068
H13   H     H_    0.918469 0.995899 0.484054 0.360277
C58   C     C_2   0.109252 0.946397 0.396379 1.024736
O47   O     O_2   0.147810 0.977703 0.342374 -0.463998
O48   O     O_R   0.080219 0.035239 0.469435 -0.776061
H14   H     H_    0.095424 0.121376 0.471907 0.371066

loop_
_geom_bond_atom_site_label_1
_geom_bond_atom_site_label_2
_geom_bond_distance
_ccdc_geom_bond_type
C50   N12   1.456550 S    
C44   H8    1.109874 S    
C41   C43   1.554857 S    
N11   O25   1.300077 A    
C13   C15   1.411584 A    
N9    O21   1.298590 A    
C50   N3    1.487797 S    
N1    C17   1.436692 S    
C49   N11   1.456801 S    
C53   C55   1.493692 S    
O46   H13   1.012682 S    
O5    C3    1.311756 A    
C58   O48   1.398837 S    
C19   C25   1.413633 A    
C20   C26   1.416894 A    
N1    C7    1.366369 A    
C10   C12   1.389636 A    
C1    C46   1.429520 S    
C7    O12   1.348047 S    
N6    O16   1.300774 A    
C43   H7    1.108420 S    
N13   O33   1.301184 A    
Zn1   N3    2.046362 S    
C42   C45   1.539862 S    
C48   N8    1.456385 S    
O4    Zn1   2.005224 S    
N14   O35   1.301282 A    
C4    C28   1.471212 S    
C5    N1    1.364419 A    
C44   C46   1.539120 S    
C41   H9    1.110028 S    
C31   C40   1.406501 A    
C35   C37   1.393101 A    
C32   C39   1.406697 A    
C52   N10   1.458045 S    
C10   N17   1.441156 S    
C36   C38   1.400936 A    
C55   O29   1.220275 D    
C42   H10   1.110155 S    
N7    O18   1.299650 A    
C49   N4    1.484579 S    
C20   C22   1.414158 A    
O6    C4    1.305397 A    
C31   C33   1.413930 A    
C25   C38   1.419232 A    
C15   N13   1.437535 S    
N11   O26   1.300237 A    
C55   O30   1.396048 S    
O2    C2    1.292604 A    
N17   O42   1.301052 A    
C5    C21   1.402134 A    
N12   O27   1.300004 A    
C29   C32   1.411996 A    
C8    O11   1.348076 S    
C51   N3    1.486028 S    
C2    C45   1.427059 S    
C32   C34   1.409670 A    
N4    C54   1.491713 S    
C50   C54   1.529632 S    
N3    C53   1.490625 S    
N6    O15   1.300133 A    
C49   C53   1.526705 S    
C16   N14   1.437466 S    
N13   O34   1.301181 A    
C43   C45   1.536642 S    
C44   C47   1.535191 S    
C51   N9    1.459299 S    
C43   C48   1.532146 S    
C9    N18   1.439692 S    
C9    C17   1.408264 A    
N18   O44   1.301137 A    
O7    Zn2   1.961062 S    
C10   C18   1.407387 A    
O7    C3    1.300795 A    
C13   C27   1.404558 A    
N5    O13   1.301060 A    
C7    C25   1.412693 A    
C6    N2    1.363163 A    
C8    C26   1.412859 A    
N8    O20   1.298409 A    
C38   C58   1.483326 S    
C56   O32   1.395792 S    
C49   C51   1.518286 S    
N15   O37   1.300679 A    
O3    Zn2   2.005227 S    
O8    C4    1.313715 A    
C23   N15   1.434006 S    
C46   C48   1.521265 S    
N5    O14   1.301257 A    
N2    C8    1.363260 A    
Zn2   N4    2.046363 S    
C14   N6    1.434824 S    
C57   O45   1.220193 D    
C40   H6    1.080102 S    
O4    C2    1.294360 A    
O1    Zn1   2.007410 S    
C11   H2    1.083601 S    
C11   C27   1.400489 A    
N17   O41   1.301635 A    
O1    C1    1.292415 A    
C30   C31   1.418365 A    
C12   C28   1.402600 A    
N16   O40   1.300916 A    
O32   H12   1.013224 S    
N2    C18   1.432936 S    
C30   C36   1.409084 A    
C5    O9    1.348379 S    
O6    Zn2   1.969750 S    
C56   O31   1.220542 D    
C21   C23   1.415948 A    
C29   C35   1.403858 A    
C50   C52   1.519351 S    
O3    C1    1.295642 A    
O8    Zn1   1.961064 S    
O48   H14   1.014090 S    
N9    O22   1.299634 A    
N12   O28   1.299527 A    
C26   C37   1.418279 A    
C41   C47   1.534384 S    
C58   O47   1.221810 D    
N10   O24   1.299875 A    
C35   H3    1.081149 S    
C36   H4    1.079733 S    
C54   C56   1.499421 S    
C13   N5    1.435920 S    
N18   O43   1.301585 A    
C47   N7    1.458483 S    
C14   C16   1.411659 A    
C15   C17   1.419771 A    
O30   H11   1.011704 S    
C6    C22   1.405742 A    
C22   C24   1.413131 A    
C16   C18   1.414278 A    
C37   C57   1.472179 S    
C52   C53   1.530241 S    
C51   C54   1.533750 S    
C39   H5    1.080780 S    
C14   C28   1.410918 A    
N8    O19   1.299799 A    
C19   C21   1.415123 A    
C3    C27   1.460249 S    
C52   N4    1.482343 S    
C9    C11   1.391952 A    
O2    Zn2   2.007408 S    
C12   H1    1.082245 S    
N14   O36   1.301116 A    
N15   O38   1.301030 A    
C23   C39   1.393799 A    
O5    Zn1   1.969745 S    
C24   C40   1.394543 A    
C41   C46   1.540934 S    
C6    O10   1.348797 S    
N10   O23   1.299342 A    
C45   C47   1.521870 S    
C57   O46   1.398087 S    
C19   C34   1.410238 A    
C42   C48   1.532885 S    
C20   C33   1.414700 A    
N7    O17   1.299423 A    
C29   C33   1.411516 A    
C24   N16   1.428893 S    
C30   C34   1.413009 A    
C42   C44   1.556490 S    
N16   O39   1.301742 A    
