data_mof_unit_21495.cif
_audit_creation_date              2012-12-11T14:44:13-0500
_audit_creation_method            fapswitch 2.2
_symmetry_space_group_name_H-M    P1
_symmetry_Int_Tables_number       1
_space_group_crystal_system       triclinic
_cell_length_a                    18.96315
_cell_length_b                    10.87796
_cell_length_c                    18.862379
_cell_angle_alpha                 90.062237
_cell_angle_beta                  89.785731
_cell_angle_gamma                 89.972524
_cell_volume                      3890.90888461

loop_
_atom_site_label
_atom_site_type_symbol
_atom_type_description
_atom_site_fract_x
_atom_site_fract_y
_atom_site_fract_z
_atom_type_partial_charge
C1    C     C_R   0.730168 0.377151 0.145832 0.551844
C2    C     C_R   0.992939 0.002205 0.036724 -0.138219
C3    C     C_R   0.998041 0.777805 0.037628 0.030851
C4    C     C_R   0.501781 0.053760 0.036059 -0.148503
C5    C     C_R   0.499629 0.053928 0.963440 -0.149214
C6    C     C_R   0.001967 0.553755 0.035995 -0.148946
C7    C     C_R   0.999813 0.553935 0.963375 -0.148632
C8    C     C_R   0.505280 0.502516 0.964126 -0.138609
C9    C     C_R   0.492907 0.502208 0.036777 -0.138101
C10   C     C_R   0.697592 0.865955 0.037962 -0.137058
C11   C     C_R   0.302588 0.866212 0.961954 -0.137062
C12   C     C_R   0.197587 0.365964 0.037961 -0.137390
C13   C     C_R   0.802587 0.366203 0.961949 -0.136697
C14   C     C_R   0.699864 0.853360 0.964573 -0.135147
C15   C     C_R   0.300268 0.853670 0.035347 -0.135665
C16   C     C_R   0.199857 0.353376 0.964571 -0.135565
C17   C     C_R   0.269790 0.377267 0.854121 0.550500
C18   C     C_R   0.800265 0.353664 0.035342 -0.135481
C19   C     C_R   0.751644 0.916127 0.925363 0.031845
C20   C     C_R   0.248121 0.915773 0.074521 0.030853
C21   C     C_R   0.251645 0.416130 0.925363 0.030770
C22   C     C_R   0.748108 0.415749 0.074512 0.031528
C23   C     C_R   0.798222 0.996117 0.959403 -0.125194
C24   C     C_R   0.201095 0.994879 0.040404 -0.125397
C25   C     C_R   0.298229 0.496103 0.959407 -0.125366
C26   C     C_R   0.701067 0.494822 0.040390 -0.125218
C27   C     C_R   0.797918 0.004430 0.031842 -0.121910
C28   C     C_R   0.230171 0.877159 0.145836 0.550348
C29   C     C_R   0.201441 0.003052 0.967970 -0.122609
C30   C     C_R   0.297926 0.504410 0.031846 -0.121882
C31   C     C_R   0.701414 0.502988 0.967956 -0.122459
C32   C     C_R   0.747809 0.939680 0.071956 0.034353
C33   C     C_R   0.252045 0.939193 0.927906 0.033498
C34   C     C_R   0.247811 0.439671 0.071958 0.033666
C35   C     C_R   0.752035 0.439161 0.927898 0.034594
C36   C     C_R   0.466958 0.056386 0.451396 -0.125786
C37   C     C_R   0.447654 0.054289 0.522181 -0.128616
C38   C     C_R   0.052961 0.554655 0.477845 -0.131319
C39   C     C_R   0.769790 0.877265 0.854122 0.549588
C40   C     C_R   0.033544 0.556699 0.548620 -0.130454
C41   C     C_R   0.451113 0.161398 0.563048 0.029901
C42   C     C_R   0.491985 0.165363 0.420403 0.028721
C43   C     C_R   0.007822 0.665379 0.579535 0.026788
C44   C     C_R   0.048891 0.661552 0.436949 0.028926
C45   C     C_R   0.531148 0.155582 0.146719 0.539468
C46   C     C_R   0.468911 0.155665 0.853245 0.550125
C47   C     C_R   0.031174 0.655580 0.146701 0.550335
C48   C     C_R   0.968935 0.655667 0.853227 0.539713
C49   C     C_R   0.468963 0.273495 0.530446 -0.129684
C50   C     C_R   0.509701 0.391797 0.927114 -0.079062
C51   C     C_R   0.489905 0.275252 0.459398 -0.137875
C52   C     C_R   0.009058 0.775091 0.540441 -0.134272
C53   C     C_R   0.030220 0.773427 0.469468 -0.127113
C54   C     C_R   0.789912 0.023196 0.472595 -0.125293
C55   C     C_R   0.200321 0.003366 0.531114 -0.127510
C56   C     C_R   0.298708 0.505462 0.469330 -0.127066
C57   C     C_R   0.684442 0.442564 0.541910 -0.136294
C58   C     C_R   0.791299 0.010108 0.545064 -0.134727
C59   C     C_R   0.199875 0.995183 0.458617 -0.136273
C60   C     C_R   0.299176 0.496694 0.541822 -0.136059
C61   C     C_R   0.489163 0.391215 0.073440 -0.078937
C62   C     C_R   0.679807 0.434740 0.469450 -0.129765
C63   C     C_R   0.750691 0.918790 0.577247 0.032197
C64   C     C_R   0.246773 0.916015 0.424135 0.034927
C65   C     C_R   0.253049 0.415907 0.575928 0.034882
C66   C     C_R   0.738836 0.400345 0.428782 0.036953
C67   C     C_R   0.703749 0.847699 0.536667 -0.126640
C68   C     C_R   0.297869 0.851651 0.463129 -0.138346
C69   C     C_R   0.202659 0.350371 0.536601 -0.138108
C70   C     C_R   0.802401 0.370731 0.462076 -0.142928
C71   C     C_R   0.701206 0.862839 0.463603 -0.134521
C72   C     C_R   0.009755 0.891803 0.927063 -0.078879
C73   C     C_R   0.299655 0.862764 0.536558 -0.149665
C74   C     C_R   0.200877 0.361932 0.463204 -0.149741
C75   C     C_R   0.807657 0.381999 0.535252 -0.137381
C76   C     C_R   0.746049 0.948029 0.431148 0.035800
C77   C     C_R   0.250636 0.938688 0.570817 0.036606
C78   C     C_R   0.249217 0.439402 0.429293 0.036586
C79   C     C_R   0.749015 0.421701 0.575037 0.031774
C80   C     C_R   0.740754 0.972323 0.146163 0.549126
C81   C     C_R   0.259217 0.972227 0.853787 0.549690
C82   C     C_R   0.240756 0.472318 0.146165 0.549609
C83   C     C_R   0.989218 0.891209 0.073389 -0.078990
C84   C     C_R   0.759215 0.472218 0.853784 0.547272
C85   C     C_R   0.727782 0.374671 0.354295 0.550429
C86   C     C_R   0.270248 0.378626 0.647520 0.539412
C87   C     C_R   0.229743 0.878744 0.352475 0.539355
C88   C     C_R   0.769918 0.879097 0.647845 0.549950
C89   C     C_R   0.530563 0.157230 0.353043 0.545999
C90   C     C_R   0.435589 0.153131 0.639057 0.565074
C91   C     C_R   0.064414 0.653198 0.360940 0.565157
C92   C     C_R   0.969375 0.657150 0.646930 0.547264
C93   C     C_R   0.740127 0.976332 0.356393 0.551284
C94   C     C_R   0.005312 0.002520 0.964074 -0.138487
C95   C     C_R   0.258971 0.973172 0.644592 0.540679
C96   C     C_R   0.240987 0.473442 0.355464 0.540726
C97   C     C_R   0.758572 0.469948 0.645895 0.549826
C98   C     C_R   0.497015 0.164369 0.925540 -0.001222
C99   C     C_R   0.503335 0.164053 0.074318 0.000599
C100  C     C_R   0.997114 0.664379 0.925489 0.000444
C101  C     C_R   0.003436 0.664043 0.074267 -0.000843
C102  C     C_R   0.501634 0.278040 0.962522 0.031101
C103  C     C_R   0.497960 0.277809 0.037676 0.031864
C104  C     C_R   0.001714 0.778045 0.962474 0.032099
Cr1   Cr    Cr6+3 0.772000 0.169640 0.250110 1.012941
Cr2   Cr    Cr6+3 0.383330 0.010620 0.749160 1.009183
Cr3   Cr    Cr6+3 0.116670 0.510620 0.250840 1.008854
Cr4   Cr    Cr6+3 0.883330 0.510620 0.749160 1.011822
Cr5   Cr    Cr6+3 0.228000 0.169640 0.749890 1.000016
Cr6   Cr    Cr6+3 0.272000 0.669640 0.250110 1.000186
Cr7   Cr    Cr6+3 0.728000 0.669640 0.749890 1.012737
Cr8   Cr    Cr6+3 0.614960 0.323350 0.249260 1.008660
Cr9   Cr    Cr6+3 0.385040 0.323350 0.750740 1.006447
Cr10  Cr    Cr6+3 0.114960 0.823350 0.249260 1.008433
Cr11  Cr    Cr6+3 0.885040 0.823350 0.750740 1.011131
Cr12  Cr    Cr6+3 0.616670 0.010620 0.250840 1.015457
H1    H     H_    0.505110 0.965160 0.062051 0.137431
H2    H     H_    0.159863 0.045918 0.430012 0.125486
H3    H     H_    0.338608 0.548348 0.570718 0.125074
H4    H     H_    0.629112 0.453802 0.445620 0.129987
H5    H     H_    0.010651 0.088894 0.936117 0.097942
H6    H     H_    0.987032 0.088321 0.064949 0.098841
H7    H     H_    0.510638 0.588888 0.936171 0.098444
H8    H     H_    0.487020 0.588328 0.065003 0.098325
H9    H     H_    0.657074 0.818493 0.067896 0.116251
H10   H     H_    0.343459 0.819403 0.932068 0.116443
H11   H     H_    0.157064 0.318512 0.067893 0.116244
H12   H     H_    0.497083 0.965414 0.937153 0.137407
H13   H     H_    0.843468 0.319416 0.932067 0.116334
H14   H     H_    0.663301 0.791222 0.939032 0.117761
H15   H     H_    0.337171 0.792247 0.060933 0.116967
H16   H     H_    0.163288 0.291255 0.939027 0.117519
H17   H     H_    0.837177 0.292262 0.060932 0.117140
H18   H     H_    0.836237 0.064985 0.056008 0.131631
H19   H     H_    0.162803 0.062947 0.943781 0.131533
H20   H     H_    0.336249 0.564955 0.056014 0.131666
H21   H     H_    0.662767 0.562862 0.943765 0.131579
H22   H     H_    0.466572 0.970454 0.422313 0.129966
H23   H     H_    0.005343 0.465153 0.061976 0.137623
H24   H     H_    0.432742 0.967496 0.545752 0.127010
H25   H     H_    0.068443 0.468039 0.454284 0.126930
H26   H     H_    0.034414 0.470945 0.577761 0.128030
H27   H     H_    0.469950 0.358428 0.560423 0.128503
H28   H     H_    0.508004 0.360739 0.436334 0.116056
H29   H     H_    0.989959 0.860264 0.563297 0.127600
H30   H     H_    0.028641 0.858161 0.439436 0.132346
H31   H     H_    0.672045 0.776001 0.560647 0.136320
H32   H     H_    0.334499 0.789667 0.437292 0.119146
H33   H     H_    0.166655 0.287072 0.562130 0.119755
H34   H     H_    0.997313 0.465426 0.937077 0.137207
H35   H     H_    0.847707 0.340158 0.431664 0.121848
H36   H     H_    0.665358 0.807214 0.432563 0.123245
H37   H     H_    0.339426 0.813561 0.566284 0.110577
H38   H     H_    0.161673 0.311756 0.433229 0.110756
H39   H     H_    0.858263 0.365820 0.560009 0.131521
H40   H     H_    0.521355 0.396624 0.871072 0.132235
H41   H     H_    0.477517 0.395512 0.129507 0.130374
H42   H     H_    0.021403 0.896628 0.871019 0.130222
H43   H     H_    0.977566 0.895507 0.129453 0.132953
H44   H     H_    0.838282 0.046765 0.930539 0.133400
H45   H     H_    0.822911 0.093753 0.449280 0.136892
H46   H     H_    0.160702 0.045012 0.069200 0.134098
H47   H     H_    0.338294 0.546744 0.930544 0.133549
H48   H     H_    0.660664 0.544939 0.069182 0.134161
H49   H     H_    0.162037 0.063959 0.555629 0.128044
H50   H     H_    0.336361 0.567370 0.445071 0.128173
H51   H     H_    0.638344 0.472160 0.571493 0.128417
H52   H     H_    0.827275 0.066757 0.575388 0.127494
O1    O     O_R   0.787540 0.042690 0.170470 -0.530218
O2    O     O_R   0.454130 0.051100 0.669160 -0.516706
O3    O     O_R   0.045870 0.551100 0.330840 -0.517599
O4    O     O_R   0.954130 0.551100 0.669160 -0.526959
O5    O     O_R   0.681340 0.959300 0.325510 -0.502081
O6    O     O_R   0.318660 0.959300 0.674490 -0.522901
O7    O     O_R   0.181340 0.459300 0.325510 -0.522960
O8    O     O_R   0.818660 0.459300 0.674490 -0.506572
O9    O     O_3   0.667880 0.167870 0.250070 -0.242134
O10   O     O_3   0.332120 0.167870 0.749930 -0.259253
O11   O     O_3   0.167880 0.667870 0.250070 -0.259680
O12   O     O_R   0.212460 0.042690 0.829530 -0.529723
O13   O     O_3   0.832120 0.667870 0.749930 -0.238545
O14   O     O_R   0.765660 0.292160 0.175050 -0.506006
O15   O     O_R   0.234340 0.292160 0.824950 -0.505335
O16   O     O_R   0.265660 0.792160 0.175050 -0.505331
O17   O     O_R   0.734340 0.792160 0.824950 -0.506969
O18   O     O_R   0.670190 0.408980 0.168550 -0.521834
O19   O     O_R   0.329810 0.408980 0.831450 -0.521856
O20   O     O_R   0.170190 0.908980 0.168550 -0.522116
O21   O     O_R   0.829810 0.908980 0.831450 -0.523493
O22   O     O_R   0.556580 0.251450 0.175160 -0.507535
O23   O     O_R   0.287540 0.542690 0.170470 -0.529663
O24   O     O_R   0.443420 0.251450 0.824840 -0.502578
O25   O     O_R   0.056580 0.751450 0.175160 -0.502392
O26   O     O_R   0.943420 0.751450 0.824840 -0.507877
O27   O     O_R   0.545920 0.049510 0.170320 -0.524123
O28   O     O_R   0.454080 0.049510 0.829680 -0.518393
O29   O     O_R   0.045920 0.549510 0.170320 -0.518453
O30   O     O_R   0.954080 0.549510 0.829680 -0.523912
O31   O     O_R   0.681390 0.957840 0.176710 -0.502155
O32   O     O_R   0.318610 0.957840 0.823290 -0.501333
O33   O     O_R   0.181390 0.457840 0.176710 -0.501307
O34   O     O_R   0.712460 0.542690 0.829530 -0.531759
O35   O     O_R   0.818610 0.457840 0.823290 -0.503204
O36   O     O_R   0.787500 0.044280 0.330990 -0.526543
O37   O     O_R   0.212500 0.044280 0.669010 -0.527789
O38   O     O_R   0.287500 0.544280 0.330990 -0.527571
O39   O     O_R   0.712500 0.544280 0.669010 -0.525319
O40   O     O_R   0.765610 0.293630 0.323860 -0.506064
O41   O     O_R   0.234390 0.293630 0.676140 -0.509728
O42   O     O_R   0.265610 0.793630 0.323860 -0.509661
O43   O     O_R   0.734390 0.793630 0.676140 -0.504871
O44   O     O_R   0.670140 0.410570 0.329080 -0.529610
O45   O     O_R   0.556540 0.252920 0.323970 -0.508741
O46   O     O_R   0.329860 0.410570 0.670920 -0.534877
O47   O     O_R   0.170140 0.910570 0.329080 -0.534757
O48   O     O_R   0.829860 0.910570 0.670920 -0.525369
O49   O     O_R   0.443460 0.252920 0.676030 -0.506666
O50   O     O_R   0.056540 0.752920 0.323970 -0.505035
O51   O     O_R   0.943460 0.752920 0.676030 -0.503958
O52   O     O_R   0.545870 0.051100 0.330840 -0.523522

loop_
_geom_bond_atom_site_label_1
_geom_bond_atom_site_label_2
_ccdc_geom_bond_type
C3    C104  A    
C45   O27   A    
C99   C103  A    
C85   O44   A    
C95   O37   A    
C16   C21   A    
C47   C101  S    
C96   O7    A    
C55   C59   A    
C82   O23   A    
C57   C79   A    
C36   C42   A    
C86   O41   A    
Cr7   O13   S    
C36   H22   S    
C81   O32   A    
C72   H42   S    
C57   C62   A    
C12   H11   S    
Cr3   O3    S    
C51   H28   S    
C59   C64   A    
C52   H29   S    
C75   C79   A    
Cr1   O1    S    
Cr12  O5    S    
C60   H3    S    
C10   C32   A    
C9    C61   A    
Cr8   O44   S    
C89   O45   A    
C36   C37   A    
C61   C103  A    
C95   O6    A    
C17   O19   A    
Cr3   O33   S    
Cr4   O35   S    
C40   H26   S    
C28   O20   A    
Cr8   O18   S    
C71   C76   A    
C55   C77   A    
C43   C52   A    
C67   C71   A    
Cr9   O19   S    
C29   C33   A    
Cr6   O23   S    
C100  C104  A    
C9    H8    S    
C56   C78   A    
C74   H38   S    
C18   H17   S    
C13   C18   A    
C6    C101  A    
C41   C49   A    
C6    H23   S    
Cr9   O24   S    
C93   O36   A    
C24   C29   A    
C90   O49   A    
Cr12  O27   S    
C11   C15   A    
Cr5   O10   S    
C40   C43   A    
C12   C16   A    
C50   H40   S    
C8    C9    A    
C49   C51   A    
C37   H24   S    
C23   C27   A    
Cr1   O14   S    
Cr12  O52   S    
C10   H9    S    
C58   H52   S    
C64   C87   S    
C62   H4    S    
C68   H32   S    
C42   C51   A    
C67   H31   S    
C48   O26   A    
Cr5   O15   S    
C65   C86   S    
Cr9   O10   S    
C46   C98   S    
C16   H16   S    
Cr6   O16   S    
C1    C22   S    
C97   O8    A    
Cr12  O9    S    
C46   O24   A    
Cr4   O30   S    
Cr2   O2    S    
Cr11  O51   S    
C2    C83   A    
Cr6   O42   S    
Cr9   O46   S    
Cr10  O50   S    
Cr5   O41   S    
C44   C53   A    
Cr7   O34   S    
Cr9   O49   S    
Cr11  O13   S    
C79   C97   S    
C80   O1    A    
C2    H6    S    
C87   O47   A    
C15   C20   A    
C48   C100  S    
C66   C85   S    
C63   C67   A    
Cr7   O17   S    
C56   H50   S    
C7    C100  A    
C62   C66   A    
Cr10  O20   S    
C20   C24   A    
C2    C94   A    
C11   H10   S    
C45   C99   S    
C78   C96   S    
Cr3   O29   S    
Cr12  O31   S    
C30   C34   A    
Cr1   O36   S    
Cr2   O28   S    
C72   C104  A    
C68   C73   A    
C1    O18   A    
C80   O31   A    
C77   C95   S    
C17   C21   S    
C56   C60   A    
C48   O30   A    
Cr11  O21   S    
C92   O51   A    
C19   C23   A    
C86   O46   A    
C38   C44   A    
C61   H41   S    
C76   C93   S    
C32   C80   S    
C7    H34   S    
C17   O15   A    
C96   O38   A    
C71   H36   S    
C11   C33   A    
C35   C84   S    
C23   H44   S    
C90   O2    A    
Cr2   O6    S    
C15   H15   S    
C69   C74   A    
Cr6   O38   S    
Cr8   O45   S    
C97   O39   A    
Cr5   O37   S    
C44   C91   S    
C19   C39   S    
C54   C76   A    
Cr4   O13   S    
C84   O35   A    
C29   H19   S    
Cr11  O26   S    
C60   C65   A    
C50   C102  A    
C59   H2    S    
C30   H20   S    
Cr4   O4    S    
C10   C14   A    
C92   O4    A    
C87   O42   A    
C31   C35   A    
C4    H1    S    
C31   H21   S    
C55   H49   S    
C12   C34   A    
C63   C88   S    
C64   C68   A    
Cr7   O39   S    
C70   C75   A    
C52   C53   A    
Cr1   O40   S    
Cr2   O32   S    
C54   C58   A    
Cr10  O25   S    
C84   O34   A    
C25   C30   A    
C14   H14   S    
C21   C25   A    
C13   H13   S    
C88   O48   A    
Cr3   O11   S    
C27   C32   A    
C18   C22   A    
C27   H18   S    
C14   C19   A    
C47   O25   A    
C24   H46   S    
C70   H35   S    
C58   C63   A    
C81   O12   A    
Cr1   O9    S    
C4    C5    A    
C88   O43   A    
C82   O33   A    
C1    O14   A    
C8    H7    S    
C13   C35   A    
C6    C7    A    
C57   H51   S    
C20   C28   S    
C74   C78   A    
C43   C92   S    
C91   O3    A    
C42   C89   S    
C69   H33   S    
C91   O50   A    
C28   O16   A    
C72   C94   A    
C98   C102  A    
C89   O52   A    
C38   C40   A    
Cr5   O12   S    
C3    C101  A    
C66   C70   A    
Cr3   O7    S    
Cr6   O11   S    
C25   H47   S    
C65   C69   A    
Cr4   O8    S    
C5    H12   S    
C93   O5    A    
C53   H30   S    
C38   H25   S    
Cr11  O48   S    
C41   C90   S    
C8    C50   A    
C3    C83   A    
C54   H45   S    
C37   C41   A    
C102  C103  A    
Cr10  O47   S    
Cr7   O43   S    
C26   H48   S    
Cr8   O22   S    
C49   H27   S    
C39   O17   A    
C94   H5    S    
C75   H39   S    
C45   O22   A    
C26   C31   A    
C83   H43   S    
C5    C98   A    
Cr10  O11   S    
C22   C26   A    
C4    C99   A    
C73   H37   S    
C46   O28   A    
C39   O21   A    
C73   C77   A    
C47   O29   A    
C34   C82   S    
C33   C81   S    
Cr2   O10   S    
C85   O40   A    
Cr8   O9    S    
