data_mof_unit_47388.cif
_audit_creation_date              2012-12-10T16:55:47-0500
_audit_creation_method            fapswitch 2.2
_symmetry_space_group_name_H-M    P1
_symmetry_Int_Tables_number       1
_space_group_crystal_system       triclinic
_cell_length_a                    7.801756
_cell_length_b                    8.391057
_cell_length_c                    10.498813
_cell_angle_alpha                 91.341868
_cell_angle_beta                  85.181272
_cell_angle_gamma                 94.123243
_cell_volume                      682.99817584

loop_
_atom_site_label
_atom_site_type_symbol
_atom_type_description
_atom_site_fract_x
_atom_site_fract_y
_atom_site_fract_z
_atom_type_partial_charge
C1    C     C_R   0.545000 0.794665 0.479874 0.829104
C2    C     C_3   0.502562 0.505489 0.877348 -0.037705
C3    C     C_3   0.380741 0.392265 0.045061 -0.161928
C4    C     C_3   0.621681 0.615527 0.953929 -0.168023
C5    C     C_2   0.563315 0.954168 0.429297 0.101059
C6    C     C_2   0.424822 0.039987 0.448292 0.091732
C7    C     C_R   0.453142 0.203763 0.489677 0.798511
C8    C     C_R   0.501491 0.503281 0.742403 0.875813
C9    C     C_R   0.499126 0.499479 0.257388 0.924191
C10   C     C_3   0.345121 0.538902 0.968339 -0.170891
C11   C     C_3   0.657407 0.468867 0.031056 -0.083476
C12   C     C_3   0.464352 0.648490 0.047851 -0.088873
C13   C     C_3   0.538119 0.359175 0.951674 -0.133670
C14   C     C_3   0.499513 0.501731 0.122197 0.007539
H1    H     H_    0.434531 0.766316 0.090974 0.224087
H2    H     H_    0.202473 0.218348 0.302627 0.344805
H3    H     H_    0.568440 0.241549 0.908177 0.162918
H4    H     H_    0.217383 0.567806 0.939407 0.171300
H5    H     H_    0.784990 0.439935 0.060283 0.176667
H6    H     H_    0.279730 0.302279 0.082355 0.201821
H7    H     H_    0.719748 0.706207 0.912106 0.167359
H8    H     H_    0.013029 0.383942 0.401153 0.217269
H9    H     H_    0.987070 0.617840 0.597912 0.202283
H10   H     H_    0.889786 0.811216 0.288516 0.414145
N1    N     N_2   0.950320 0.457950 0.465730 -0.141043
N2    N     N_2   0.049680 0.542050 0.534270 -0.147794
O1    O     O_R   0.389250 0.738570 0.508410 -0.573501
O2    O     O_2   0.845053 0.116234 0.321205 -0.246021
O3    O     O_3   0.794010 0.825021 0.234603 -0.533512
O4    O     O_2   0.236816 0.820575 0.311690 -0.276881
O5    O     O_2   0.081223 0.983065 0.473376 -0.291674
O6    O     O_3   0.205042 0.112842 0.259402 -0.507115
O7    O     O_R   0.610750 0.261430 0.491590 -0.577612
O8    O     O_R   0.678390 0.711620 0.486450 -0.602579
O9    O     O_R   0.321610 0.288380 0.513550 -0.605036
O10   O     O_R   0.355460 0.513510 0.697030 -0.619844
O11   O     O_R   0.644540 0.486490 0.302970 -0.590388
O12   O     O_R   0.644600 0.486560 0.675070 -0.630779
O13   O     O_R   0.355400 0.513440 0.324930 -0.625228
O14   O     O_2   0.607471 0.056434 0.187878 -0.290306
S1    S     S_3+6 0.705414 0.992470 0.290605 0.075434
S2    S     S_3+6 0.231660 0.983161 0.374108 0.071569
Zn1   Zn    Zn3+2 0.306940 0.517990 0.514670 1.017140
Zn2   Zn    Zn3+2 0.693060 0.482010 0.485330 1.029136

loop_
_geom_bond_atom_site_label_1
_geom_bond_atom_site_label_2
_ccdc_geom_bond_type
C1    O8    A    
C2    C4    S    
C9    C14   S    
O12   Zn2   S    
C6    C7    S    
O5    S2    D    
H2    O6    S    
C7    O7    A    
C3    C13   S    
C12   H1    S    
C13   H3    S    
O11   Zn2   S    
C9    O11   A    
O8    Zn2   S    
C3    H6    S    
C3    C10   S    
C4    C11   S    
C4    H7    S    
C11   C13   S    
C11   H5    S    
C3    C14   S    
C10   C12   S    
C10   H4    S    
C1    C5    S    
N1    Zn2   S    
O14   S1    D    
C12   C14   S    
N2    Zn1   S    
C8    O12   A    
C6    S2    S    
C5    C6    D    
C11   C14   S    
C4    C12   S    
C5    S1    S    
C2    C10   S    
O1    Zn1   S    
O2    S1    D    
C9    O13   A    
O9    Zn1   S    
C8    O10   A    
H9    N2    S    
C1    O1    A    
C2    C13   S    
O6    S2    S    
H10   O3    S    
O4    S2    D    
O10   Zn1   S    
O13   Zn1   S    
O3    S1    S    
N1    N2    D    
O7    Zn2   S    
C7    O9    A    
C2    C8    S    
H8    N1    S    
