data_mof_unit_34736.cif
_audit_creation_date              2012-12-11T18:09:21-0500
_audit_creation_method            fapswitch 2.2
_symmetry_space_group_name_H-M    P1
_symmetry_Int_Tables_number       1
_space_group_crystal_system       triclinic
_cell_length_a                    8.280173
_cell_length_b                    12.610743
_cell_length_c                    19.018366
_cell_angle_alpha                 99.20628
_cell_angle_beta                  91.6767
_cell_angle_gamma                 98.379246
_cell_volume                      1936.56240507

loop_
_atom_site_label
_atom_site_type_symbol
_atom_type_description
_atom_site_fract_x
_atom_site_fract_y
_atom_site_fract_z
_atom_type_partial_charge
Ba1   Ba    Ba6+2 0.853180 0.547790 0.465300 1.652428
Ba2   Ba    Ba6+2 0.336650 0.452300 0.534710 1.650277
C1    C     C_3   0.582974 0.919954 0.253410 0.273278
C2    C     C_R   0.020511 0.542446 0.726985 0.056205
C3    C     C_R   0.850326 0.409637 0.811467 -0.161586
C4    C     C_3   0.100605 0.794603 0.270369 0.277976
C5    C     C_R   0.785791 0.417377 0.744277 0.013398
C6    C     C_R   0.335058 0.590433 0.188431 -0.159417
C7    C     C_R   0.405645 0.583226 0.254986 0.004407
C8    C     C_R   0.139586 0.433328 0.198874 -0.161316
C9    C     C_R   0.173809 0.455336 0.273444 0.062453
C10   C     C_R   0.980980 0.487989 0.845808 -0.003732
C11   C     C_R   0.879754 0.473524 0.699751 -0.227425
C12   C     C_3   0.615527 0.838395 0.301232 0.417946
C13   C     C_R   0.208456 0.508103 0.154580 0.000988
C14   C     C_R   0.315145 0.524925 0.300027 -0.240390
C15   C     C_R   0.756376 0.432252 0.961225 -0.076633
C16   C     C_3   0.075958 0.849448 0.205425 -0.258502
C17   C     C_R   0.651125 0.388273 0.008068 -0.097565
C18   C     C_R   0.702580 0.397050 0.078395 -0.078124
C19   C     C_R   0.861117 0.444679 0.100192 -0.039772
C20   C     C_R   0.981874 0.467401 0.051247 0.072526
C21   C     C_R   0.926549 0.462550 0.978045 0.055340
C22   C     C_R   0.150484 0.500950 0.075176 0.023520
C23   C     C_3   0.464101 0.279888 0.316797 0.305853
C24   C     C_R   0.261621 0.529286 0.022124 0.065813
C25   C     C_R   0.206685 0.520210 0.948614 0.025828
C26   C     C_R   0.038040 0.490571 0.925004 -0.008830
C27   C     C_R   0.431186 0.564225 0.039098 -0.058813
C28   C     C_3   0.259647 0.790360 0.622969 0.283583
C29   C     C_R   0.534041 0.607578 0.991138 -0.083829
C30   C     C_R   0.483431 0.590657 0.920083 -0.065120
C31   C     C_R   0.327185 0.537027 0.899042 -0.084162
C32   C     C_R   0.760799 0.184120 0.528969 -0.278310
C33   C     C_R   0.432913 0.806741 0.469075 -0.276630
C34   C     C_3   0.444607 0.246623 0.236237 -0.397489
C35   C     C_R   0.405497 0.983966 0.443610 -0.115888
C36   C     C_R   0.342854 0.874952 0.439673 -0.008169
C37   C     C_R   0.578818 0.848688 0.508959 0.049177
C38   C     C_R   0.642023 0.960979 0.516268 -0.066655
C39   C     C_R   0.554649 0.028689 0.481876 -0.068289
C40   C     C_3   0.225273 0.905076 0.622327 -0.313193
C41   C     C_R   0.616644 0.140003 0.488231 0.039679
C42   C     C_R   0.851688 0.117973 0.560178 -0.024391
C43   C     C_R   0.790781 0.007466 0.555198 -0.065861
C44   C     C_3   0.951092 0.209987 0.381329 0.269330
C45   C     C_3   0.023568 0.172113 0.731058 0.335590
C46   C     C_3   0.965628 0.090264 0.372648 -0.314672
C47   C     C_3   0.723770 0.699734 0.678370 0.337249
C48   C     C_3   0.751442 0.732722 0.758798 -0.358651
C49   C     C_3   0.576013 0.883940 0.129312 0.221717
C50   C     C_2   0.947125 0.068895 0.755457 0.879490
C51   C     C_3   0.543361 0.147745 0.879359 0.181766
C52   C     C_2   0.072845 0.772607 0.136186 0.845742
C53   C     C_3   0.120867 0.248833 0.793206 -0.302026
C54   C     C_3   0.525851 0.176437 0.712538 0.351522
C55   C     C_3   0.505813 0.085391 0.757392 0.281713
C56   C     C_R   0.056766 0.561485 0.801714 -0.149782
H1    H     H_    0.690432 0.882027 0.349421 -0.021862
H2    H     H_    0.833667 0.669702 0.656317 -0.000141
H3    H     H_    0.617501 0.633860 0.667370 0.072896
H4    H     H_    0.701292 0.968819 0.243644 -0.022029
H5    H     H_    0.866395 0.791030 0.771583 0.135022
H6    H     H_    0.760779 0.660140 0.783879 0.048931
H7    H     H_    0.647450 0.771060 0.781180 0.129890
H8    H     H_    0.495772 0.803155 0.318963 -0.130661
H9    H     H_    0.508030 0.977553 0.282485 0.029670
H10   H     H_    0.348243 0.304331 0.336470 0.018919
H11   H     H_    0.564028 0.350089 0.329170 0.070333
H12   H     H_    0.251325 0.954004 0.676300 0.105346
H13   H     H_    0.342576 0.178355 0.221854 0.130204
H14   H     H_    0.418229 0.316259 0.211222 0.055990
H15   H     H_    0.558998 0.220927 0.215414 0.119772
H16   H     H_    0.175625 0.919429 0.207049 0.113157
H17   H     H_    0.924888 0.214477 0.713734 -0.107522
H18   H     H_    0.171157 0.326033 0.775632 0.129947
H19   H     H_    0.041971 0.266340 0.838284 0.084543
H20   H     H_    0.221847 0.211424 0.813460 0.135648
H21   H     H_    0.656689 0.192154 0.700391 -0.075788
H22   H     H_    0.452782 0.148794 0.661119 0.023415
H23   H     H_    0.300953 0.944515 0.583593 0.065230
H24   H     H_    0.533314 0.010282 0.723757 0.049410
H25   H     H_    0.375702 0.067824 0.771440 0.010690
H26   H     H_    0.017089 0.715901 0.264991 0.079410
H27   H     H_    0.148991 0.629398 0.823666 0.076469
H28   H     H_    0.793626 0.343359 0.836176 0.088681
H29   H     H_    0.385972 0.656976 0.162767 0.139173
H30   H     H_    0.053478 0.361782 0.177143 0.052975
H31   H     H_    0.836407 0.469692 0.645037 0.056504
H32   H     H_    0.359025 0.529555 0.354747 0.065891
H33   H     H_    0.696849 0.447841 0.914117 0.074265
H34   H     H_    0.094006 0.901918 0.607538 0.159113
H35   H     H_    0.523724 0.359770 0.991859 0.063253
H36   H     H_    0.615897 0.375414 0.117165 0.076841
H37   H     H_    0.229311 0.779805 0.273882 -0.017778
H38   H     H_    0.883735 0.466810 0.156219 0.129463
H39   H     H_    0.492600 0.552694 0.087002 0.068851
H40   H     H_    0.660171 0.640638 0.007318 0.114063
H41   H     H_    0.569644 0.610807 0.880847 0.092427
H42   H     H_    0.302548 0.507485 0.843580 0.125509
H43   H     H_    0.332835 0.032980 0.418611 0.101287
H44   H     H_    0.863135 0.958868 0.580172 0.137274
H45   H     H_    0.821271 0.219594 0.384120 0.004236
H46   H     H_    0.808707 0.269417 0.532151 0.062040
H47   H     H_    0.382914 0.721676 0.465174 0.064468
H48   H     H_    0.958556 0.882243 0.207981 0.071363
H49   H     H_    0.392387 0.792884 0.633400 0.014145
H50   H     H_    0.219330 0.742002 0.569605 0.038349
H51   H     H_    0.503535 0.837421 0.081438 0.111366
H52   H     H_    0.697142 0.855303 0.129754 0.027426
H53   H     H_    0.590315 0.971652 0.124496 0.018613
H54   H     H_    0.909529 0.982195 0.835733 0.318818
H55   H     H_    0.437739 0.087360 0.889709 0.039883
H56   H     H_    0.019925 0.250582 0.431752 0.069371
H57   H     H_    0.503585 0.227836 0.876313 0.055535
H58   H     H_    0.634302 0.159447 0.925430 0.072794
H59   H     H_    0.844492 0.696892 0.146759 0.291935
H60   H     H_    0.911393 0.047932 0.320047 0.116780
H61   H     H_    0.902352 0.052237 0.415021 0.076964
H62   H     H_    0.096477 0.081025 0.375640 0.142496
O1    O     O_2   0.875110 0.423180 0.326290 -0.471750
O2    O     O_2   0.179132 0.122150 0.542641 -0.472430
O3    O     O_3   0.131147 0.146154 0.677012 -0.619989
O4    O     O_3   0.123410 0.433040 0.414950 -0.492985
O5    O     O_3   0.577950 0.634370 0.536140 -0.504816
O6    O     O_2   0.341900 0.231310 0.465740 -0.457691
O7    O     O_3   0.501020 0.191563 0.347304 -0.658172
O8    O     O_2   0.482752 0.478794 0.754960 -0.508750
O9    O     O_3   0.468761 0.268182 0.749661 -0.609026
O10   O     O_3   0.661010 0.625070 0.369680 -0.460833
O11   O     O_2   0.730003 0.553225 0.240875 -0.513796
O12   O     O_3   0.694584 0.790329 0.648757 -0.602284
O13   O     O_3   0.012455 0.250098 0.321335 -0.636212
O14   O     O_3   0.702765 0.760900 0.264148 -0.607494
O15   O     O_2   0.847800 0.768730 0.534310 -0.458634
O16   O     O_3   0.082250 0.684470 0.405440 -0.480258
O17   O     O_2   0.023952 0.878673 0.464551 -0.473990
O18   O     O_3   0.492083 0.864461 0.190676 -0.643958
O19   O     O_2   0.862636 0.998221 0.713080 -0.632348
O20   O     O_R   0.970310 0.053849 0.826271 -0.763506
O21   O     O_3   0.619530 0.110035 0.817074 -0.631299
O22   O     O_2   0.187848 0.781205 0.097894 -0.570790
O23   O     O_3   0.063782 0.864944 0.330549 -0.602029
O24   O     O_R   0.937105 0.694034 0.113254 -0.756266
O25   O     O_2   0.314600 0.576860 0.673750 -0.468835
O26   O     O_3   0.066300 0.567050 0.585060 -0.490562
O27   O     O_3   0.528700 0.375020 0.630330 -0.460417
O28   O     O_3   0.176486 0.749984 0.678655 -0.627601
O29   O     O_3   0.611760 0.365720 0.463870 -0.484408
O30   O     O_3   0.107460 0.315620 0.594570 -0.465324
P1    P     P_3+3 0.042930 0.392230 0.337410 0.974571
P2    P     P_3+3 0.672230 0.754900 0.555730 0.975086
P3    P     P_3+3 0.130400 0.824597 0.408674 0.959053
P4    P     P_3+3 0.146790 0.607860 0.662600 0.983080
P5    P     P_3+3 0.063036 0.175030 0.594709 0.971731
P6    P     P_3+3 0.623092 0.631320 0.280533 0.951459
P7    P     P_3+3 0.520210 0.230250 0.440074 0.925224
P8    P     P_3+3 0.567342 0.383876 0.720913 0.945410

loop_
_geom_bond_atom_site_label_1
_geom_bond_atom_site_label_2
_ccdc_geom_bond_type
Ba2   O30   S    
C2    P4    S    
C14   H32   S    
Ba2   O26   S    
C28   H49   S    
C48   H6    S    
O2    P5    D    
H54   O20   S    
C52   O24   S    
C17   C18   A    
O13   P1    S    
O8    P8    D    
C46   H62   S    
C5    P8    S    
O3    P5    S    
C25   C31   A    
Ba2   O25   S    
C12   H1    S    
C40   H23   S    
C8    H30   S    
C24   C25   A    
C15   C21   A    
C47   H2    S    
C10   C26   S    
O11   P6    D    
C7    C14   A    
Ba1   O5    S    
C8    C13   A    
C53   H19   S    
O23   P3    S    
O15   P2    D    
C40   H12   S    
C50   O19   D    
C54   C55   S    
Ba1   P2    S    
Ba1   Ba2   S    
C29   H40   S    
C2    C11   A    
C15   C17   A    
O14   P6    S    
C7    P6    S    
C6    C7    A    
C15   H33   S    
C55   H25   S    
Ba1   O29   S    
Ba1   O16   S    
O7    P7    S    
C51   O21   S    
C54   O9    S    
C17   H35   S    
C34   H13   S    
C10   C56   A    
Ba2   O29   S    
O6    P7    D    
C16   H16   S    
C19   C20   A    
C48   H5    S    
C39   C41   A    
Ba1   O26   S    
C23   H10   S    
O28   P4    S    
O9    P8    S    
C51   H55   S    
C46   H61   S    
C38   C43   A    
C4    C16   S    
C47   O12   S    
C44   C46   S    
C47   H3    S    
C44   H56   S    
O17   P3    D    
C33   C36   A    
C4    H26   S    
C3    C10   A    
Ba1   O10   S    
C8    C9    A    
C37   C38   A    
C3    C5    A    
C53   H20   S    
C46   H60   S    
C12   O14   S    
Ba2   O27   S    
C37   P2    S    
C32   H46   S    
O1    P1    D    
C33   C37   A    
C16   H48   S    
C35   C36   A    
C33   H47   S    
O5    P2    S    
C9    C14   A    
C45   O3    S    
C29   C30   A    
O26   P4    S    
H59   O24   S    
C12   H8    S    
C32   C42   A    
C1    O18   S    
C21   C26   A    
C54   H21   S    
C1    C12   S    
C27   H39   S    
C53   H18   S    
Ba2   O6    S    
C9    P1    S    
C38   C39   A    
C52   O22   D    
O4    P1    S    
C4    H37   S    
C6    C13   A    
O30   P5    S    
O12   P2    S    
C20   C22   A    
C23   H11   S    
C3    H28   S    
C56   H27   S    
C42   C43   A    
C45   C53   S    
C1    H4    S    
C18   H36   S    
C13   C22   S    
C49   H53   S    
C11   H31   S    
C55   H24   S    
C42   P5    S    
C1    H9    S    
C32   C41   A    
C22   C24   A    
C41   P7    S    
C51   H58   S    
C28   O28   S    
C45   C50   S    
C19   H38   S    
Ba2   O4    S    
C49   H52   S    
C44   H45   S    
C54   H22   S    
C30   H41   S    
C55   O21   S    
C6    H29   S    
C30   C31   A    
C31   H42   S    
C23   O7    S    
Ba1   O4    S    
C45   H17   S    
C27   C29   A    
C49   O18   S    
C44   O13   S    
C35   H43   S    
O16   P3    S    
Ba2   P4    S    
O29   P7    S    
C50   O20   S    
Ba1   P1    S    
C40   H34   S    
C35   C39   A    
C48   H7    S    
Ba1   O1    S    
C43   H44   S    
C16   C52   S    
C23   C34   S    
Ba2   O5    S    
C34   H14   S    
C5    C11   A    
C18   C19   A    
C24   C27   A    
C49   H51   S    
C47   C48   S    
C2    C56   A    
C25   C26   A    
C20   C21   A    
C28   C40   S    
O10   P6    S    
C36   P3    S    
O25   P4    D    
C4    O23   S    
Ba1   O15   S    
O27   P8    S    
C28   H50   S    
C34   H15   S    
C51   H57   S    
