data_mof_unit_32169.cif
_audit_creation_date              2012-12-11T15:17:40-0500
_audit_creation_method            fapswitch 2.2
_symmetry_space_group_name_H-M    P1
_symmetry_Int_Tables_number       1
_space_group_crystal_system       triclinic
_cell_length_a                    6.931481
_cell_length_b                    20.08477
_cell_length_c                    22.371632
_cell_angle_alpha                 90.0
_cell_angle_beta                  90.000029
_cell_angle_gamma                 90.038574
_cell_volume                      3114.51529742

loop_
_atom_site_label
_atom_site_type_symbol
_atom_type_description
_atom_site_fract_x
_atom_site_fract_y
_atom_site_fract_z
_atom_type_partial_charge
O1    O     O_R   0.620180 0.810610 0.187990 -0.538737
O2    O     O_R   0.379820 0.189390 0.812010 -0.538737
O3    O     O_R   0.379820 0.189390 0.687990 -0.538737
O4    O     O_R   0.620180 0.810610 0.312010 -0.538737
O5    O     O_R   0.120180 0.689390 0.312010 -0.543657
O6    O     O_R   0.879820 0.310610 0.687990 -0.543657
O7    O     O_R   0.879820 0.310610 0.812010 -0.543657
O8    O     O_R   0.120180 0.689390 0.187990 -0.543657
O9    O     O_R   0.290420 0.818570 0.311590 -0.544703
O10   O     O_R   0.709580 0.181430 0.688410 -0.544703
O11   O     O_R   0.709580 0.181430 0.811590 -0.544704
O12   O     O_R   0.290420 0.818570 0.188410 -0.544703
O13   O     O_R   0.790420 0.681430 0.188410 -0.536416
O14   O     O_R   0.209580 0.318570 0.811590 -0.536416
O15   O     O_R   0.209580 0.318570 0.688410 -0.536416
O16   O     O_R   0.790420 0.681430 0.311590 -0.536416
C1    C     C_R   0.459455 0.834585 0.332349 0.708296
C2    C     C_R   0.540545 0.165415 0.667651 0.708296
C3    C     C_R   0.540545 0.165415 0.832349 0.708296
C4    C     C_R   0.459455 0.834585 0.167651 0.708296
C5    C     C_R   0.959350 0.665233 0.167805 0.707111
C6    C     C_R   0.040650 0.334767 0.832195 0.707111
C7    C     C_R   0.040650 0.334767 0.667805 0.707111
C8    C     C_R   0.959350 0.665233 0.332195 0.707111
H1    H     H_    0.748956 0.420696 0.644107 0.182363
H2    H     H_    0.251044 0.579304 0.355893 0.182363
H3    H     H_    0.251044 0.579304 0.144107 0.182363
H4    H     H_    0.748956 0.420696 0.855893 0.182363
H5    H     H_    0.806012 0.071706 0.862966 0.182482
H6    H     H_    0.193988 0.928294 0.137034 0.182482
H7    H     H_    0.193985 0.928293 0.362967 0.182482
H8    H     H_    0.806015 0.071707 0.637033 0.182482
H9    H     H_    0.554438 0.590860 0.508913 0.148126
H10   H     H_    0.445562 0.409139 0.491086 0.148126
H11   H     H_    0.445562 0.409140 0.008913 0.148126
H12   H     H_    0.554438 0.590860 0.991086 0.148126
H13   H     H_    0.922602 0.896469 0.001526 0.143725
H14   H     H_    0.077397 0.103531 0.998474 0.143725
H15   H     H_    0.077396 0.103530 0.501527 0.143725
H16   H     H_    0.922604 0.896470 0.498473 0.143725
H17   H     H_    0.308684 0.359159 0.581797 0.114147
H18   H     H_    0.691316 0.640841 0.418203 0.114146
H19   H     H_    0.691315 0.640841 0.081797 0.114147
H20   H     H_    0.308684 0.359159 0.918203 0.114147
H21   H     H_    0.249679 0.149601 0.912367 0.113915
H22   H     H_    0.750321 0.850399 0.087633 0.113915
H23   H     H_    0.750323 0.850400 0.412366 0.113916
H24   H     H_    0.249677 0.149599 0.587634 0.113916
O17   O     O_3   0.453640 0.707610 0.250000 -0.366687
O18   O     O_3   0.546360 0.292390 0.750000 -0.366687
O19   O     O_3   0.953640 0.792390 0.250000 -0.367618
O20   O     O_3   0.046360 0.207610 0.750000 -0.367618
V1    V     V_3+5 0.178800 0.757860 0.250000 1.437987
V2    V     V_3+5 0.821200 0.242140 0.750000 1.437987
V3    V     V_3+5 0.678800 0.742140 0.250000 1.461526
V4    V     V_3+5 0.321200 0.257860 0.750000 1.461526
C9    C     C_R   0.182354 0.390603 0.577435 -0.100298
C10   C     C_R   0.817646 0.609397 0.422565 -0.100298
C11   C     C_R   0.817645 0.609397 0.077435 -0.100298
C12   C     C_R   0.182355 0.390603 0.922565 -0.100298
C13   C     C_R   0.366527 0.114606 0.919444 -0.127285
C14   C     C_R   0.633473 0.885394 0.080556 -0.127285
C15   C     C_R   0.633474 0.885395 0.419444 -0.127285
C16   C     C_R   0.366526 0.114605 0.580556 -0.127285
C17   C     C_R   0.030189 0.384428 0.618704 -0.111522
C18   C     C_R   0.969811 0.615572 0.381296 -0.111522
C19   C     C_R   0.969811 0.615572 0.118704 -0.111522
C20   C     C_R   0.030189 0.384428 0.881296 -0.111522
C21   C     C_R   0.529361 0.116208 0.881829 -0.110603
C22   C     C_R   0.470639 0.883792 0.118171 -0.110603
C23   C     C_R   0.470639 0.883792 0.381829 -0.110603
C24   C     C_R   0.529361 0.116208 0.618171 -0.110603
C25   C     C_R   0.866096 0.425088 0.612252 -0.150000
C26   C     C_R   0.133904 0.574912 0.387748 -0.150000
C27   C     C_R   0.133904 0.574912 0.112252 -0.150000
C28   C     C_R   0.866096 0.425087 0.887748 -0.150000
C29   C     C_R   0.680689 0.070876 0.891923 -0.155765
C30   C     C_R   0.319311 0.929124 0.108077 -0.155765
C31   C     C_R   0.319310 0.929123 0.391924 -0.155767
C32   C     C_R   0.680690 0.070877 0.608076 -0.155767
C33   C     C_R   0.853722 0.471882 0.565593 -0.006630
C34   C     C_R   0.146278 0.528118 0.434407 -0.006630
C35   C     C_R   0.146278 0.528118 0.065593 -0.006630
C36   C     C_R   0.853722 0.471882 0.934407 -0.006630
C37   C     C_R   0.669451 0.023877 0.938472 -0.001110
C38   C     C_R   0.330549 0.976123 0.061528 -0.001110
C39   C     C_R   0.330548 0.976122 0.438473 -0.001110
C40   C     C_R   0.669452 0.023878 0.561527 -0.001110
C41   C     C_R   0.005973 0.476934 0.523840 -0.022561
C42   C     C_R   0.994027 0.523066 0.476159 -0.022561
C43   C     C_R   0.994027 0.523066 0.023840 -0.022560
C44   C     C_R   0.005973 0.476934 0.976159 -0.022561
C45   C     C_R   0.506118 0.023242 0.976321 -0.011089
C46   C     C_R   0.493882 0.976758 0.023679 -0.011089
C47   C     C_R   0.493882 0.976758 0.476321 -0.011089
C48   C     C_R   0.506118 0.023242 0.523679 -0.011089
C49   C     C_R   0.170178 0.435887 0.529668 0.080191
C50   C     C_R   0.829822 0.564113 0.470331 0.080191
C51   C     C_R   0.829822 0.564113 0.029668 0.080191
C52   C     C_R   0.170178 0.435887 0.970331 0.080191
C53   C     C_R   0.354826 0.068998 0.966861 0.077292
C54   C     C_R   0.645173 0.931002 0.033139 0.077292
C55   C     C_R   0.645174 0.931003 0.466861 0.077293
C56   C     C_R   0.354826 0.068997 0.533139 0.077293
C57   C     C_R   0.692248 0.513789 0.559786 0.595166
C58   C     C_R   0.307752 0.486210 0.440214 0.595166
C59   C     C_R   0.307752 0.486210 0.059786 0.595165
C60   C     C_R   0.692248 0.513789 0.940214 0.595165
C61   C     C_R   0.817886 0.977322 0.947913 0.603858
C62   C     C_R   0.182114 0.022678 0.052087 0.603858
C63   C     C_R   0.182113 0.022677 0.447914 0.603857
C64   C     C_R   0.817887 0.977323 0.552086 0.603857
C65   C     C_R   0.680851 0.559399 0.512589 -0.215427
C66   C     C_R   0.319149 0.440601 0.487411 -0.215427
C67   C     C_R   0.319149 0.440601 0.012589 -0.215427
C68   C     C_R   0.680851 0.559399 0.987411 -0.215427
C69   C     C_R   0.805640 0.931483 0.994891 -0.198177
C70   C     C_R   0.194359 0.068516 0.005108 -0.198177
C71   C     C_R   0.194358 0.068516 0.494892 -0.198175
C72   C     C_R   0.805642 0.931484 0.505108 -0.198175
F1    F     F_    0.544783 0.510603 0.599649 -0.680396
F2    F     F_    0.455217 0.489397 0.400351 -0.680396
F3    F     F_    0.455217 0.489397 0.099649 -0.680395
F4    F     F_    0.544783 0.510603 0.900351 -0.680395
F5    F     F_    0.975271 0.976093 0.911780 -0.684898
F6    F     F_    0.024729 0.023907 0.088220 -0.684898
F7    F     F_    0.024728 0.023906 0.411780 -0.684899
F8    F     F_    0.975272 0.976094 0.588220 -0.684899

loop_
_geom_bond_atom_site_label_1
_geom_bond_atom_site_label_2
_ccdc_geom_bond_type
O14   V4    S    
C40   C48   A    
C45   C46   A    
C14   C54   A    
C22   C30   A    
C11   C51   A    
C21   C29   A    
C47   C48   A    
C10   C50   A    
C59   F3    S    
C60   C68   A    
C4    C22   S    
C62   C70   A    
C31   C39   A    
C61   C69   A    
O11   C3    A    
O18   V2    S    
C58   C66   A    
C53   C70   A    
C57   C65   A    
C38   C62   A    
C26   C34   A    
C37   C61   A    
H23   C15   S    
H15   C71   S    
H24   C16   S    
C39   C63   A    
C13   C21   A    
C18   C26   A    
C17   C25   A    
C14   C22   A    
O3    C2    A    
C63   C71   A    
H18   C10   S    
C38   C46   A    
C11   C19   A    
C37   C45   A    
C10   C18   A    
C55   C72   A    
C34   C58   A    
C47   C55   A    
C39   C47   A    
H11   C67   S    
C60   F4    S    
H1    C25   S    
O12   V1    S    
H19   C11   S    
C56   C71   A    
C33   C41   A    
C30   C38   A    
O15   C7    A    
C29   C37   A    
O16   C8    A    
C5    C19   S    
O12   C4    A    
C52   C67   A    
O6    V2    S    
H3    C27   S    
C25   C33   A    
O20   V2    S    
C2    C24   S    
C7    C17   S    
C33   C57   A    
C28   C36   A    
H20   C12   S    
C57   F1    S    
C15   C55   A    
C45   C53   A    
C51   C68   A    
C64   C72   A    
C50   C65   A    
O17   V3    S    
O18   V4    S    
C23   C31   A    
C41   C49   A    
O19   V1    S    
H6    C30   S    
C13   C53   A    
C49   C66   A    
O9    V1    S    
H8    C32   S    
O3    V4    S    
C9    C49   A    
C58   F2    S    
O8    C5    A    
O13   C5    A    
C20   C28   A    
O9    C1    A    
O11   V2    S    
C6    C20   S    
C54   C69   A    
C62   F6    S    
O4    C1    A    
C61   F5    S    
H16   C72   S    
H22   C14   S    
C1    C23   S    
C48   C56   A    
O4    V3    S    
C63   F7    S    
C3    C21   S    
C19   C27   A    
H12   C68   S    
C43   C44   A    
C44   C52   A    
O5    V1    S    
C16   C56   A    
O1    C4    A    
O2    C3    A    
C15   C23   A    
C12   C52   A    
O8    V1    S    
H7    C31   S    
C8    C18   S    
H10   C66   S    
O7    C6    A    
C35   C43   A    
H9    C65   S    
C34   C42   A    
C43   C51   A    
O15   V4    S    
O14   C6    A    
O1    V3    S    
O16   V3    S    
H17   C9    S    
C32   C40   A    
O2    V4    S    
C40   C64   A    
C27   C35   A    
O5    C8    A    
O10   C2    A    
O17   V1    S    
O6    C7    A    
H21   C13   S    
H2    C26   S    
H13   C69   S    
C35   C59   A    
C59   C67   A    
O19   V3    S    
C16   C24   A    
O10   V2    S    
C64   F8    S    
H14   C70   S    
C36   C60   A    
H5    C29   S    
C12   C20   A    
C24   C32   A    
C36   C44   A    
O7    V2    S    
O13   V3    S    
C41   C42   A    
C42   C50   A    
O20   V4    S    
C46   C54   A    
C9    C17   A    
H4    C28   S    
