data_mof_unit_59184.cif
_audit_creation_date              2012-12-11T16:51:05-0500
_audit_creation_method            fapswitch 2.2
_symmetry_space_group_name_H-M    P1
_symmetry_Int_Tables_number       1
_space_group_crystal_system       triclinic
_cell_length_a                    6.931315
_cell_length_b                    28.796262
_cell_length_c                    32.129033
_cell_angle_alpha                 100.79837
_cell_angle_beta                  89.635267
_cell_angle_gamma                 90.636289
_cell_volume                      6298.82231076

loop_
_atom_site_label
_atom_site_type_symbol
_atom_type_description
_atom_site_fract_x
_atom_site_fract_y
_atom_site_fract_z
_atom_type_partial_charge
O1    O     O_R   0.494350 0.453170 0.452520 -0.538520
O2    O     O_R   0.820980 0.455850 0.538220 -0.541017
O3    O     O_R   0.994300 0.546830 0.547480 -0.539063
C1    C     C_R   0.651385 0.445693 0.551573 0.730911
O4    O     O_R   0.823860 0.447590 0.452270 -0.543347
O5    O     O_R   0.997200 0.538510 0.460920 -0.536255
C2    C     C_R   0.654754 0.434822 0.436548 0.691292
O6    O     O_R   0.491440 0.461490 0.539080 -0.536314
O7    O     O_3   0.661790 0.529840 0.502940 -0.367560
V1    V     V_3+5 0.935470 0.494460 0.499450 1.407905
O8    O     O_R   0.327090 0.544150 0.461780 -0.541699
C3    C     C_R   0.159118 0.553967 0.448113 0.725184
O9    O     O_R   0.324210 0.552410 0.547730 -0.543812
C4    C     C_R   0.155531 0.565290 0.563373 0.718575
V2    V     V_3+5 0.435840 0.505540 0.500550 1.406363
O10   O     O_3   0.159650 0.470160 0.497060 -0.367198
C5    C     C_R   0.222962 0.885185 0.877734 -0.220585
H1    H     H_    0.351100 0.905567 0.888547 0.196942
C6    C     C_R   0.238016 0.849152 0.842068 -0.130115
C7    C     C_R   0.074934 0.822715 0.825783 0.052232
C8    C     C_R   0.896741 0.832783 0.846399 -0.220683
H2    H     H_    0.768867 0.812847 0.834419 0.120472
C9    C     C_R   0.881177 0.868014 0.883084 0.463143
C10   C     C_R   0.045320 0.895424 0.898776 -0.164225
C11   C     C_R   0.948249 0.779772 0.755641 -0.135686
H3    H     H_    0.826900 0.803550 0.758621 0.133054
C12   C     C_R   0.963334 0.744606 0.719318 -0.211896
H4    H     H_    0.853231 0.742106 0.695230 0.169408
C13   C     C_R   0.119749 0.713359 0.713697 -0.004073
C14   C     C_R   0.260018 0.717401 0.746013 0.532925
C15   C     C_R   0.246609 0.753669 0.781873 -0.256269
H5    H     H_    0.356610 0.756490 0.806044 0.128587
C16   C     C_R   0.090254 0.784950 0.787244 0.039677
C17   C     C_R   0.300869 0.669418 0.649558 0.540052
C18   C     C_R   0.308820 0.632704 0.613949 -0.265236
H6    H     H_    0.441730 0.627506 0.595828 0.142310
C19   C     C_R   0.146626 0.603839 0.601299 -0.118593
C20   C     C_R   0.976114 0.612008 0.625368 -0.158997
H7    H     H_    0.848485 0.590440 0.616597 0.140503
C21   C     C_R   0.969094 0.647443 0.661653 -0.213233
C22   C     C_R   0.131334 0.676141 0.674600 0.003973
C23   C     C_R   0.213700 0.663234 0.286583 0.602192
N1    N     N_R   0.103485 0.672305 0.322713 -0.534375
C24   C     C_R   0.978431 0.709586 0.329631 0.610879
C25   C     C_R   0.962128 0.739600 0.299762 -0.095009
C26   C     C_R   0.078314 0.731445 0.263113 -0.025405
C27   C     C_R   0.205934 0.692995 0.256477 -0.014790
C28   C     C_R   0.832665 0.777414 0.305723 -0.223922
C29   C     C_R   0.817126 0.806997 0.275767 0.478480
C30   C     C_R   0.939431 0.800270 0.239560 -0.140520
C31   C     C_R   0.067618 0.761774 0.233097 -0.089337
C32   C     C_R   0.186189 0.753518 0.196702 -0.012889
C33   C     C_R   0.313092 0.715045 0.190511 -0.158707
C34   C     C_R   0.322646 0.685147 0.219975 -0.148595
C35   C     C_R   0.938005 0.830654 0.209519 0.608140
N2    N     N_R   0.054395 0.822032 0.174166 -0.560443
C36   C     C_R   0.176036 0.784061 0.167342 0.557660
O11   O     O_2   0.329542 0.625329 0.279558 -0.542242
O12   O     O_2   0.870227 0.717639 0.365253 -0.537370
H8    H     H_    0.741121 0.784191 0.333615 0.182714
O13   O     O_2   0.823795 0.868962 0.215876 -0.487062
O14   O     O_2   0.286245 0.775565 0.132014 -0.533589
H9    H     H_    0.422581 0.655972 0.214115 0.173093
C37   C     C_R   0.216080 0.877094 0.133800 -0.080956
H10   H     H_    0.350723 0.872715 0.149478 0.138405
C38   C     C_R   0.211066 0.906777 0.103869 -0.201887
H11   H     H_    0.342814 0.924606 0.097139 0.135165
C39   C     C_R   0.037814 0.913687 0.083271 -0.055148
C40   C     C_R   0.870006 0.889961 0.093380 -0.190691
H12   H     H_    0.734077 0.894289 0.078185 0.131100
C41   C     C_R   0.875647 0.859966 0.123022 -0.089538
H13   H     H_    0.745105 0.841718 0.129844 0.138320
C42   C     C_R   0.048580 0.853261 0.143613 0.364644
C43   C     C_R   0.259104 0.651879 0.385836 -0.206094
H14   H     H_    0.356016 0.681841 0.387011 0.154110
C44   C     C_R   0.275308 0.622987 0.416287 -0.213294
H15   H     H_    0.383999 0.631267 0.440694 0.144377
C45   C     C_R   0.149411 0.584307 0.415634 -0.103733
C46   C     C_R   0.011528 0.574268 0.383307 -0.282125
H16   H     H_    0.920078 0.543169 0.381258 0.134933
C47   C     C_R   0.993821 0.603168 0.352697 0.498397
C48   C     C_R   0.119069 0.642191 0.353857 0.306913
C49   C     C_R   0.654555 0.221071 0.835792 0.592395
N3    N     N_R   0.578993 0.176299 0.824963 -0.564845
C50   C     C_R   0.509935 0.159756 0.784954 0.599808
C51   C     C_R   0.514092 0.188750 0.753844 -0.119450
C52   C     C_R   0.592404 0.234974 0.764752 -0.080728
C53   C     C_R   0.662317 0.251239 0.806007 -0.064740
C54   C     C_R   0.441677 0.173183 0.712363 0.464559
C55   C     C_R   0.459736 0.202290 0.682081 -0.225072
C56   C     C_R   0.537646 0.248115 0.692713 -0.080224
C57   C     C_R   0.601406 0.264976 0.734375 -0.079117
C58   C     C_R   0.675453 0.311604 0.745542 -0.109008
C59   C     C_R   0.740394 0.327914 0.787529 0.464315
C60   C     C_R   0.737502 0.297337 0.816801 -0.228214
C61   C     C_R   0.551873 0.277646 0.662519 0.631224
N4    N     N_R   0.618540 0.323170 0.673864 -0.549024
C62   C     C_R   0.680627 0.340438 0.714289 0.598945
O15   O     O_2   0.720099 0.236610 0.875468 -0.525298
O16   O     O_2   0.439751 0.115189 0.775302 -0.487959
H17   H     H_    0.409192 0.188842 0.650217 0.187227
O17   O     O_2   0.499462 0.260941 0.622072 -0.516814
O18   O     O_2   0.748695 0.385197 0.723925 -0.499534
H18   H     H_    0.794090 0.310187 0.848251 0.179746
C63   C     C_R   0.493085 0.390271 0.644634 -0.206089
H19   H     H_    0.384635 0.395925 0.669417 0.144685
C64   C     C_R   0.498736 0.419688 0.614514 -0.204129
C65   C     C_R   0.640525 0.413562 0.582556 -0.106885
C66   C     C_R   0.774089 0.376871 0.580795 -0.277695
H20   H     H_    0.882493 0.371072 0.555972 0.146512
C67   C     C_R   0.766965 0.346807 0.610599 0.522424
C68   C     C_R   0.625378 0.353384 0.642663 0.284871
C69   C     C_R   0.739206 0.129787 0.872048 -0.084417
H21   H     H_    0.878530 0.139699 0.860823 0.117656
C70   C     C_R   0.729751 0.100148 0.901995 -0.196136
H22   H     H_    0.863120 0.087889 0.913349 0.128097
C71   C     C_R   0.550266 0.086409 0.916892 -0.058786
C72   C     C_R   0.380815 0.103267 0.901088 -0.194085
H23   H     H_    0.240140 0.093501 0.911709 0.128126
C73   C     C_R   0.390630 0.132792 0.871113 -0.085748
H24   H     H_    0.258587 0.145288 0.859360 0.118017
C74   C     C_R   0.569719 0.146224 0.856288 0.371288
C75   C     C_R   0.693717 0.102069 0.132609 0.453871
C76   C     C_R   0.701821 0.138270 0.168778 -0.214322
C77   C     C_R   0.569073 0.175425 0.174770 0.032046
C78   C     C_R   0.424659 0.175605 0.144351 -0.143030
H25   H     H_    0.320731 0.203915 0.148155 0.124179
C79   C     C_R   0.414906 0.139741 0.108354 -0.260340
H26   H     H_    0.304102 0.141331 0.085077 0.137127
C80   C     C_R   0.547974 0.102577 0.102090 -0.137231
C81   C     C_R   0.415788 0.228138 0.237208 -0.141096
C82   C     C_R   0.428261 0.263430 0.273626 -0.142991
H27   H     H_    0.298465 0.272500 0.292115 0.103579
C83   C     C_R   0.605970 0.285849 0.286347 0.085882
C84   C     C_R   0.770882 0.271427 0.261568 -0.143604
H28   H     H_    0.909602 0.288273 0.269462 0.103767
C85   C     C_R   0.758775 0.235531 0.225618 -0.144183
H29   H     H_    0.888211 0.225378 0.207233 0.104437
C86   C     C_R   0.581069 0.213620 0.212951 0.107976
C87   C     C_R   0.788058 0.330777 0.349774 -0.131012
H30   H     H_    0.910725 0.307841 0.341832 0.105575
C88   C     C_R   0.800424 0.366788 0.385692 -0.156650
H31   H     H_    0.932660 0.370857 0.403854 0.125802
C89   C     C_R   0.643107 0.396605 0.398370 -0.055186
C90   C     C_R   0.473873 0.389785 0.373968 -0.151823
H32   H     H_    0.350438 0.412384 0.382516 0.121640
C91   C     C_R   0.462514 0.354330 0.337704 -0.135456
C92   C     C_R   0.619040 0.324042 0.325057 0.094019
O19   O     O_R   0.699170 0.038480 0.960880 -0.540411
O20   O     O_R   0.366800 0.052460 0.047690 -0.555576
O21   O     O_R   0.193520 0.961530 0.039110 -0.544744
C93   C     C_R   0.535864 0.064803 0.063656 0.732851
O22   O     O_R   0.369630 0.044100 0.961740 -0.543907
O23   O     O_R   0.196370 0.953120 0.952550 -0.542847
C94   C     C_R   0.539234 0.054317 0.948247 0.707051
O24   O     O_R   0.696320 0.046890 0.047450 -0.519176
O25   O     O_3   0.528890 0.970170 0.997080 -0.361920
V3    V     V_3+5 0.255190 0.005530 0.000540 1.398480
O26   O     O_R   0.866460 0.947530 0.952310 -0.508427
C95   C     C_R   0.035093 0.934418 0.936688 0.724947
O27   O     O_R   0.863630 0.955880 0.038270 -0.536035
C96   C     C_R   0.031444 0.945737 0.051834 0.708209
V4    V     V_3+5 0.754830 0.994440 0.999470 1.469053
O28   O     O_3   0.031000 0.029830 0.002920 -0.375845
H33   H     H_    0.836764 0.652087 0.680022 0.186360
O29   O     O_3   0.686839 0.843644 0.283336 -0.518416
C97   C     C_3   0.504004 0.825697 0.268975 -0.121746
H34   H     H_    0.506994 0.810798 0.234415 0.129888
H35   H     H_    0.399520 0.855142 0.274086 0.173447
H36   H     H_    0.450729 0.798622 0.286991 0.109646
H37   H     H_    0.406204 0.707959 0.162900 0.170276
H38   H     H_    0.377047 0.842714 0.826607 0.136856
O30   O     O_3   0.869398 0.590527 0.318935 -0.549554
C98   C     C_3   0.677272 0.596084 0.333531 -0.160897
H39   H     H_    0.640552 0.634206 0.341311 0.174416
H40   H     H_    0.646254 0.578971 0.361180 0.103666
H41   H     H_    0.581557 0.578539 0.307741 0.216468
O31   O     O_3   0.360874 0.128610 0.700342 -0.521961
C99   C     C_3   0.158218 0.132929 0.701076 -0.115012
H42   H     H_    0.105044 0.149994 0.733032 0.123346
H43   H     H_    0.092914 0.097008 0.693603 0.177980
H44   H     H_    0.108188 0.152819 0.676689 0.116261
O32   O     O_3   0.819303 0.372710 0.799542 -0.527649
C100  C     C_3   0.682959 0.401681 0.824511 -0.147029
H45   H     H_    0.657057 0.390135 0.855246 0.114726
H46   H     H_    0.544447 0.402590 0.807289 0.140876
H47   H     H_    0.741222 0.438328 0.831679 0.163754
H48   H     H_    0.394594 0.447816 0.616671 0.138838
O33   O     O_3   0.891917 0.309314 0.607256 -0.534610
C101  C     C_3   0.070241 0.326482 0.624776 -0.211035
H49   H     H_    0.054057 0.346492 0.657810 0.134610
H50   H     H_    0.143866 0.348621 0.604478 0.142683
H51   H     H_    0.163099 0.295840 0.626163 0.210060
O34   O     O_3   0.812961 0.063290 0.129444 -0.555498
C102  C     C_3   0.003767 0.077042 0.121821 -0.169750
H52   H     H_    0.012385 0.094069 0.093473 0.125667
H53   H     H_    0.094246 0.044937 0.115298 0.158847
H54   H     H_    0.065358 0.100794 0.149984 0.124548
H55   H     H_    0.808737 0.136647 0.192888 0.129437
O35   O     O_3   0.702470 0.877370 0.901890 -0.557424
C103  C     C_3   0.659751 0.842692 0.926358 -0.243529
H56   H     H_    0.522065 0.852038 0.943529 0.164128
H57   H     H_    0.773129 0.841493 0.950546 0.123979
H58   H     H_    0.639603 0.807250 0.905979 0.130141
H59   H     H_    0.277323 0.211447 0.228475 0.107637
H60   H     H_    0.331330 0.351293 0.319272 0.105728
O36   O     O_3   0.413685 0.686743 0.742431 -0.535100
C104  C     C_3   0.362325 0.648555 0.762123 -0.250017
H61   H     H_    0.234731 0.628875 0.746623 0.136258
H62   H     H_    0.334523 0.660638 0.796597 0.130160
H63   H     H_    0.484634 0.623593 0.758825 0.170743
O37   O     O_3   0.461578 0.697865 0.660212 -0.541789
C105  C     C_3   0.455208 0.735396 0.637731 -0.263391
H64   H     H_    0.323616 0.757105 0.645954 0.140578
H65   H     H_    0.463340 0.722207 0.602914 0.135885
H66   H     H_    0.582138 0.758814 0.646768 0.165004

loop_
_geom_bond_atom_site_label_1
_geom_bond_atom_site_label_2
_ccdc_geom_bond_type
C38   C39   A    
C52   C53   A    
C101  H49   S    
C102  H53   S    
C61   O17   S    
C12   C13   A    
C103  H56   S    
C91   C92   A    
C1    O6    A    
C79   H26   S    
C23   O11   S    
O27   C96   A    
C75   C76   A    
C97   H35   S    
C105  H64   S    
C77   C86   S    
C63   C64   A    
C76   H55   S    
O34   C102  S    
O25   V3    S    
C77   C78   A    
C43   C44   A    
C78   H25   S    
C18   C19   A    
C19   C20   A    
C44   C45   A    
O23   V3    S    
C66   C67   A    
O26   C95   A    
O5    C3    A    
C14   C15   A    
C25   C28   A    
C34   H9    S    
C24   O12   S    
N3    C74   S    
V2    O10   S    
N4    C62   A    
N2    C36   A    
C5    H1    S    
C17   C18   A    
O22   V3    S    
C40   C41   A    
C72   H23   S    
C101  H51   S    
O27   V4    S    
C56   C61   A    
C98   H39   S    
O8    V2    S    
C93   O24   A    
C69   C74   A    
C6    C7    A    
O24   V4    S    
O35   C103  S    
C70   C71   A    
C3    C45   S    
C62   O18   S    
C71   C94   S    
C101  H50   S    
C37   C42   A    
C15   C16   A    
C75   O34   S    
O19   V4    S    
C65   C66   A    
O22   C94   A    
C82   H27   S    
O7    V1    S    
O25   V4    S    
V3    O28   S    
C99   H44   S    
C49   C53   A    
C53   C60   A    
O37   C105  S    
C20   C21   A    
C49   O15   S    
O9    C4    A    
C103  H57   S    
C87   C92   A    
C40   H12   S    
C17   C22   A    
C43   C48   A    
O4    V1    S    
C2    C89   S    
C90   C91   A    
C73   C74   A    
C28   H8    S    
C97   H36   S    
C72   C73   A    
C105  H65   S    
C87   H30   S    
C5    C10   A    
C43   H14   S    
C31   C32   A    
O21   V3    S    
O31   C99   S    
C84   H28   S    
N3    C50   A    
C104  H61   S    
C97   H34   S    
C41   C42   A    
N4    C68   S    
C45   C46   A    
C39   C40   A    
C102  H52   S    
C36   O14   S    
C11   H3    S    
C50   C51   A    
C26   C31   A    
C9    O35   S    
C47   C48   A    
O36   C104  S    
C18   H6    S    
C47   O30   S    
C91   H60   S    
O2    C1    A    
O32   C100  S    
C55   H17   S    
O23   C95   A    
C13   C14   A    
C85   C86   A    
C49   N3    A    
C11   C16   A    
C64   C65   A    
O21   C96   A    
C61   N4    A    
C35   N2    A    
C30   C31   A    
C73   H24   S    
C6    H38   S    
C58   C59   A    
C54   O31   S    
C44   H15   S    
C98   H41   S    
C21   H33   S    
O3    C4    A    
C17   O37   S    
C27   C34   A    
O1    V2    S    
C7    C16   S    
C82   C83   A    
C21   C22   A    
C63   C68   A    
C67   O33   S    
O6    V2    S    
C8    C9    A    
N1    C24   A    
C80   C93   S    
O29   C97   S    
C103  H58   S    
O20   C93   A    
C46   H16   S    
C59   O32   S    
C35   O13   S    
C81   C82   A    
O2    V1    S    
C90   H32   S    
C56   C57   A    
C88   C89   A    
C52   C57   A    
C32   C33   A    
O4    C2    A    
C69   H21   S    
C85   H29   S    
C105  H66   S    
O33   C101  S    
C84   C85   A    
C26   C27   A    
C28   C29   A    
C78   C79   A    
N2    C42   S    
O20   V3    S    
C67   C68   A    
C13   C22   S    
C51   C52   A    
C15   H5    S    
C24   C25   A    
C87   C88   A    
C89   C90   A    
C51   C54   A    
C79   C80   A    
O5    V1    S    
O8    C3    A    
C10   C95   S    
C33   C34   A    
C83   C84   A    
C39   C96   S    
C11   C12   A    
C83   C92   S    
C63   H19   S    
C46   C47   A    
C30   C35   A    
C100  H47   S    
C37   H10   S    
C102  H54   S    
O9    V2    S    
O19   C94   A    
C29   O29   S    
C75   C80   A    
O3    V1    S    
V1    O10   S    
C71   C72   A    
C60   H18   S    
C4    C19   S    
C55   C56   A    
C20   H7    S    
C104  H63   S    
C14   O36   S    
C64   H48   S    
C57   C58   A    
C5    C6    A    
C100  H46   S    
C38   H11   S    
O26   V4    S    
C23   C27   A    
O7    V2    S    
C59   C60   A    
C98   H40   S    
V4    O28   S    
C81   C86   A    
C32   C36   A    
C33   H37   S    
C9    C10   A    
O30   C98   S    
C99   H42   S    
C25   C26   A    
C41   H13   S    
C7    C8    A    
C104  H62   S    
C29   C30   A    
C23   N1    A    
C66   H20   S    
C12   H4    S    
C50   O16   S    
N1    C48   S    
C88   H31   S    
O1    C2    A    
C100  H45   S    
C1    C65   S    
C99   H43   S    
C54   C55   A    
C8    H2    S    
C58   C62   A    
C70   H22   S    
C37   C38   A    
C76   C77   A    
C69   C70   A    
C81   H59   S    
