data_mof_unit_60695.cif
_audit_creation_date              2013-03-05T16:28:21-0500
_audit_creation_method            fapswitch 2.2
_symmetry_space_group_name_H-M    P1
_symmetry_Int_Tables_number       1
_space_group_crystal_system       triclinic
_cell_length_a                    38.671032
_cell_length_b                    32.238198
_cell_length_c                    21.432918
_cell_angle_alpha                 89.99873
_cell_angle_beta                  123.52776
_cell_angle_gamma                 90.002853
_cell_volume                      22274.351398

loop_
_atom_site_label
_atom_site_type_symbol
_atom_site_description
_atom_site_fract_x
_atom_site_fract_y
_atom_site_fract_z
_atom_type_partial_charge
O1    O     O_R   0.940150 0.034650 0.440170 -0.581227
O2    O     O_R   0.059850 0.034650 0.559830 -0.581775
O3    O     O_R   0.440150 0.534650 0.440170 -0.581156
O4    O     O_R   0.559850 0.534650 0.559830 -0.581703
O5    O     O_R   0.940170 0.965370 0.440140 -0.578666
O6    O     O_R   0.059830 0.965370 0.559860 -0.578263
O7    O     O_R   0.440170 0.465370 0.440140 -0.578723
O8    O     O_R   0.559830 0.465370 0.559860 -0.578338
C1    C     C_R   0.920408 0.000004 0.420176 0.868708
C2    C     C_R   0.079592 0.000005 0.579823 0.868696
C3    C     C_R   0.420408 0.500004 0.420176 0.868724
C4    C     C_R   0.579592 0.500005 0.579822 0.868688
O9    O     O_R   0.000010 0.034650 0.591580 -0.588051
O10   O     O_R   0.999990 0.034650 0.408420 -0.588479
O11   O     O_R   0.500010 0.534650 0.591580 -0.587992
O12   O     O_R   0.499990 0.534650 0.408420 -0.588417
O13   O     O_R   0.000020 0.965370 0.591550 -0.585754
O14   O     O_R   0.999980 0.965370 0.408450 -0.585291
O15   O     O_R   0.500020 0.465370 0.591550 -0.585820
O16   O     O_R   0.499980 0.465370 0.408450 -0.585376
C5    C     C_R   0.000060 0.000005 0.620641 0.854973
C6    C     C_R   0.999937 0.000006 0.379357 0.854858
C7    C     C_R   0.500061 0.500005 0.620641 0.854987
C8    C     C_R   0.499939 0.500006 0.379359 0.854863
Cu1   Cu    Cu3+1 0.000000 0.041030 0.500000 0.987677
Cu2   Cu    Cu3+1 0.500000 0.541030 0.500000 0.987838
Cu3   Cu    Cu3+1 0.000000 0.958990 0.500000 0.993562
Cu4   Cu    Cu3+1 0.500000 0.458990 0.500000 0.993362
C9    C     C_3   0.961564 0.999139 0.692164 0.405618
C10   C     C_3   0.038427 0.998840 0.307831 0.405229
C11   C     C_3   0.461563 0.499174 0.692162 0.405682
C12   C     C_3   0.538428 0.498889 0.307828 0.405289
C13   C     C_3   0.981120 0.965312 0.752444 -0.205948
C14   C     C_3   0.018602 0.965170 0.247283 -0.205648
C15   C     C_3   0.481088 0.465329 0.752411 -0.206060
C16   C     C_3   0.518645 0.465193 0.247325 -0.205759
H1    H     H_    0.965220 0.937217 0.754634 0.154662
H2    H     H_    0.034277 0.936948 0.244872 0.154594
H3    H     H_    0.465162 0.437248 0.754574 0.154581
H4    H     H_    0.534355 0.436992 0.244947 0.154523
C17   C     C_3   0.000161 0.000053 0.811324 -0.029645
C18   C     C_3   0.999841 0.000061 0.188678 -0.029561
C19   C     C_3   0.500160 0.500053 0.811323 -0.029625
C20   C     C_3   0.499839 0.500060 0.188675 -0.029541
C21   C     C_3   0.979552 0.033860 0.750829 -0.208191
C22   C     C_3   0.020719 0.033703 0.249443 -0.208426
C23   C     C_3   0.479582 0.533877 0.750858 -0.208122
C24   C     C_3   0.520674 0.533728 0.249395 -0.208361
C25   C     C_3   0.018833 0.034607 0.748080 -0.219514
C26   C     C_3   0.981445 0.034763 0.252194 -0.219581
C27   C     C_3   0.518865 0.534589 0.748111 -0.219495
C28   C     C_3   0.481399 0.534738 0.252149 -0.219568
C29   C     C_3   0.039463 0.000940 0.809841 -0.136421
C30   C     C_3   0.960546 0.001260 0.190166 -0.136522
C31   C     C_3   0.539463 0.500904 0.809841 -0.136404
C32   C     C_3   0.460543 0.501208 0.190165 -0.136490
C33   C     C_3   0.020402 0.966341 0.749687 -0.220582
C34   C     C_3   0.979326 0.966511 0.250044 -0.220472
C35   C     C_3   0.520371 0.466321 0.749656 -0.220632
C36   C     C_3   0.479370 0.466483 0.250088 -0.220519
C37   C     C_3   0.999855 0.000005 0.688727 -0.074177
C38   C     C_3   0.000143 0.000010 0.311271 -0.074128
C39   C     C_3   0.499855 0.500005 0.688727 -0.074177
C40   C     C_3   0.500144 0.500010 0.311272 -0.074137
H5    H     H_    0.962377 0.061207 0.751697 0.154189
H6    H     H_    0.038117 0.060913 0.248798 0.154274
H7    H     H_    0.462431 0.561240 0.751750 0.154183
H8    H     H_    0.538034 0.560961 0.248710 0.154255
H9    H     H_    0.034421 0.062868 0.745552 0.160170
H10   H     H_    0.966082 0.063147 0.254936 0.160244
H11   H     H_    0.534478 0.562836 0.745610 0.160178
H12   H     H_    0.466002 0.563102 0.254861 0.160243
H13   H     H_    0.071811 0.001695 0.859801 0.152642
H14   H     H_    0.928207 0.002273 0.140208 0.152531
H15   H     H_    0.571811 0.501629 0.859803 0.152646
H16   H     H_    0.428201 0.502179 0.140210 0.152528
H17   H     H_    0.037264 0.938818 0.748448 0.158660
H18   H     H_    0.962241 0.939123 0.251061 0.158540
H19   H     H_    0.537209 0.438783 0.748395 0.158651
H20   H     H_    0.462323 0.439073 0.251148 0.158549
H21   H     H_    0.788304 0.978911 0.192609 0.136109
H22   H     H_    0.211698 0.971950 0.803250 0.136419
H23   H     H_    0.288306 0.480023 0.192074 0.136082
H24   H     H_    0.711696 0.472556 0.803661 0.136398
C41   C     C_R   0.728280 0.988124 0.174369 -0.165788
C42   C     C_R   0.271721 0.984212 0.823304 -0.165888
C43   C     C_R   0.228282 0.488749 0.174067 -0.165778
C44   C     C_R   0.771720 0.484552 0.823536 -0.165880
H25   H     H_    0.711832 0.978914 0.116130 0.140112
H26   H     H_    0.288170 0.971951 0.879734 0.140074
H27   H     H_    0.211835 0.480024 0.115593 0.140114
H28   H     H_    0.788168 0.472557 0.880147 0.140079
C45   C     C_R   0.706325 0.999959 0.206074 0.147729
C46   C     C_R   0.293676 0.999963 0.793926 0.147841
C47   C     C_R   0.206325 0.499959 0.206073 0.147713
C48   C     C_R   0.793675 0.499963 0.793926 0.147823
C49   C     C_R   0.728117 0.011779 0.281540 -0.173528
C50   C     C_R   0.271883 0.015699 0.720782 -0.173116
C51   C     C_R   0.228116 0.511157 0.281840 -0.173601
C52   C     C_R   0.771884 0.515359 0.720549 -0.173177
H29   H     H_    0.711540 0.020994 0.306751 0.146158
H30   H     H_    0.288459 0.027963 0.697382 0.145636
H31   H     H_    0.211538 0.519885 0.307284 0.146238
H32   H     H_    0.788461 0.527357 0.696970 0.145697
C53   C     C_R   0.771564 0.011773 0.324997 -0.144077
C54   C     C_R   0.228436 0.015692 0.677321 -0.143939
C55   C     C_R   0.271563 0.511150 0.325297 -0.144117
C56   C     C_R   0.728437 0.515351 0.677088 -0.143952
H33   H     H_    0.788018 0.020978 0.383242 0.165793
H34   H     H_    0.211982 0.027945 0.620884 0.163314
H35   H     H_    0.288016 0.519870 0.383777 0.166125
H36   H     H_    0.711983 0.527340 0.620469 0.163561
C57   C     C_R   0.793515 0.999950 0.293277 0.142035
C58   C     C_R   0.206486 0.999954 0.706716 0.142713
C59   C     C_R   0.293515 0.499951 0.293277 0.141947
C60   C     C_R   0.706486 0.499954 0.706714 0.142639
C61   C     C_R   0.771726 0.988122 0.217820 -0.180233
C62   C     C_R   0.228276 0.984210 0.779850 -0.179688
C63   C     C_R   0.271727 0.488747 0.217519 -0.180312
C64   C     C_R   0.728275 0.484551 0.780081 -0.179754
C65   C     C_1   0.661535 0.999970 0.161273 -0.059748
C66   C     C_1   0.338465 0.999972 0.838729 -0.059663
C67   C     C_1   0.161535 0.499970 0.161271 -0.059773
C68   C     C_1   0.838465 0.499972 0.838730 -0.059685
C69   C     C_1   0.838298 0.999969 0.338048 -0.044578
C70   C     C_1   0.161703 0.999973 0.661947 -0.044473
C71   C     C_1   0.338298 0.499969 0.338048 -0.044599
C72   C     C_1   0.661703 0.499974 0.661945 -0.044488
C73   C     C_1   0.875775 0.999986 0.375510 -0.115618
C74   C     C_1   0.124225 0.999991 0.624487 -0.115772
C75   C     C_1   0.375775 0.499987 0.375511 -0.115600
C76   C     C_1   0.624225 0.499991 0.624485 -0.115759
C77   C     C_1   0.624052 0.999981 0.123816 -0.159376
C78   C     C_1   0.375948 0.999982 0.876185 -0.159347
C79   C     C_1   0.124052 0.499981 0.123816 -0.159390
C80   C     C_1   0.875948 0.499982 0.876185 -0.159361
O17   O     O_R   0.034640 0.940200 0.034570 -0.578259
O18   O     O_R   0.965360 0.940200 0.965430 -0.578392
O19   O     O_R   0.534640 0.440200 0.034570 -0.578223
O20   O     O_R   0.465360 0.440200 0.965430 -0.578357
C81   C     C_R   0.999999 0.920447 0.999999 0.821314
C82   C     C_R   0.499999 0.420447 0.999999 0.821253
O21   O     O_R   0.034640 0.000050 0.943030 -0.594539
O22   O     O_R   0.965360 0.000050 0.056970 -0.594574
O23   O     O_R   0.534640 0.500050 0.943030 -0.594520
O24   O     O_R   0.465360 0.500050 0.056970 -0.594557
O25   O     O_R   0.965370 0.000070 0.873780 -0.572622
O26   O     O_R   0.034630 0.000070 0.126220 -0.572596
O27   O     O_R   0.465370 0.500070 0.873780 -0.572642
O28   O     O_R   0.534630 0.500070 0.126220 -0.572609
C83   C     C_R   0.000063 0.000069 0.879443 0.808442
C84   C     C_R   0.999938 0.000073 0.120558 0.808421
C85   C     C_R   0.500063 0.500068 0.879443 0.808426
C86   C     C_R   0.499937 0.500072 0.120557 0.808406
Cu5   Cu    Cu3+1 0.041030 0.000050 0.040990 0.979901
Cu6   Cu    Cu3+1 0.958970 0.000050 0.959010 0.979713
Cu7   Cu    Cu3+1 0.541030 0.500050 0.040990 0.979919
Cu8   Cu    Cu3+1 0.458970 0.500050 0.959010 0.979721
O29   O     O_R   0.034650 0.059910 0.034650 -0.578707
O30   O     O_R   0.965350 0.059910 0.965350 -0.578680
O31   O     O_R   0.534650 0.559910 0.034650 -0.578718
O32   O     O_R   0.465350 0.559910 0.965350 -0.578696
C87   C     C_R   0.000001 0.079660 0.000001 0.820867
C88   C     C_R   0.500001 0.579661 0.000001 0.820893
O33   O     O_R   0.500030 0.940190 0.053050 -0.577969
O34   O     O_R   0.499970 0.940190 0.946950 -0.577845
O35   O     O_R   0.000030 0.440190 0.053050 -0.577997
O36   O     O_R   0.999970 0.440190 0.946950 -0.577863
C89   C     C_R   0.500000 0.920642 0.000000 0.818274
C90   C     C_R   1.000000 0.420642 0.000000 0.818310
O37   O     O_R   0.559860 0.000050 0.112810 -0.577078
O38   O     O_R   0.440140 0.000050 0.887190 -0.576954
O39   O     O_R   0.059860 0.500050 0.112810 -0.577064
O40   O     O_R   0.940140 0.500050 0.887190 -0.576936
O41   O     O_R   0.559850 0.999980 0.006800 -0.578861
O42   O     O_R   0.440150 0.999980 0.993200 -0.578818
O43   O     O_R   0.059850 0.499980 0.006800 -0.578893
O44   O     O_R   0.940150 0.499980 0.993200 -0.578848
C91   C     C_R   0.579409 0.999998 0.079296 0.818308
C92   C     C_R   0.420591 0.999998 0.920705 0.818198
C93   C     C_R   0.079409 0.499998 0.079296 0.818305
C94   C     C_R   0.920591 0.499998 0.920705 0.818190
Cu9   Cu    Cu3+1 0.500010 0.000050 0.062750 0.971018
Cu10  Cu    Cu3+1 0.499990 0.000050 0.937250 0.971090
Cu11  Cu    Cu3+1 0.000010 0.500050 0.062750 0.971033
Cu12  Cu    Cu3+1 0.999990 0.500050 0.937250 0.971107
O45   O     O_R   0.500000 0.059900 0.052920 -0.578089
O46   O     O_R   0.500000 0.059900 0.947080 -0.578191
O47   O     O_R   0.000000 0.559900 0.052920 -0.578032
O48   O     O_R   0.000000 0.559900 0.947080 -0.578142
C95   C     C_R   0.500000 0.079468 0.999999 0.818826
C96   C     C_R   1.000000 0.579468 0.999999 0.818768
H37   H     H_    0.965868 0.788194 0.052462 0.138704
H38   H     H_    0.034125 0.788201 0.947527 0.138672
H39   H     H_    0.469480 0.288195 0.059065 0.138614
H40   H     H_    0.530513 0.288201 0.940926 0.138575
C97   C     C_R   0.482839 0.228239 0.033203 -0.169444
C98   C     C_R   0.517154 0.228243 0.966788 -0.169456
C99   C     C_R   0.980808 0.728239 0.029490 -0.169467
C100  C     C_R   0.019185 0.728243 0.970499 -0.169465
H41   H     H_    0.469478 0.211725 0.059060 0.140569
H42   H     H_    0.530516 0.211731 0.940931 0.140536
H43   H     H_    0.965866 0.711724 0.052457 0.140461
H44   H     H_    0.034128 0.711731 0.947532 0.140431
C101  C     C_R   0.499997 0.206370 0.999995 0.149939
C102  C     C_R   0.999997 0.706370 0.999994 0.150071
C103  C     C_R   0.019184 0.771686 0.970497 -0.169848
C104  C     C_R   0.980809 0.771682 0.029492 -0.169820
C105  C     C_R   0.517153 0.271686 0.966786 -0.169887
C106  C     C_R   0.482840 0.271682 0.033204 -0.169850
C107  C     C_R   0.999996 0.793554 0.999994 0.152179
C108  C     C_R   0.499996 0.293554 0.999995 0.152267
C109  C     C_1   0.499998 0.161585 0.999996 -0.061517
C110  C     C_1   0.999998 0.661585 0.999996 -0.061478
C111  C     C_1   0.999996 0.838337 0.999996 -0.061307
C112  C     C_1   0.499997 0.338337 0.999996 -0.061302
C113  C     C_1   0.999997 0.875815 0.999997 -0.164401
C114  C     C_1   0.499997 0.375815 0.999997 -0.164404
C115  C     C_1   0.499999 0.124105 0.999997 -0.159980
C116  C     C_1   0.999999 0.624105 0.999997 -0.159957
H45   H     H_    0.971498 0.211911 0.880627 0.140110
H46   H     H_    0.028508 0.211911 0.119380 0.140014
H47   H     H_    0.469766 0.711911 0.880175 0.140239
H48   H     H_    0.530240 0.711911 0.119832 0.140143
C117  C     C_R   0.483002 0.771868 0.932634 -0.169666
C118  C     C_R   0.517003 0.771868 0.067373 -0.169733
C119  C     C_R   0.983975 0.271867 0.932887 -0.169634
C120  C     C_R   0.016028 0.271867 0.067119 -0.169710
H49   H     H_    0.469763 0.788380 0.880174 0.141552
H50   H     H_    0.530241 0.788380 0.119832 0.141463
H51   H     H_    0.971494 0.288380 0.880626 0.141547
H52   H     H_    0.028508 0.288380 0.119380 0.141454
C121  C     C_R   0.500002 0.793739 0.000003 0.149109
C122  C     C_R   0.000001 0.293738 0.000003 0.149101
C123  C     C_R   0.016029 0.228424 0.067119 -0.170494
C124  C     C_R   0.983976 0.228424 0.932887 -0.170423
C125  C     C_R   0.517003 0.728424 0.067373 -0.170499
C126  C     C_R   0.483003 0.728424 0.932634 -0.170428
C127  C     C_R   0.000003 0.206554 0.000003 0.150892
C128  C     C_R   0.500003 0.706554 0.000004 0.150780
C129  C     C_1   0.500001 0.838524 0.000003 -0.061504
C130  C     C_1   0.000000 0.338524 0.000002 -0.061502
C131  C     C_1   0.000003 0.161771 0.000003 -0.061994
C132  C     C_1   0.500003 0.661771 0.000003 -0.062006
C133  C     C_1   0.000002 0.124293 0.000003 -0.164766
C134  C     C_1   0.500002 0.624293 0.000003 -0.164764
C135  C     C_1   0.500000 0.876004 0.000002 -0.159492
C136  C     C_1   0.000000 0.376004 0.000002 -0.159489
N1    N     N_R   0.918550 0.998150 0.628475 0.114029
O49   O     O_R   0.888798 0.997481 0.639770 -0.348335
O50   O     O_R   0.909563 0.997943 0.560398 -0.388742
N2    N     N_R   0.081430 0.997511 0.371517 0.114174
O51   O     O_R   0.111180 0.996605 0.360223 -0.347523
O52   O     O_R   0.090411 0.997241 0.439590 -0.388023
N3    N     N_R   0.418548 0.498223 0.628470 0.113995
O53   O     O_R   0.388794 0.497581 0.639762 -0.348464
O54   O     O_R   0.409563 0.498025 0.560393 -0.388848
N4    N     N_R   0.581434 0.497615 0.371510 0.114149
O55   O     O_R   0.611182 0.496746 0.360210 -0.347622
O56   O     O_R   0.590419 0.497358 0.439586 -0.388109

loop_
_geom_bond_atom_site_label_1
_geom_bond_atom_site_label_2
_geom_bond_distance
_ccdc_geom_bond_type
C34   C38   1.539295 S    
O42   Cu9   1.941320 S    
C119  H51   1.083408 S    
C44   C48   1.402010 A    
Cu12  O48   1.940910 S    
Cu7   Cu8   2.645362 S    
C32   H16   1.110096 S    
O28   Cu7   1.974241 S    
C43   H27   1.083406 S    
C16   H4    1.110175 S    
O38   C92   1.298997 A    
C49   C53   1.400603 A    
C15   H3    1.110177 S    
C14   C18   1.537086 S    
O3    C3    1.285514 A    
C128  C132  1.443723 S    
C90   C136  1.439036 S    
C15   C19   1.537089 S    
O40   C94   1.298999 A    
O33   C89   1.299426 A    
N3    O54   1.299859 A    
C109  C115  1.208284 T    
C14   C34   1.552886 S    
O7    C3    1.285527 A    
C119  C124  1.400530 A    
O39   Cu11  1.940284 S    
N1    O49   1.300208 A    
C26   C30   1.549254 S    
C118  C121  1.402011 A    
C100  C102  1.402001 A    
C54   C58   1.401993 A    
O46   C95   1.297855 A    
C28   H12   1.110127 S    
C29   C33   1.549159 S    
C12   C16   1.533283 S    
O37   Cu9   1.940284 S    
C71   C75   1.208160 T    
O20   C82   1.285505 A    
C22   H6    1.110184 S    
C112  C114  1.208220 T    
C31   C35   1.549156 S    
C111  C113  1.208223 T    
C54   H34   1.083441 S    
O34   C89   1.299422 A    
C58   C70   1.443664 S    
O19   C82   1.285500 A    
C47   C51   1.402089 A    
H22   C62   1.083464 S    
C57   C69   1.443661 S    
C107  C111  1.443714 S    
C46   C50   1.402058 A    
C47   C67   1.443888 S    
O35   Cu11  1.940992 S    
H21   C61   1.083465 S    
C52   H32   1.083436 S    
C105  C108  1.401985 A    
C59   C71   1.443664 S    
H24   C64   1.083447 S    
O17   Cu5   1.940413 S    
C15   C35   1.552844 S    
C18   C22   1.537091 S    
H23   C63   1.083417 S    
C78   C92   1.439132 S    
C98   C105  1.400521 A    
O27   C85   1.278576 A    
C82   C114  1.438855 S    
C120  C123  1.400527 A    
O17   C81   1.285500 A    
C97   C106  1.400521 A    
C42   C46   1.402016 A    
C81   C113  1.438855 S    
O5    Cu3   1.939684 S    
O44   Cu11  1.941320 S    
C41   C45   1.402011 A    
C66   C78   1.208347 T    
O1    C1    1.285516 A    
C108  C112  1.443714 S    
C9    C13   1.533306 S    
C10   N2    1.457049 S    
O38   Cu10  1.940281 S    
C131  C133  1.208226 T    
C43   C47   1.401996 A    
C98   H42   1.083446 S    
C19   C85   1.462079 S    
C13   C33   1.552848 S    
C97   H41   1.083448 S    
C9    C21   1.533449 S    
O26   Cu5   1.974241 S    
C44   C64   1.400542 A    
C88   C134  1.438865 S    
O27   Cu8   1.974239 S    
C5    C37   1.463690 S    
C27   C39   1.539440 S    
C100  H44   1.083451 S    
O20   Cu8   1.940430 S    
O11   C7    1.278288 A    
C102  C110  1.443781 S    
C7    C39   1.463688 S    
C101  C109  1.443784 S    
O12   C8    1.278277 A    
H37   C104  1.083459 S    
C11   C23   1.533448 S    
C98   C101  1.402002 A    
C103  C107  1.401986 A    
C117  C126  1.400540 A    
C12   C24   1.533468 S    
C30   H14   1.110107 S    
O9    Cu1   1.973357 S    
C27   H11   1.110129 S    
C51   C55   1.400600 A    
C99   H43   1.083452 S    
C72   C76   1.208167 T    
C23   H7    1.110178 S    
Cu2   Cu4   2.644825 S    
C14   H2    1.110188 S    
C25   H9    1.110127 S    
O35   C90   1.299426 A    
O32   C88   1.285740 A    
O12   Cu2   1.973364 S    
O4    Cu2   1.940323 S    
C126  C128  1.401994 A    
H46   C123  1.083420 S    
C52   C56   1.400597 A    
C25   C37   1.539444 S    
C10   C14   1.533286 S    
Cu5   O29   1.940717 S    
O13   Cu3   1.972516 S    
O30   C87   1.285739 A    
C33   H17   1.110121 S    
Cu6   O30   1.940698 S    
O34   Cu10  1.940983 S    
C12   C40   1.522918 S    
H39   C106  1.083452 S    
C51   H31   1.083400 S    
C42   H26   1.083395 S    
C95   C115  1.439026 S    
C41   H25   1.083395 S    
C77   C91   1.439135 S    
C68   C80   1.208343 T    
C23   C27   1.552549 S    
C97   C101  1.402002 A    
C27   C31   1.549228 S    
C16   C36   1.552883 S    
C118  H50   1.083406 S    
C79   C93   1.439135 S    
O18   C81   1.285505 A    
C99   C102  1.402002 A    
C130  C136  1.208294 T    
O7    Cu4   1.939684 S    
C60   C64   1.401979 A    
C100  C103  1.400518 A    
C67   C79   1.208347 T    
C9    N1    1.457040 S    
O22   Cu6   1.973857 S    
O47   C96   1.297851 A    
O15   C7    1.278449 A    
Cu9   Cu10  2.689404 S    
C2    C74   1.438841 S    
Cu8   O32   1.940698 S    
C43   C63   1.400538 A    
H38   C103  1.083456 S    
Cu9   O45   1.940901 S    
C6    C38   1.463680 S    
O23   Cu7   1.973857 S    
O43   Cu12  1.941323 S    
C20   C32   1.537916 S    
C45   C49   1.402069 A    
O21   Cu5   1.973857 S    
O6    Cu3   1.939666 S    
O24   C86   1.277584 A    
C21   C25   1.552546 S    
O8    C4    1.285519 A    
H48   C125  1.083415 S    
C55   C59   1.401977 A    
C20   C86   1.462075 S    
Cu10  O46   1.940910 S    
C53   C57   1.401992 A    
O9    C5    1.278286 A    
Cu11  O47   1.940901 S    
C42   C62   1.400542 A    
C44   H28   1.083397 S    
C17   C21   1.537074 S    
C24   H8    1.110177 S    
C41   C61   1.400538 A    
O15   Cu4   1.972516 S    
C55   H35   1.083464 S    
C17   C29   1.537915 S    
C58   C62   1.401972 A    
O33   Cu9   1.940992 S    
O45   C95   1.297851 A    
C122  C130  1.443801 S    
C57   C61   1.401973 A    
H40   C105  1.083452 S    
C46   C66   1.443872 S    
C48   C68   1.443878 S    
C19   C31   1.537911 S    
N1    O50   1.299857 A    
C106  C108  1.401987 A    
C10   C38   1.522916 S    
H45   C124  1.083416 S    
C28   C40   1.539455 S    
C26   C38   1.539455 S    
O29   C87   1.285741 A    
C35   C39   1.539309 S    
C16   C20   1.537080 S    
C127  C131  1.443726 S    
O4    C4    1.285521 A    
C96   C116  1.439026 S    
C35   H19   1.110123 S    
N3    O53   1.300210 A    
O2    C2    1.285521 A    
Cu7   O31   1.940717 S    
N4    O56   1.299856 A    
C120  H52   1.083408 S    
O31   C88   1.285742 A    
O25   Cu6   1.974239 S    
C117  C121  1.402011 A    
C28   C32   1.549254 S    
N2    O52   1.299859 A    
C30   C34   1.549132 S    
O18   Cu6   1.940430 S    
O23   C85   1.277590 A    
C119  C122  1.402018 A    
C53   H33   1.083451 S    
C36   H20   1.110120 S    
O48   C96   1.297855 A    
O21   C83   1.277583 A    
C4    C76   1.438837 S    
O14   C6    1.278469 A    
C123  C127  1.402000 A    
C120  C122  1.402017 A    
C10   C22   1.533481 S    
O3    Cu2   1.940305 S    
C29   H13   1.110094 S    
O14   Cu3   1.972505 S    
O26   C84   1.278569 A    
O37   C91   1.298994 A    
C45   C65   1.443881 S    
O11   Cu2   1.973357 S    
H47   C126  1.083415 S    
C3    C75   1.438831 S    
O6    C2    1.285519 A    
O41   C91   1.299269 A    
O1    Cu1   1.940305 S    
C33   C37   1.539307 S    
O24   Cu8   1.973857 S    
C1    C73   1.438834 S    
Cu1   Cu3   2.644825 S    
C11   C39   1.522919 S    
O16   Cu4   1.972505 S    
C22   C26   1.552493 S    
C59   C63   1.401992 A    
C50   C54   1.400594 A    
C124  C127  1.402001 A    
C11   N3    1.457046 S    
C36   C40   1.539297 S    
C13   C17   1.537084 S    
C56   C60   1.401985 A    
O36   Cu12  1.940983 S    
C12   N4    1.457037 S    
N4    O55   1.300207 A    
C26   H10   1.110132 S    
C31   H15   1.110098 S    
O22   C84   1.277600 A    
C20   C24   1.537076 S    
C50   H30   1.083454 S    
O40   Cu12  1.940281 S    
C21   H5    1.110176 S    
C18   C30   1.537902 S    
O10   C6    1.278272 A    
Cu11  Cu12  2.689404 S    
C19   C23   1.537076 S    
C60   C72   1.443667 S    
C104  C107  1.401983 A    
O43   C93   1.299267 A    
O25   C83   1.278581 A    
C48   C52   1.402065 A    
O36   C90   1.299422 A    
C99   C104  1.400518 A    
C17   C83   1.462075 S    
C132  C134  1.208230 T    
C13   H1    1.110176 S    
O2    Cu1   1.940323 S    
C11   C15   1.533313 S    
O10   Cu1   1.973364 S    
O13   C5    1.278452 A    
C89   C135  1.439039 S    
C25   C29   1.549232 S    
C87   C133  1.438865 S    
C9    C37   1.522919 S    
C34   H18   1.110125 S    
O39   C93   1.298996 A    
C56   H36   1.083444 S    
O42   C92   1.299264 A    
C32   C36   1.549140 S    
O19   Cu7   1.940413 S    
O8    Cu4   1.939666 S    
C8    C40   1.463690 S    
C69   C73   1.208163 T    
O28   C86   1.278581 A    
C125  C128  1.401994 A    
C80   C94   1.439132 S    
Cu5   Cu6   2.645362 S    
C118  C125  1.400540 A    
C70   C74   1.208167 T    
N2    O51   1.300228 A    
C129  C135  1.208294 T    
C110  C116  1.208284 T    
O5    C1    1.285524 A    
C65   C77   1.208353 T    
C24   C28   1.552512 S    
C117  H49   1.083406 S    
O44   C94   1.299262 A    
O16   C8    1.278463 A    
C49   H29   1.083445 S    
C121  C129  1.443794 S    
C18   C84   1.462084 S    
O41   Cu10  1.941323 S    
