data_mof_unit_67663.cif
_audit_creation_date              2013-03-05T16:47:32-0500
_audit_creation_method            fapswitch 2.2
_symmetry_space_group_name_H-M    P1
_symmetry_Int_Tables_number       1
_space_group_crystal_system       triclinic
_cell_length_a                    11.18025
_cell_length_b                    11.132693
_cell_length_c                    10.093287
_cell_angle_alpha                 100.291419
_cell_angle_beta                  97.2307
_cell_angle_gamma                 94.416463
_cell_volume                      1219.84625202

loop_
_atom_site_label
_atom_site_type_symbol
_atom_site_description
_atom_site_fract_x
_atom_site_fract_y
_atom_site_fract_z
_atom_type_partial_charge
O1    O     O_R   0.517830 0.337490 0.617920 -0.598376
O2    O     O_R   0.482170 0.662510 0.382080 -0.588279
O3    O     O_R   0.482150 0.301790 0.382070 -0.548452
O4    O     O_R   0.517850 0.698210 0.617930 -0.568336
C1    C     C_R   0.506212 0.262903 0.498642 0.779484
C2    C     C_R   0.495919 0.737450 0.502075 0.756300
O5    O     O_R   0.337480 0.517860 0.617920 -0.582994
O6    O     O_R   0.662520 0.482140 0.382080 -0.553169
O7    O     O_R   0.301810 0.482160 0.382070 -0.572597
O8    O     O_R   0.698190 0.517840 0.617930 -0.585670
C3    C     C_R   0.263190 0.505493 0.500587 0.810459
C4    C     C_R   0.737385 0.497120 0.499161 0.803612
Cu1   Cu    Cu3+1 0.521120 0.521140 0.639640 0.941086
Cu2   Cu    Cu3+1 0.478880 0.478860 0.360360 0.966953
H1    H     H_    0.182974 0.473572 0.883994 0.144465
H2    H     H_    0.740118 0.468321 0.048844 0.141727
C5    C     C_R   0.179787 0.577545 0.081749 -0.171820
C6    C     C_R   0.805437 0.380685 0.875216 -0.101829
H3    H     H_    0.222523 0.660518 0.058690 0.139781
H4    H     H_    0.759947 0.292696 0.881089 0.166912
C7    C     C_R   0.144390 0.577990 0.209420 0.236645
C8    C     C_R   0.862410 0.393328 0.763010 0.288613
C9    C     C_R   0.087783 0.468169 0.238810 0.038655
C10   C     C_R   0.914757 0.511992 0.752041 0.031541
C11   C     C_R   0.068929 0.361746 0.136049 -0.252207
C12   C     C_R   0.907987 0.612300 0.856502 -0.211752
H5    H     H_    0.024113 0.278316 0.153611 0.155576
H6    H     H_    0.935909 0.704257 0.845512 0.125102
C13   C     C_R   0.102234 0.362993 0.007190 0.519915
C14   C     C_R   0.856508 0.597691 0.972187 0.477872
C15   C     C_R   0.157840 0.471857 0.982079 -0.306316
C16   C     C_R   0.798703 0.481515 0.975353 -0.342142
C17   C     C_R   0.919872 0.451064 0.380805 0.073764
C18   C     C_R   0.081293 0.557855 0.617436 0.096035
C19   C     C_R   0.872855 0.497028 0.499989 -0.130490
C20   C     C_R   0.128647 0.510344 0.497993 -0.126754
C21   C     C_R   0.955344 0.534130 0.622586 -0.065359
C22   C     C_R   0.046414 0.467331 0.374980 -0.057766
C23   C     C_R   0.345731 0.105373 0.047308 -0.288072
C24   C     C_R   0.668875 0.907224 0.965715 -0.263723
H7    H     H_    0.257753 0.101248 0.991459 0.133989
H8    H     H_    0.755180 0.922874 0.030865 0.155128
C25   C     C_R   0.354081 0.069437 0.172791 0.478020
C26   C     C_R   0.657799 0.943967 0.839871 0.432822
C27   C     C_R   0.468351 0.073074 0.246842 0.051585
C28   C     C_R   0.543987 0.928692 0.759991 0.087217
C29   C     C_R   0.572871 0.118855 0.200755 -0.235290
C30   C     C_R   0.441896 0.876904 0.806055 -0.206570
H9    H     H_    0.661159 0.124822 0.261159 0.132500
H10   H     H_    0.353535 0.865182 0.744640 0.154187
C31   C     C_R   0.563226 0.156630 0.076516 -0.062055
C32   C     C_R   0.454258 0.837833 0.930027 -0.092428
H11   H     H_    0.644019 0.189152 0.039252 0.145802
H12   H     H_    0.375904 0.796576 0.964551 0.127099
C33   C     C_R   0.450128 0.145337 0.997142 0.153218
C34   C     C_R   0.567661 0.853246 0.009642 0.158158
C35   C     C_R   0.462090 0.913930 0.384876 -0.227922
C36   C     C_R   0.548011 0.087298 0.617891 -0.183305
H13   H     H_    0.427345 0.848429 0.292790 0.189908
H14   H     H_    0.587793 0.153545 0.707152 0.201853
C37   C     C_R   0.493603 0.872548 0.505868 -0.130744
C38   C     C_R   0.512788 0.128399 0.497463 -0.130805
C39   C     C_R   0.530936 0.962142 0.625264 0.069192
C40   C     C_R   0.478518 0.038905 0.379296 0.079417
H15   H     H_    0.400915 0.445084 0.869198 0.139712
H16   H     H_    0.583946 0.570384 0.133179 0.154917
N1    N     N_2   0.447120 0.447110 0.150550 -0.286315
N2    N     N_2   0.552880 0.552890 0.849450 -0.285086
C41   C     C_2   0.508730 0.509624 0.078326 -0.061070
C42   C     C_2   0.482594 0.499740 0.922446 -0.097281
H17   H     H_    0.624119 0.612925 0.902640 0.225826
H18   H     H_    0.374747 0.387910 0.097459 0.203270
N3    N     N_3   0.165139 0.691990 0.305646 -0.649815
H19   H     H_    0.106890 0.696227 0.378841 0.213173
H20   H     H_    0.253964 0.701453 0.354928 0.238145
N4    N     N_3   0.853528 0.286191 0.657443 -0.594434
H21   H     H_    0.900788 0.300478 0.578476 0.200296
H22   H     H_    0.762545 0.265170 0.615099 0.208194
O9    O     O_3   0.066334 0.261250 0.903745 -0.617463
C43   C     C_3   0.159185 0.231516 0.823180 0.000082
H23   H     H_    0.166418 0.132374 0.813004 0.164379
H24   H     H_    0.249222 0.279795 0.869079 0.122087
C44   C     C_3   0.127153 0.250173 0.677480 -0.383375
H25   H     H_    0.048254 0.185559 0.625530 0.239844
H26   H     H_    0.106276 0.345175 0.678742 0.236749
C45   C     C_3   0.230873 0.224857 0.596119 -0.887671
H27   H     H_    0.313204 0.282348 0.650368 0.277460
H28   H     H_    0.209822 0.248580 0.494302 0.263667
H29   H     H_    0.247007 0.126512 0.583057 0.260152
O10   O     O_3   0.849463 0.702980 0.067572 -0.661232
C46   C     C_3   0.853356 0.679501 0.201133 0.036017
H30   H     H_    0.932131 0.632235 0.227959 0.167264
H31   H     H_    0.773581 0.619305 0.210856 0.158623
C47   C     C_3   0.859392 0.800160 0.303177 -0.371106
H32   H     H_    0.953920 0.827567 0.353171 0.218798
H33   H     H_    0.829837 0.873785 0.249891 0.237194
C48   C     C_3   0.778388 0.789220 0.411833 -0.905240
H34   H     H_    0.690164 0.738462 0.365892 0.274801
H35   H     H_    0.759172 0.881204 0.461338 0.254566
H36   H     H_    0.821958 0.739941 0.487701 0.247172
N5    N     N_3   0.839420 0.371122 0.274346 -0.588300
H37   H     H_    0.858012 0.281286 0.277803 0.203961
H38   H     H_    0.856260 0.388985 0.181424 0.223038
N6    N     N_3   0.158223 0.646119 0.721825 -0.609123
H39   H     H_    0.111607 0.689264 0.795857 0.208538
H40   H     H_    0.225102 0.605413 0.773069 0.239331
N7    N     N_3   0.444262 0.166359 0.862210 -0.633715
H41   H     H_    0.447682 0.259871 0.864337 0.218927
H42   H     H_    0.366031 0.120314 0.801667 0.220969
N8    N     N_3   0.580261 0.813805 0.135960 -0.617933
H43   H     H_    0.643411 0.751015 0.128434 0.246264
H44   H     H_    0.621375 0.887876 0.210043 0.227940
O11   O     O_3   0.252867 0.051025 0.235464 -0.592768
C49   C     C_3   0.166854 0.957894 0.156147 0.065596
H45   H     H_    0.162292 0.880722 0.210931 0.193514
H46   H     H_    0.188469 0.919116 0.053098 0.062802
C50   C     C_3   0.041997 0.004895 0.142357 -0.349816
H47   H     H_    0.037773 0.067720 0.068291 0.219918
H48   H     H_    0.973486 0.925346 0.101342 0.198935
C51   C     C_3   0.011976 0.071138 0.278899 -0.777457
H49   H     H_    0.035109 0.018989 0.360786 0.254252
H50   H     H_    0.913949 0.083305 0.269880 0.197285
H51   H     H_    0.064485 0.162463 0.309671 0.267885
O12   O     O_3   0.755194 0.002451 0.797503 -0.625259
C52   C     C_3   0.842627 0.919686 0.773251 0.039161
H52   H     H_    0.801685 0.831508 0.706949 0.151330
H53   H     H_    0.887768 0.901813 0.871093 0.144444
C53   C     C_3   0.937819 0.979796 0.704807 -0.325434
H54   H     H_    0.897657 0.000749 0.606669 0.229037
H55   H     H_    0.970555 0.067766 0.772078 0.282516
C54   C     C_3   0.043306 0.903040 0.683779 -0.972147
H56   H     H_    0.093894 0.896728 0.783834 0.250296
H57   H     H_    0.106081 0.947059 0.625555 0.259794
H58   H     H_    0.010057 0.809913 0.625403 0.284548

loop_
_geom_bond_atom_site_label_1
_geom_bond_atom_site_label_2
_geom_bond_distance
_ccdc_geom_bond_type
C36   C38   1.395671 A    
N5    H37   1.042742 S    
C18   C21   1.421749 A    
N7    H42   1.041955 S    
N3    H19   1.041878 S    
C8    N4    1.438338 S    
C14   O10   1.391802 S    
C54   H58   1.107899 S    
C53   H54   1.106318 S    
N6    H40   1.034678 S    
C49   H45   1.102975 S    
C29   H9    1.083690 S    
O5    C3    1.337106 A    
O1    C1    1.320074 A    
C2    C37   1.499950 S    
C3    C20   1.506455 S    
C19   C21   1.422590 A    
C10   C12   1.405994 A    
C41   C42   1.546072 S    
C50   H48   1.107727 S    
C45   H28   1.107655 S    
C35   H13   1.081589 S    
H16   C41   1.064246 S    
C36   H14   1.079179 S    
H15   C42   1.080287 S    
C7    N3    1.437122 S    
N1    H18   1.028959 S    
O4    Cu1   2.024515 S    
C37   C39   1.414603 A    
N8    H43   1.031226 S    
C38   C40   1.401263 A    
C17   C19   1.402123 A    
C23   C33   1.402118 A    
C26   C28   1.399114 A    
C24   C34   1.398205 A    
C52   C53   1.516004 S    
Cu2   N1    2.063852 S    
C24   C26   1.396378 A    
C6    H4    1.083196 S    
C51   H51   1.106403 S    
C32   H12   1.082522 S    
C30   H10   1.083656 S    
N5    H38   1.029544 S    
Cu1   Cu2   2.747195 S    
N3    H20   1.041898 S    
O2    C2    1.326223 A    
C43   C44   1.523833 S    
C34   N8    1.415104 S    
N6    H39   1.033936 S    
C48   H35   1.105692 S    
C51   H50   1.109018 S    
C48   H34   1.101200 S    
C27   C29   1.404107 A    
C11   C13   1.399289 A    
C45   H29   1.110596 S    
C28   C30   1.406900 A    
N4    H21   1.038327 S    
C43   H24   1.107755 S    
C50   C51   1.532074 S    
C46   H30   1.090003 S    
C45   H27   1.101776 S    
C29   C31   1.386468 A    
C47   C48   1.522677 S    
C54   H57   1.109888 S    
H1    C15   1.065537 S    
C26   O12   1.378401 S    
C18   N6    1.444715 S    
C33   N7    1.416914 S    
N1    C41   1.313042 D    
O7    Cu2   2.021399 S    
C46   H31   1.098956 S    
O7    C3    1.311917 A    
C44   H25   1.105240 S    
C13   O9    1.391443 S    
O5    Cu1   2.033979 S    
O6    C4    1.335657 A    
C10   C21   1.490309 S    
C4    C19   1.513637 S    
C47   H33   1.106681 S    
C25   C27   1.390428 A    
O3    Cu2   2.024515 S    
O8    C4    1.315780 A    
O4    C2    1.321057 A    
C44   H26   1.098714 S    
C12   C14   1.394164 A    
C7    C9    1.428635 A    
C52   H52   1.113546 S    
C5    C15   1.388199 A    
C8    C10   1.431584 A    
C6    C16   1.383483 A    
N7    H41   1.035064 S    
C54   H56   1.110124 S    
C53   C54   1.523005 S    
C48   H36   1.105447 S    
C51   H49   1.108078 S    
C35   C40   1.401388 A    
O11   C49   1.413038 S    
C36   C39   1.408191 A    
O6    Cu2   2.033978 S    
C6    C8    1.390286 A    
C23   H7    1.063757 S    
N4    H22   1.044172 S    
C43   H23   1.100274 S    
O3    C1    1.328315 A    
O8    Cu1   2.021399 S    
C53   H55   1.094864 S    
C49   H46   1.116009 S    
C35   C37   1.394795 A    
H2    C16   1.071081 S    
C9    C22   1.505622 S    
C27   C40   1.447415 S    
C12   H6    1.076039 S    
C17   C22   1.422367 A    
C28   C39   1.465769 S    
C17   N5    1.430875 S    
C20   C22   1.431279 A    
C13   C15   1.397467 A    
C50   H47   1.110531 S    
C25   O11   1.383287 S    
C46   C47   1.530986 S    
C14   C16   1.408088 A    
O10   C46   1.414356 S    
N2    H17   1.025403 S    
C24   H8    1.080400 S    
C5    H3    1.082843 S    
C18   C20   1.410468 A    
C1    C38   1.502837 S    
C31   C33   1.393205 A    
C9    C11   1.411142 A    
C47   H32   1.107128 S    
O2    Cu2   2.013880 S    
N8    H44   1.041711 S    
C49   C50   1.526896 S    
O9    C43   1.420462 S    
C30   C32   1.390760 A    
C44   C45   1.518508 S    
O1    Cu1   2.013880 S    
C23   C25   1.389219 A    
N2    C42   1.319227 D    
C52   H53   1.108953 S    
C31   H11   1.082722 S    
Cu1   N2    2.063852 S    
C32   C34   1.394072 A    
O12   C52   1.408126 S    
C11   H5    1.074554 S    
C5    C7    1.394115 A    
