data_mof_unit_50908.cif
_audit_creation_date              2012-12-10T17:43:17-0500
_audit_creation_method            fapswitch 2.2
_symmetry_space_group_name_H-M    P1
_symmetry_Int_Tables_number       1
_space_group_crystal_system       triclinic
_cell_length_a                    14.956754
_cell_length_b                    13.899978
_cell_length_c                    10.611262
_cell_angle_alpha                 90.373356
_cell_angle_beta                  89.083461
_cell_angle_gamma                 89.935273
_cell_volume                      2205.73523807

loop_
_atom_site_label
_atom_site_type_symbol
_atom_type_description
_atom_site_fract_x
_atom_site_fract_y
_atom_site_fract_z
_atom_type_partial_charge
C1    C     C_R   0.329353 0.499965 0.499826 0.888614
C2    C     C_R   0.670671 0.499856 0.499758 0.885545
C3    C     C_R   0.953005 0.497425 0.500637 0.032615
C4    C     C_R   0.047099 0.497607 0.498304 0.033369
C5    C     C_R   0.906681 0.503596 0.386166 0.113111
C6    C     C_R   0.093399 0.496814 0.613120 0.114053
C7    C     C_R   0.953392 0.493605 0.730338 -0.212335
C8    C     C_R   0.046701 0.507973 0.269012 -0.214563
C9    C     C_R   0.046367 0.495532 0.727971 -0.185345
C10   C     C_R   0.953710 0.509502 0.271599 -0.186706
C11   C     C_R   0.421937 0.796454 0.522648 0.480585
C12   C     C_R   0.570297 0.205810 0.445403 0.485866
C13   C     C_R   0.577985 0.796132 0.477125 0.481616
C14   C     C_R   0.430340 0.206353 0.555964 0.494281
C15   C     C_R   0.576572 0.898328 0.463944 -0.092088
C16   C     C_R   0.425470 0.104123 0.545322 -0.101215
C17   C     C_R   0.423212 0.898869 0.534664 -0.092943
C18   C     C_R   0.574640 0.103567 0.453839 -0.100396
C19   C     C_R   0.499828 0.949882 0.498924 0.015489
C20   C     C_R   0.499897 0.052624 0.499042 0.024835
C21   C     C_R   0.652398 0.950259 0.422479 -0.168303
C22   C     C_R   0.348775 0.052141 0.582366 -0.187022
C23   C     C_R   0.347653 0.951416 0.577012 -0.172334
C24   C     C_R   0.651409 0.051001 0.417298 -0.192596
C25   C     C_R   0.499423 0.499697 0.259523 0.781045
C26   C     C_R   0.499757 0.500398 0.740439 0.788885
C27   C     C_3   0.433976 0.558594 0.044216 -0.131628
C28   C     C_3   0.564300 0.442169 0.955646 -0.153204
C29   C     C_3   0.513752 0.590721 0.960221 -0.133960
C30   C     C_3   0.484425 0.410036 0.039424 -0.154274
C31   C     C_3   0.419610 0.469533 0.958997 -0.185402
C32   C     C_3   0.578684 0.531359 0.040781 -0.175016
C33   C     C_3   0.499398 0.501401 0.877420 0.027576
C34   C     C_3   0.498911 0.499203 0.122443 0.034197
C35   C     C_R   0.813830 0.505825 0.387910 -0.338376
C36   C     C_R   0.186225 0.499281 0.611678 -0.333550
C37   C     C_R   0.766923 0.499183 0.501857 -0.062969
C38   C     C_R   0.233143 0.499582 0.497406 -0.062799
C39   C     C_R   0.810855 0.489933 0.616767 0.322509
C40   C     C_R   0.189292 0.497567 0.381744 0.317083
C41   C     C_R   0.905358 0.492551 0.617305 0.014331
C42   C     C_R   0.094765 0.500057 0.381487 0.016007
Cu1   Cu    Cu3+1 0.500000 0.597420 0.500000 0.997895
Cu2   Cu    Cu3+1 0.500000 0.402580 0.500000 1.013838
H1    H     H_    0.354119 0.445493 0.923020 0.129777
H2    H     H_    0.643816 0.556409 0.077451 0.130302
H3    H     H_    0.380538 0.606004 0.083672 0.146981
H4    H     H_    0.617503 0.394843 0.915487 0.147444
H5    H     H_    0.525788 0.664702 0.925035 0.138762
H6    H     H_    0.471065 0.335918 0.072778 0.126533
H7    H     H_    0.777664 0.512747 0.300631 0.142586
H8    H     H_    0.222444 0.501139 0.699427 0.138441
H9    H     H_    0.920317 0.495114 0.821648 0.146382
H10   H     H_    0.079748 0.515197 0.178241 0.146048
H11   H     H_    0.081638 0.496379 0.816438 0.136546
H12   H     H_    0.918422 0.515731 0.183569 0.138488
H13   H     H_    0.712937 0.913230 0.393034 0.175582
H14   H     H_    0.288966 0.089074 0.615202 0.173713
H15   H     H_    0.287385 0.914910 0.607693 0.175967
H16   H     H_    0.711764 0.087417 0.386504 0.168543
N1    N     N_R   0.500000 0.743810 0.500000 -0.265873
N2    N     N_R   0.500000 0.256190 0.500000 -0.261274
O1    O     O_R   0.370260 0.582280 0.500030 -0.543913
O2    O     O_R   0.629740 0.417720 0.499970 -0.521952
O3    O     O_R   0.629740 0.582280 0.499970 -0.545709
O4    O     O_R   0.370260 0.417720 0.500030 -0.528574
O5    O     O_R   0.499980 0.582260 0.316850 -0.585840
O6    O     O_R   0.500020 0.417740 0.683150 -0.589369
O7    O     O_R   0.500020 0.582260 0.683150 -0.588269
O8    O     O_R   0.499980 0.417740 0.316850 -0.585402
O9    O     O_3   0.759311 0.480376 0.725223 -0.769705
H17   H     H_    0.790719 0.437206 0.783624 0.313953
O10   O     O_3   0.240931 0.494701 0.272586 -0.773586
H18   H     H_    0.209634 0.455481 0.208948 0.316909
O11   O     O_3   0.340328 0.751205 0.536378 -0.554729
C43   C     C_3   0.290643 0.762911 0.424304 0.082132
H19   H     H_    0.309052 0.705549 0.355175 0.185098
H20   H     H_    0.301703 0.833391 0.376850 0.113850
C44   C     C_3   0.191120 0.755550 0.455243 -0.788176
H21   H     H_    0.168913 0.819103 0.511382 0.226497
H22   H     H_    0.152505 0.752725 0.366779 0.208151
H23   H     H_    0.176865 0.689930 0.510565 0.264543
O12   O     O_3   0.639283 0.255590 0.387435 -0.546905
C45   C     C_3   0.631698 0.246948 0.255184 0.083736
H24   H     H_    0.562634 0.262458 0.223700 0.141253
H25   H     H_    0.650181 0.173495 0.222204 0.122523
C46   C     C_3   0.695365 0.317662 0.192092 -0.782958
H26   H     H_    0.764669 0.305319 0.224470 0.249499
H27   H     H_    0.693844 0.307863 0.088291 0.188222
H28   H     H_    0.675109 0.392447 0.215940 0.233709
O13   O     O_3   0.659974 0.750968 0.466619 -0.555104
C47   C     C_3   0.707081 0.763937 0.580856 0.081696
H29   H     H_    0.687507 0.707112 0.649106 0.183052
H30   H     H_    0.694610 0.834891 0.627755 0.113879
C48   C     C_3   0.807223 0.756812 0.554363 -0.789643
H31   H     H_    0.829881 0.818815 0.496785 0.228497
H32   H     H_    0.843922 0.757277 0.644510 0.206847
H33   H     H_    0.823374 0.689616 0.502323 0.264638
O14   O     O_3   0.362084 0.256484 0.616586 -0.543111
C49   C     C_3   0.367082 0.243088 0.748610 0.056218
H34   H     H_    0.420522 0.288541 0.788603 0.171983
H35   H     H_    0.381158 0.167447 0.775889 0.122388
C50   C     C_3   0.278246 0.271731 0.809663 -0.819791
H36   H     H_    0.224324 0.223716 0.775699 0.247536
H37   H     H_    0.282419 0.265643 0.913708 0.199687
H38   H     H_    0.261568 0.347009 0.785364 0.244974

loop_
_geom_bond_atom_site_label_1
_geom_bond_atom_site_label_2
_ccdc_geom_bond_type
C46   H26   S    
C27   C29   S    
O10   H18   S    
Cu2   O4    S    
C48   H31   S    
C25   O5    A    
C43   C44   S    
Cu1   Cu2   S    
C2    O3    A    
C6    C9    A    
C48   H33   S    
Cu1   O1    S    
C14   O14   S    
C39   C41   A    
C29   H5    S    
Cu2   O2    S    
C15   C19   A    
C17   C23   A    
C18   C24   A    
C35   C37   A    
C43   H20   S    
C29   C32   S    
C30   C31   S    
C14   N2    A    
C29   C33   S    
C40   O10   S    
C47   H29   S    
C46   H28   S    
C46   H27   S    
C11   C17   A    
O12   C45   S    
C45   C46   S    
Cu2   O8    S    
C9    H11   S    
C10   H12   S    
C36   H8    S    
Cu1   O3    S    
C25   C34   S    
C47   C48   S    
C40   C42   A    
C30   H6    S    
Cu1   O7    S    
C13   O13   S    
C1    O1    A    
C49   H35   S    
C2    O2    A    
C27   C34   S    
C31   C33   S    
C30   C34   S    
C27   C31   S    
C28   C32   S    
C43   H19   S    
C4    C6    A    
C8    H10   S    
O13   C47   S    
C44   H22   S    
Cu2   N2    S    
C49   C50   S    
C12   O12   S    
C32   C34   S    
C23   H15   S    
O11   C43   S    
C21   H13   S    
C12   N2    A    
C26   C33   S    
O14   C49   S    
C15   C21   A    
C16   C20   A    
C47   H30   S    
C1    O4    A    
C50   H37   S    
C45   H24   S    
C1    C38   S    
C8    C10   A    
C28   C33   S    
C13   C15   A    
C35   H7    S    
C14   C16   A    
Cu2   O6    S    
C7    H9    S    
C8    C42   A    
C3    C4    A    
Cu1   N1    S    
C27   H3    S    
C7    C9    A    
C28   H4    S    
C16   C22   A    
C32   H2    S    
C45   H25   S    
C3    C5    A    
C22   H14   S    
C44   H23   S    
C48   H32   S    
C25   O8    A    
C26   O6    A    
C19   C20   A    
C28   C30   S    
C5    C10   A    
C37   C39   A    
C11   O11   S    
C38   C40   A    
C2    C37   S    
C4    C42   A    
C5    C35   A    
C36   C38   A    
C49   H34   S    
C17   C19   A    
C6    C36   A    
C50   H38   S    
C18   C20   A    
C7    C41   A    
C11   N1    A    
C3    C41   A    
C44   H21   S    
O9    H17   S    
C13   N1    A    
Cu1   O5    S    
C31   H1    S    
C21   C24   A    
C12   C18   A    
C50   H36   S    
C26   O7    A    
C39   O9    S    
C22   C23   A    
C24   H16   S    
