data_mof_unit_16274.cif
_audit_creation_date              2013-03-05T16:19:19-0500
_audit_creation_method            fapswitch 2.2
_symmetry_space_group_name_H-M    P1
_symmetry_Int_Tables_number       1
_space_group_crystal_system       triclinic
_cell_length_a                    10.65547
_cell_length_b                    9.843962
_cell_length_c                    23.267781
_cell_angle_alpha                 91.029688
_cell_angle_beta                  90.271658
_cell_angle_gamma                 90.035387
_cell_volume                      2440.18291158

loop_
_atom_site_label
_atom_site_type_symbol
_atom_site_description
_atom_site_fract_x
_atom_site_fract_y
_atom_site_fract_z
_atom_type_partial_charge
O1    O     O_R   0.314910 0.616040 0.499990 -0.627865
O2    O     O_R   0.314910 0.383960 0.499990 -0.626620
C1    C     C_R   0.257958 0.500140 0.500171 0.868295
O3    O     O_R   0.500080 0.616070 0.416130 -0.605005
O4    O     O_R   0.500080 0.383930 0.416130 -0.595516
C2    C     C_R   0.502137 0.498553 0.389554 0.863821
Zn1   Zn    Zn3+2 0.500150 0.654960 0.499970 0.994472
Zn2   Zn    Zn3+2 0.500150 0.345040 0.499970 0.979655
O5    O     O_R   0.685320 0.616040 0.499970 -0.625750
O6    O     O_R   0.685320 0.383960 0.499970 -0.640956
O7    O     O_R   0.500150 0.616010 0.583820 -0.540955
O8    O     O_R   0.500150 0.383990 0.583820 -0.585039
C3    C     C_R   0.741660 0.500222 0.503042 0.906738
C4    C     C_R   0.500167 0.500723 0.610642 0.948458
C5    C     C_R   0.669046 0.515142 0.881242 0.525888
N1    N     N_R   0.568344 0.464434 0.851221 -0.353631
C6    C     C_R   0.470934 0.400687 0.877757 0.518934
C7    C     C_R   0.468540 0.392896 0.937526 -0.021784
C8    C     C_R   0.568997 0.449172 0.969493 -0.018966
C9    C     C_R   0.671683 0.508274 0.941251 -0.024650
C10   C     C_R   0.366640 0.334139 0.965927 -0.148596
C11   C     C_R   0.362435 0.335188 0.025674 -0.158655
C12   C     C_R   0.460455 0.394200 0.057952 -0.014552
C13   C     C_R   0.565223 0.449241 0.029858 -0.018044
C14   C     C_R   0.664722 0.507267 0.061963 -0.021583
C15   C     C_R   0.768528 0.562013 0.033479 -0.156300
C16   C     C_R   0.771878 0.562733 0.973613 -0.147216
C17   C     C_R   0.455625 0.401915 0.117837 0.491323
N2    N     N_R   0.552248 0.460274 0.148209 -0.346403
C18   C     C_R   0.656118 0.511371 0.121908 0.536367
O9    O     O_2   0.764401 0.574611 0.853169 -0.521546
O10   O     O_2   0.375922 0.346814 0.846202 -0.530381
H1    H     H_    0.288712 0.289734 0.942144 0.198743
H2    H     H_    0.281530 0.291328 0.046407 0.194414
O11   O     O_2   0.355289 0.351962 0.145712 -0.565255
O12   O     O_2   0.749481 0.567579 0.153726 -0.561788
H3    H     H_    0.846372 0.606467 0.057299 0.192992
H4    H     H_    0.852095 0.607933 0.952847 0.196060
C19   C     C_R   0.609179 0.381834 0.244279 0.266810
C20   C     C_R   0.596200 0.393559 0.303685 -0.299377
H5    H     H_    0.647792 0.325070 0.331088 0.143572
C21   C     C_R   0.516683 0.492450 0.327711 -0.049611
C22   C     C_R   0.451116 0.581621 0.292520 -0.246636
H6    H     H_    0.387751 0.656439 0.310698 0.162348
C23   C     C_R   0.463960 0.570862 0.233238 -0.155891
H7    H     H_    0.412280 0.639048 0.205838 0.152141
C24   C     C_R   0.542343 0.471165 0.209107 0.301987
C25   C     C_R   0.466850 0.571150 0.769745 -0.152012
H8    H     H_    0.407445 0.626929 0.799564 0.150312
C26   C     C_R   0.443297 0.576822 0.710787 0.174110
C27   C     C_R   0.518405 0.499741 0.672793 -0.050155
C28   C     C_R   0.613204 0.416056 0.694576 -0.113454
H9    H     H_    0.669806 0.354663 0.665996 0.230721
C29   C     C_R   0.633900 0.408465 0.753326 -0.055223
H10   H     H_    0.704659 0.340193 0.769714 0.176853
C30   C     C_R   0.559731 0.484991 0.790911 0.257767
C31   C     C_3   0.074063 0.629889 0.534394 -0.386021
C32   C     C_3   0.074721 0.374278 0.533986 -0.383768
H11   H     H_    0.111755 0.723783 0.514875 0.184351
H12   H     H_    0.107686 0.279465 0.512016 0.182992
H13   H     H_    0.108852 0.627618 0.579295 0.226239
H14   H     H_    0.115152 0.375918 0.578024 0.238400
C33   C     C_3   0.930364 0.637626 0.532856 0.165090
C34   C     C_3   0.931267 0.371663 0.535395 0.170178
H15   H     H_    0.905215 0.721699 0.503444 0.099404
H16   H     H_    0.901478 0.281626 0.508827 0.111799
H17   H     H_    0.099780 0.587841 0.416132 0.178585
H18   H     H_    0.102101 0.405692 0.416173 0.178467
H19   H     H_    0.886194 0.583204 0.417638 0.189502
H20   H     H_    0.888443 0.401706 0.419709 0.183859
C35   C     C_3   0.067858 0.497405 0.439955 -0.425116
C36   C     C_3   0.121201 0.500718 0.501828 0.005689
C37   C     C_3   0.877954 0.501420 0.505513 -0.058499
C38   C     C_3   0.923637 0.495475 0.441969 -0.527654
C39   C     C_3   0.385595 0.079758 0.527235 0.183448
C40   C     C_3   0.389876 0.919725 0.530412 0.182409
H21   H     H_    0.303671 0.100432 0.500177 0.054828
H22   H     H_    0.304467 0.881587 0.509357 0.097698
C41   C     C_3   0.510332 0.076867 0.438671 0.070350
C42   C     C_3   0.501046 0.916308 0.438508 0.068939
C43   C     C_3   0.611350 0.081532 0.529680 -0.301274
C44   C     C_3   0.615709 0.920504 0.526060 -0.313442
N3    N     N_3   0.499750 0.138610 0.498760 -0.129509
N4    N     N_3   0.499750 0.861390 0.498760 -0.133681
H23   H     H_    0.699329 0.122126 0.511046 0.174648
H24   H     H_    0.699923 0.889559 0.500919 0.146738
H25   H     H_    0.616097 0.116605 0.574848 0.270477
H26   H     H_    0.635354 0.876171 0.568415 0.269723
H27   H     H_    0.609362 0.096655 0.425405 0.078157
H28   H     H_    0.591360 0.880275 0.419359 0.095922
N5    N     N_2   0.336142 0.648005 0.691183 -0.263461
H29   H     H_    0.320350 0.737056 0.714091 0.285312
C45   C     C_3   0.224482 0.564485 0.688048 -0.604119
H30   H     H_    0.142654 0.627787 0.676142 0.278479
H31   H     H_    0.204699 0.519174 0.730499 0.254689
H32   H     H_    0.236422 0.482179 0.655286 0.230205
N6    N     N_R   0.880989 0.677223 0.589851 0.233560
O13   O     O_R   0.778509 0.624841 0.610043 -0.369398
O14   O     O_R   0.926373 0.785196 0.615548 -0.328346
N7    N     N_R   0.885955 0.350790 0.594074 0.225640
O15   O     O_R   0.826594 0.238809 0.604993 -0.408177
O16   O     O_R   0.930756 0.422177 0.637119 -0.346173
N8    N     N_R   0.355697 0.144367 0.583260 0.254215
O17   O     O_R   0.435754 0.148188 0.625592 -0.328731
O18   O     O_R   0.238622 0.167368 0.595400 -0.383244
N9    N     N_R   0.377321 0.869284 0.589338 0.259226
O19   O     O_R   0.465326 0.884122 0.627851 -0.335223
O20   O     O_R   0.266957 0.830539 0.606229 -0.377524
N10   N     N_2   0.441445 0.141688 0.391574 -0.252194
H33   H     H_    0.479878 0.122545 0.351589 0.203204
C46   C     C_3   0.311233 0.183815 0.387723 -0.680718
H34   H     H_    0.306300 0.277076 0.361702 0.225472
H35   H     H_    0.268580 0.210258 0.428959 0.234190
H36   H     H_    0.254917 0.107324 0.363615 0.213439
N11   N     N_2   0.408095 0.859351 0.397951 -0.249628
H37   H     H_    0.433903 0.870726 0.355601 0.209668
C47   C     C_3   0.273182 0.858116 0.405416 -0.785059
H38   H     H_    0.226028 0.853534 0.362721 0.214346
H39   H     H_    0.238423 0.949170 0.428484 0.220984
H40   H     H_    0.244523 0.766006 0.427888 0.255793
N12   N     N_2   0.690122 0.281596 0.220009 -0.297218
H41   H     H_    0.770121 0.265973 0.244155 0.229375
C48   C     C_3   0.628231 0.155011 0.204973 -0.762665
H42   H     H_    0.696680 0.084535 0.184473 0.248748
H43   H     H_    0.550686 0.172222 0.173979 0.270622
H44   H     H_    0.590341 0.106872 0.244127 0.222416

loop_
_geom_bond_atom_site_label_1
_geom_bond_atom_site_label_2
_geom_bond_distance
_ccdc_geom_bond_type
C32   H14   1.109496 S    
C33   H15   1.115328 S    
C45   H30   1.108993 S    
C7    C10   1.403569 A    
C37   C38   1.558881 S    
C8    C9    1.409717 A    
C42   N4    1.511704 S    
C32   C36   1.546154 S    
C40   N4    1.495537 S    
C43   C44   1.586590 S    
C48   H42   1.110319 S    
C23   H7    1.082935 S    
Zn1   O7    1.995070 S    
C15   C16   1.393716 A    
N2    C24   1.423511 S    
C17   N2    1.366454 A    
C40   H22   1.094492 S    
O2    C1    1.294985 A    
C47   H39   1.101667 S    
O4    C2    1.296605 A    
O7    C4    1.304949 A    
C48   H43   1.109248 S    
C10   H1    1.083187 S    
N9    O19   1.300325 A    
C16   H4    1.083140 S    
C32   H12   1.113900 S    
N11   H37   1.032304 S    
Zn2   N3    2.031781 S    
N6    O13   1.300741 A    
C25   C30   1.397430 A    
C7    C8    1.408135 A    
O5    C3    1.291790 A    
C35   C38   1.537804 S    
C43   N3    1.501544 S    
N8    O18   1.299497 A    
C46   H34   1.109909 S    
C17   O11   1.350141 S    
N1    C6    1.368034 A    
N11   C47   1.448907 S    
H20   C38   1.114222 S    
C34   C37   1.570602 S    
C31   C33   1.533402 S    
Zn2   O8    1.981548 S    
C20   C21   1.401442 A    
Zn1   N4    2.032798 S    
C45   H31   1.112073 S    
C10   C11   1.390946 A    
C39   N8    1.476378 S    
O3    Zn1   1.981215 S    
N6    O14   1.301864 A    
C28   C29   1.386971 A    
C26   C27   1.407520 A    
C23   C24   1.400591 A    
C32   C34   1.529283 S    
C5    C9    1.399279 A    
C11   H2    1.083189 S    
C29   C30   1.393009 A    
N12   C48   1.446099 S    
C41   N10   1.471358 S    
C27   C28   1.402517 A    
C13   C14   1.408813 A    
O3    C2    1.302136 A    
C47   H40   1.098637 S    
C19   C20   1.392518 A    
C48   H44   1.111904 S    
C33   C37   1.574629 S    
C14   C15   1.404343 A    
C44   H24   1.113157 S    
O1    C1    1.292016 A    
C34   H16   1.116494 S    
C39   C40   1.579094 S    
N1    C30   1.423932 S    
N2    C18   1.367221 A    
N5    C45   1.446619 S    
C39   H21   1.095182 S    
C4    C27   1.458424 S    
C42   N11   1.468777 S    
C12   C13   1.409262 A    
N7    O16   1.301761 A    
C6    C7    1.394538 A    
H19   C38   1.114148 S    
C46   H35   1.090976 S    
C12   C17   1.395293 A    
C31   H13   1.107501 S    
C22   C23   1.388931 A    
N12   H41   1.031829 S    
C43   H25   1.101223 S    
C25   H8    1.083734 S    
C3    C37   1.453177 S    
C45   H32   1.110227 S    
C44   N4    1.499069 S    
C22   H6    1.081351 S    
C21   C22   1.396518 A    
N5    H29   1.032045 S    
C28   H9    1.077512 S    
C19   C24   1.404041 A    
C14   C18   1.398101 A    
Zn1   O5    2.010160 S    
C29   H10   1.082892 S    
C20   H5    1.084389 S    
C40   N9    1.473255 S    
O1    Zn1   2.010429 S    
O2    Zn2   2.010890 S    
O8    C4    1.297754 A    
O6    C3    1.292723 A    
O4    Zn2   1.994717 S    
C15   H3    1.083138 S    
C5    O9    1.349455 S    
C9    C16   1.404054 A    
C19   N12   1.422001 S    
C18   O12   1.349635 S    
N10   C46   1.451182 S    
C8    C13   1.405304 A    
C35   C36   1.545079 S    
C33   N6    1.475021 S    
N10   H33   1.032576 S    
C41   N3    1.519199 S    
C39   N3    1.508223 S    
N9    O20   1.300800 A    
H18   C35   1.113004 S    
C44   H26   1.104142 S    
C25   C26   1.395515 A    
N7    O15   1.300201 A    
C1    C36   1.457912 S    
C46   H36   1.105789 S    
H17   C35   1.111153 S    
C31   C36   1.553409 S    
C42   H28   1.117694 S    
C41   H27   1.118785 S    
C31   H11   1.112761 S    
C41   C42   1.583505 S    
C26   N5    1.417849 S    
C34   N7    1.468228 S    
Zn2   O6    2.009695 S    
C2    C21   1.448187 S    
N8    O17   1.299978 A    
C6    O10   1.350386 S    
C11   C12   1.403049 A    
C47   H38   1.111302 S    
C43   H23   1.111815 S    
C5    N1    1.366810 A    
