data_mof_unit_23662.cif
_audit_creation_date              2013-03-05T16:41:45-0500
_audit_creation_method            fapswitch 2.2
_symmetry_space_group_name_H-M    P1
_symmetry_Int_Tables_number       1
_space_group_crystal_system       triclinic
_cell_length_a                    10.635975
_cell_length_b                    10.653593
_cell_length_c                    9.848894
_cell_angle_alpha                 89.578918
_cell_angle_beta                  91.303985
_cell_angle_gamma                 89.479491
_cell_volume                      1115.62454767

loop_
_atom_site_label
_atom_site_type_symbol
_atom_site_description
_atom_site_fract_x
_atom_site_fract_y
_atom_site_fract_z
_atom_type_partial_charge
O1    O     O_R   0.500020 0.316790 0.614690 -0.618894
O2    O     O_R   0.500000 0.316760 0.385350 -0.631214
C1    C     C_R   0.498414 0.260215 0.500669 0.871910
O3    O     O_R   0.316770 0.500020 0.614690 -0.620912
O4    O     O_R   0.316760 0.499980 0.385350 -0.622390
C2    C     C_R   0.259690 0.510775 0.498557 0.886297
Zn1   Zn    Zn3+2 0.500010 0.500020 0.653130 0.926473
Zn2   Zn    Zn3+2 0.499990 0.499980 0.346870 0.948010
O5    O     O_R   0.500000 0.683240 0.614650 -0.635854
O6    O     O_R   0.499980 0.683210 0.385310 -0.619508
O7    O     O_R   0.683240 0.500020 0.614650 -0.610592
O8    O     O_R   0.683230 0.499980 0.385310 -0.561780
C3    C     C_R   0.494197 0.739706 0.499484 0.897118
C4    C     C_R   0.739684 0.483834 0.502383 0.896799
H1    H     H_    0.111650 0.449496 0.288775 0.179528
C5    C     C_R   0.112368 0.611169 0.725233 -0.146202
H2    H     H_    0.195635 0.667424 0.712695 0.154435
C6    C     C_R   0.057371 0.608368 0.852234 -0.224275
H3    H     H_    0.098920 0.660033 0.935904 0.155961
C7    C     C_R   0.956182 0.529474 0.874112 -0.158083
H4    H     H_    0.923258 0.516109 0.976489 0.178203
C8    C     C_R   0.901001 0.464157 0.765266 0.268989
C9    C     C_R   0.942841 0.486955 0.630889 0.033797
C10   C     C_R   0.060682 0.540813 0.616691 0.062662
C11   C     C_R   0.125075 0.516473 0.496231 -0.196149
C12   C     C_R   0.062694 0.468592 0.381860 -0.293341
C13   C     C_R   0.936874 0.441625 0.386668 0.492021
C14   C     C_R   0.873934 0.460668 0.509281 -0.291042
C15   C     C_R   0.540064 0.061715 0.611060 0.065695
C16   C     C_R   0.485067 0.128970 0.504130 -0.123125
C17   C     C_R   0.407043 0.069314 0.408751 -0.233338
H5    H     H_    0.352819 0.124050 0.334588 0.155761
C18   C     C_R   0.402832 0.938577 0.407134 0.166482
C19   C     C_R   0.480980 0.871754 0.501358 -0.111396
C20   C     C_R   0.539493 0.934316 0.608610 0.059398
C21   C     C_3   0.669691 0.923680 0.670246 -0.005349
C22   C     C_3   0.670225 0.066624 0.671253 -0.505723
H6    H     H_    0.670186 0.881340 0.773865 0.161326
H7    H     H_    0.671032 0.105935 0.775531 0.181439
H8    H     H_    0.737982 0.110136 0.600865 0.193175
C23   C     C_R   0.500947 0.389718 0.072468 0.182373
N1    N     N_R   0.499160 0.499140 0.142800 -0.095904
C24   C     C_R   0.513643 0.608493 0.071358 -0.120418
H9    H     H_    0.523794 0.696115 0.124625 0.145851
C25   C     C_R   0.513557 0.608559 0.927432 -0.140813
H10   H     H_    0.522671 0.696414 0.873202 0.148087
N2    N     N_R   0.499160 0.499180 0.857150 -0.102696
C26   C     C_R   0.498475 0.389657 0.930298 0.171432
C27   C     C_3   0.404378 0.285268 0.926200 -0.082988
C28   C     C_3   0.408711 0.285910 0.081171 -0.520711
H11   H     H_    0.443893 0.197380 0.883421 0.168769
H12   H     H_    0.319946 0.315908 0.129712 0.214713
H13   H     H_    0.452548 0.199327 0.125343 0.180664
C29   C     C_3   0.767966 0.865958 0.577103 -0.850755
H14   H     H_    0.758267 0.904419 0.472103 0.240471
H15   H     H_    0.863835 0.886359 0.617731 0.244036
H16   H     H_    0.756716 0.762583 0.573992 0.246614
C30   C     C_3   0.274723 0.320566 0.866324 -0.763300
H17   H     H_    0.203232 0.254921 0.905261 0.216921
H18   H     H_    0.247535 0.417722 0.894128 0.254944
H19   H     H_    0.275199 0.311302 0.754446 0.262813
C31   C     C_3   0.817301 0.356085 0.799624 -0.884409
H20   H     H_    0.733595 0.391224 0.852168 0.249653
H21   H     H_    0.788122 0.303238 0.708073 0.231276
H22   H     H_    0.868847 0.289637 0.868721 0.218196
O9    O     O_3   0.875549 0.404929 0.268012 -0.637377
C32   C     C_3   0.847219 0.275471 0.274996 0.119995
H23   H     H_    0.762478 0.259757 0.209432 0.166798
H24   H     H_    0.822616 0.242878 0.379012 0.100194
C33   C     C_3   0.956268 0.196948 0.220502 -0.394088
H25   H     H_    0.977511 0.228934 0.115854 0.226042
H26   H     H_    0.041620 0.209967 0.285869 0.214909
C34   C     C_3   0.924334 0.057662 0.217973 -0.952101
H27   H     H_    0.906309 0.023208 0.322366 0.265658
H28   H     H_    0.004601 0.003594 0.177046 0.265649
H29   H     H_    0.839893 0.041519 0.152152 0.260928
C35   C     C_3   0.316991 0.874446 0.305992 -0.886996
H30   H     H_    0.258813 0.803951 0.358691 0.234171
H31   H     H_    0.252155 0.942578 0.253945 0.229329
H32   H     H_    0.372954 0.827818 0.227127 0.245761

loop_
_geom_bond_atom_site_label_1
_geom_bond_atom_site_label_2
_geom_bond_distance
_ccdc_geom_bond_type
C34   H27   1.110541 S    
C20   C21   1.502283 S    
C35   H30   1.110695 S    
Zn1   O7    1.993785 S    
C12   C13   1.373055 A    
C31   H20   1.103786 S    
C21   C22   1.523036 S    
Zn2   N1    2.009768 S    
C6    H3    1.082515 S    
C22   H8    1.113069 S    
O1    C1    1.278248 A    
C16   C17   1.399251 A    
O7    C4    1.282128 A    
C2    C11   1.432151 S    
C30   H18   1.110087 S    
C19   C20   1.391165 A    
C23   N1    1.360587 A    
O5    C3    1.279979 A    
C31   H21   1.106437 S    
N2    C26   1.366951 A    
C5    H2    1.082725 S    
C27   H11   1.112459 S    
C28   H12   1.113247 S    
C9    C10   1.392666 A    
C17   C18   1.394145 A    
C33   H25   1.111877 S    
C30   H19   1.107130 S    
C25   N2    1.367752 A    
O9    C32   1.415907 S    
C5    C10   1.413982 A    
C34   H28   1.110518 S    
O3    Zn1   1.976892 S    
C35   H31   1.111091 S    
C29   H15   1.110761 S    
C28   H13   1.111110 S    
C32   H23   1.111390 S    
C10   C11   1.407881 A    
O3    C2    1.286524 A    
H1    C12   1.084233 S    
C30   H17   1.110555 S    
C25   H10   1.080448 S    
C27   C30   1.530089 S    
C32   H24   1.116763 S    
Zn1   N2    2.009552 S    
C1    C16   1.406942 S    
C24   H9    1.079235 S    
C15   C16   1.384886 A    
C8    C31   1.503080 S    
C17   H5    1.083805 S    
Zn2   O8    1.976891 S    
C33   C34   1.525539 S    
C18   C19   1.415375 A    
C9    C14   1.420842 A    
C24   C25   1.417488 A    
Zn2   O6    1.991161 S    
C26   C27   1.503031 S    
C7    C8    1.402721 A    
C34   H29   1.111016 S    
N1    C24   1.368276 A    
C23   C28   1.488267 S    
C35   H32   1.107109 S    
Zn1   O5    1.985664 S    
C29   H14   1.111809 S    
C31   H22   1.110719 S    
O1    Zn1   1.991161 S    
O2    Zn2   1.985664 S    
O8    C4    1.297429 A    
O6    C3    1.281774 A    
O4    Zn2   1.993786 S    
C15   C20   1.357705 A    
C32   C33   1.533102 S    
C21   H6    1.112627 S    
O2    C1    1.282241 A    
C11   C12   1.396364 A    
C3    C19   1.412813 S    
C22   H7    1.111856 S    
C13   O9    1.385868 S    
C18   C35   1.507518 S    
O4    C2    1.286948 A    
C23   C26   1.399872 A    
C6    C7    1.391227 A    
C21   C29   1.533782 S    
C7    H4    1.083718 S    
C5    C6    1.393081 A    
C27   C28   1.526007 S    
C15   C22   1.495036 S    
C13   C14   1.409083 A    
C8    C9    1.425705 A    
C33   H26   1.111219 S    
C4    C14   1.446824 S    
C29   H16   1.109444 S    
