data_mof_unit_15223.cif
_audit_creation_date              2013-03-05T15:55:55-0500
_audit_creation_method            fapswitch 2.2
_symmetry_space_group_name_H-M    P1
_symmetry_Int_Tables_number       1
_space_group_crystal_system       triclinic
_cell_length_a                    21.696147
_cell_length_b                    7.179291
_cell_length_c                    14.885956
_cell_angle_alpha                 90.244905
_cell_angle_beta                  107.206075
_cell_angle_gamma                 89.983152
_cell_volume                      2214.89118733

loop_
_atom_site_label
_atom_site_type_symbol
_atom_site_description
_atom_site_fract_x
_atom_site_fract_y
_atom_site_fract_z
_atom_type_partial_charge
O1    O     O_R   0.335860 0.638190 0.002110 -0.563303
O2    O     O_R   0.664140 0.361810 0.997890 -0.563186
O3    O     O_R   0.164140 0.138190 0.997890 -0.559937
O4    O     O_R   0.835860 0.861810 0.002110 -0.563086
O5    O     O_R   0.217530 0.305920 0.861960 -0.583396
O6    O     O_R   0.782470 0.694080 0.138040 -0.577159
O7    O     O_R   0.282470 0.805920 0.138040 -0.593672
O8    O     O_R   0.717530 0.194080 0.861960 -0.571139
C1    C     C_R   0.206250 0.475778 0.825395 1.152047
C2    C     C_R   0.794211 0.524054 0.174560 1.145900
C3    C     C_R   0.294993 0.976409 0.174785 1.140801
C4    C     C_R   0.704915 0.023416 0.825325 1.159925
O9    O     O_R   0.338690 0.308320 0.993240 -0.533812
O10   O     O_R   0.661310 0.691680 0.006760 -0.533968
O11   O     O_R   0.161310 0.808320 0.006760 -0.533714
O12   O     O_R   0.838690 0.191680 0.993240 -0.532851
O13   O     O_R   0.286170 0.140430 0.130100 -0.575002
O14   O     O_R   0.713830 0.859570 0.869900 -0.589427
O15   O     O_R   0.213830 0.640430 0.869900 -0.581451
O16   O     O_R   0.786170 0.359570 0.130100 -0.579170
C5    C     C_R   0.364973 0.477340 0.997741 1.173030
C6    C     C_R   0.634929 0.522757 0.001732 1.172836
C7    C     C_R   0.134999 0.977310 0.002056 1.181942
C8    C     C_R   0.865046 0.022723 0.998175 1.178718
O17   O     O_3   0.232630 0.472410 0.044750 -0.273588
O18   O     O_3   0.767370 0.527590 0.955250 -0.272008
O19   O     O_3   0.267370 0.972410 0.955250 -0.274930
O20   O     O_3   0.732630 0.027590 0.044750 -0.272395
V1    V     V_3+5 0.253220 0.196620 0.991700 1.400886
V2    V     V_3+5 0.746780 0.803380 0.008300 1.406755
V3    V     V_3+5 0.246780 0.696620 0.008300 1.394337
V4    V     V_3+5 0.753220 0.303380 0.991700 1.411271
C9    C     C_R   0.035133 0.836088 0.029345 0.713432
C10   C     C_R   0.965057 0.164234 0.971569 0.715893
C11   C     C_R   0.465056 0.334987 0.971368 0.716423
C12   C     C_R   0.534574 0.665732 0.026745 0.709909
C13   C     C_R   0.970443 0.847250 0.028314 0.691532
C14   C     C_R   0.029750 0.153107 0.972658 0.694056
C15   C     C_R   0.529708 0.346242 0.972256 0.691827
C16   C     C_R   0.469791 0.654954 0.025102 0.694877
C17   C     C_R   0.934180 0.011484 0.999200 -0.792964
C18   C     C_R   0.065951 0.988680 0.001452 -0.792575
C19   C     C_R   0.565762 0.511599 0.000488 -0.783760
C20   C     C_R   0.433954 0.488892 0.998019 -0.787854
C21   C     C_R   0.678634 0.018198 0.722114 -0.603239
C22   C     C_R   0.323865 0.974682 0.277733 -0.580935
C23   C     C_R   0.822070 0.523299 0.277059 -0.585416
C24   C     C_R   0.179594 0.474450 0.722695 -0.588936
C25   C     C_R   0.687166 0.115555 0.570253 0.337928
C26   C     C_R   0.321950 0.833480 0.425023 0.305495
C27   C     C_R   0.819047 0.632098 0.430845 0.325192
C28   C     C_R   0.186181 0.361526 0.571359 0.318345
C29   C     C_R   0.713897 0.097842 0.667517 0.653093
C30   C     C_R   0.289998 0.889345 0.332830 0.648232
C31   C     C_R   0.790120 0.615597 0.333359 0.631878
C32   C     C_R   0.214517 0.390075 0.668124 0.630995
C33   C     C_R   0.615469 0.956937 0.679345 0.789164
C34   C     C_R   0.389426 0.015550 0.316995 0.761516
C35   C     C_R   0.885291 0.461039 0.316384 0.776357
C36   C     C_R   0.114737 0.519271 0.682114 0.769309
C37   C     C_R   0.588907 0.956304 0.579751 -0.088675
C38   C     C_R   0.425284 0.933172 0.403584 -0.101747
C39   C     C_R   0.918963 0.503587 0.410979 -0.122251
C40   C     C_R   0.082647 0.467330 0.588062 -0.119610
C41   C     C_R   0.624964 0.041282 0.524961 -0.419030
C42   C     C_R   0.390430 0.840627 0.457777 -0.424150
C43   C     C_R   0.882284 0.561136 0.470643 -0.431858
C44   C     C_R   0.120704 0.412372 0.529784 -0.426553
C45   C     C_R   0.525122 0.889714 0.533816 -0.094203
C46   C     C_R   0.494313 0.942333 0.439188 -0.114961
C47   C     C_R   0.987224 0.484673 0.449403 -0.097227
C48   C     C_R   0.014285 0.476448 0.548980 -0.094769
C49   C     C_R   0.534576 0.989927 0.383088 0.221350
C50   C     C_R   0.491957 0.763415 0.576239 0.250717
C51   C     C_R   0.971745 0.471319 0.605627 0.212103
C52   C     C_R   0.029787 0.483070 0.392639 0.206752
C53   C     C_R   0.598084 0.048283 0.426446 0.801447
C54   C     C_R   0.424937 0.744159 0.539377 0.791654
C55   C     C_R   0.907746 0.529618 0.567620 0.821865
C56   C     C_R   0.093987 0.427015 0.431743 0.820696
F1    F     F_    0.067690 0.675705 0.059644 -0.535438
F2    F     F_    0.932579 0.324878 0.941605 -0.534047
F3    F     F_    0.432774 0.173266 0.942165 -0.541868
F4    F     F_    0.566763 0.827686 0.055714 -0.534755
F5    F     F_    0.943994 0.696696 0.057813 -0.548960
F6    F     F_    0.056310 0.304033 0.943677 -0.548027
F7    F     F_    0.556268 0.194661 0.943322 -0.552281
F8    F     F_    0.442751 0.808289 0.051530 -0.545927
F9    F     F_    0.634212 0.102168 0.370726 -0.579512
F10   F     F_    0.394648 0.615318 0.578002 -0.581297
F11   F     F_    0.867928 0.526833 0.622951 -0.560560
F12   F     F_    0.132579 0.416880 0.374773 -0.567678
F13   F     F_    0.416604 0.137035 0.270249 -0.652508
F14   F     F_    0.578192 0.921695 0.736319 -0.633586
F15   F     F_    0.084178 0.618512 0.734178 -0.648373
F16   F     F_    0.912417 0.353892 0.262818 -0.650531
F17   F     F_    0.225334 0.862957 0.296346 -0.590462
F18   F     F_    0.773862 0.167192 0.709699 -0.592784
F19   F     F_    0.276014 0.332607 0.709875 -0.597919
F20   F     F_    0.730842 0.690008 0.292640 -0.597081
N1    N     N_R   0.720626 0.230205 0.521401 0.301553
O21   O     O_R   0.731709 0.403092 0.547118 -0.264197
O22   O     O_R   0.752528 0.155318 0.469063 -0.250255
N2    N     N_R   0.284520 0.773531 0.484886 0.309473
O23   O     O_R   0.297464 0.838806 0.570177 -0.259108
O24   O     O_R   0.231592 0.679148 0.450302 -0.248320
N3    N     N_R   0.786825 0.736546 0.486623 0.310890
O25   O     O_R   0.724145 0.746542 0.461625 -0.254073
O26   O     O_R   0.819944 0.843093 0.554842 -0.280480
N4    N     N_R   0.222519 0.267269 0.518210 0.304747
O27   O     O_R   0.283751 0.301352 0.534288 -0.222790
O28   O     O_R   0.196703 0.128871 0.463192 -0.277361
N5    N     N_R   0.516147 0.944570 0.284385 0.304281
O29   O     O_R   0.485525 0.789889 0.254450 -0.339001
O30   O     O_R   0.534151 0.048781 0.225315 -0.187839
N6    N     N_R   0.526652 0.631413 0.645541 0.282809
O31   O     O_R   0.579553 0.555885 0.638322 -0.377559
O32   O     O_R   0.503377 0.576093 0.712120 -0.246280
N7    N     N_R   0.990315 0.385435 0.696987 0.292694
O33   O     O_R   0.024303 0.233061 0.711017 -0.354237
O34   O     O_R   0.968896 0.449482 0.764035 -0.170815
N8    N     N_R   0.011642 0.563427 0.300058 0.297010
O35   O     O_R   0.030709 0.488648 0.233028 -0.175949
O36   O     O_R   0.981531 0.722386 0.285147 -0.344180

loop_
_geom_bond_atom_site_label_1
_geom_bond_atom_site_label_2
_geom_bond_distance
_ccdc_geom_bond_type
C34   C38   1.424574 A    
O1    C5    1.326635 A    
N1    O21   1.298702 A    
O19   V1    1.752279 S    
O13   V1    2.013424 S    
O3    C7    1.327348 A    
C15   F7    1.358051 S    
O15   V3    2.009978 S    
N2    O24   1.300221 A    
C54   F10   1.358849 S    
O7    C3    1.333311 A    
C21   C33   1.399509 A    
C26   C30   1.402331 A    
C7    C18   1.497654 S    
C25   C41   1.421003 A    
C14   F6    1.357812 S    
C9    C18   1.410022 A    
C40   C44   1.417977 A    
O9    V1    2.014417 S    
C34   F13   1.356785 S    
C14   C18   1.413761 A    
C25   N1    1.432179 S    
C47   C52   1.424237 A    
O4    C8    1.327385 A    
C37   C45   1.431443 A    
O1    V3    2.006069 S    
C49   N5    1.439835 S    
N6    O31   1.301905 A    
C38   C46   1.434708 A    
O2    V4    2.006067 S    
O3    V1    2.006469 S    
N4    O27   1.301384 A    
C1    O15   1.338745 A    
C2    O16   1.337182 A    
C31   F20   1.359409 S    
O2    C6    1.326850 A    
N3    O25   1.301444 A    
C30   F17   1.359271 S    
O14   V2    2.013426 S    
C55   F11   1.358744 S    
C28   C44   1.419820 A    
O11   C7    1.333922 A    
C21   C29   1.394586 A    
O12   C8    1.333881 A    
C22   C34   1.399252 A    
C8    C17   1.497643 S    
N3    O26   1.301799 A    
C10   C17   1.409925 A    
O10   V2    2.014412 S    
C48   C51   1.423028 A    
N2    O23   1.301726 A    
C24   C36   1.395367 A    
O5    V1    2.018198 S    
N7    O34   1.301493 A    
C42   C54   1.408731 A    
C39   C43   1.416893 A    
O7    V3    2.011945 S    
C38   C42   1.424729 A    
O8    V4    2.011946 S    
C12   C16   1.400642 A    
C51   N7    1.440450 S    
C11   F3    1.357780 S    
O18   V4    1.756701 S    
C15   C19   1.414083 A    
C9    C13   1.401325 A    
C56   F12   1.358349 S    
C11   C15   1.401199 A    
O5    C1    1.330389 A    
C5    C20   1.497730 S    
C6    C19   1.497437 S    
C28   N4    1.438602 S    
O8    C4    1.334059 A    
C50   N6    1.441355 S    
C22   C30   1.396082 A    
C46   C49   1.418249 A    
O9    C5    1.333867 A    
C45   C50   1.418751 A    
C27   C43   1.419230 A    
C33   C37   1.422873 A    
C11   C20   1.409892 A    
C26   C42   1.420948 A    
C27   N3    1.441604 S    
O6    V2    2.018197 S    
C39   C47   1.427724 A    
C33   F14   1.358366 S    
C35   F16   1.358702 S    
N8    O36   1.301677 A    
C44   C56   1.406342 A    
C23   C31   1.400227 A    
N5    O29   1.301626 A    
O16   V4    2.009977 S    
C13   F5    1.357909 S    
C24   C32   1.400205 A    
C3    O13   1.340511 A    
C41   C53   1.409910 A    
C10   C14   1.401146 A    
O17   V3    1.756700 S    
C52   C56   1.401042 A    
C4    C21   1.472508 S    
C12   C19   1.409780 A    
O6    C2    1.331926 A    
N7    O33   1.301712 A    
O11   V3    2.014056 S    
C53   F9    1.356312 S    
C29   F18   1.359855 S    
O12   V4    2.014061 S    
C35   C39   1.413404 A    
C36   C40   1.415255 A    
C52   N8    1.439722 S    
O10   C6    1.333516 A    
O20   V2    1.752279 S    
C47   C48   1.425212 A    
C16   F8    1.357669 S    
C51   C55   1.400075 A    
C12   F4    1.357802 S    
C25   C29   1.397711 A    
N6    O32   1.301763 A    
C27   C31   1.404848 A    
C40   C48   1.425618 A    
C13   C17   1.413924 A    
C45   C46   1.421653 A    
N4    O28   1.301427 A    
C23   C35   1.396685 A    
C36   F15   1.358998 S    
C37   C41   1.425278 A    
C16   C20   1.414014 A    
C1    C24   1.465797 S    
N1    O22   1.300139 A    
C50   C54   1.400695 A    
C4    O14   1.338648 A    
C2    C23   1.465563 S    
C49   C53   1.400912 A    
C3    C22   1.474205 S    
C10   F2    1.357783 S    
C32   F19   1.359402 S    
N8    O35   1.301704 A    
C9    F1    1.357818 S    
C43   C55   1.404015 A    
O4    V2    2.006472 S    
C26   N2    1.438895 S    
C28   C32   1.403022 A    
N5    O30   1.301744 A    
