data_mof_unit_16482.cif
_audit_creation_date              2012-12-11T14:32:56-0500
_audit_creation_method            fapswitch 2.2
_symmetry_space_group_name_H-M    P1
_symmetry_Int_Tables_number       1
_space_group_crystal_system       triclinic
_cell_length_a                    6.950141
_cell_length_b                    13.760559
_cell_length_c                    17.957883
_cell_angle_alpha                 112.421691
_cell_angle_beta                  95.680525
_cell_angle_gamma                 90.17033
_cell_volume                      1578.27084806

loop_
_atom_site_label
_atom_site_type_symbol
_atom_type_description
_atom_site_fract_x
_atom_site_fract_y
_atom_site_fract_z
_atom_type_partial_charge
O1    O     O_R   0.484560 0.544530 0.414330 -0.526175
O2    O     O_R   0.197040 0.638810 0.585080 -0.540546
O3    O     O_R   0.026800 0.455470 0.585670 -0.544767
C1    C     C_R   0.373925 0.678629 0.610579 0.674994
O4    O     O_R   0.155000 0.556150 0.414940 -0.547755
O5    O     O_R   0.984450 0.372220 0.414320 -0.542700
C2    C     C_R   0.317037 0.561146 0.384577 0.796428
O6    O     O_R   0.526900 0.627780 0.585680 -0.543756
O7    O     O_3   0.339170 0.439750 0.499990 -0.376779
V1    V     V_3+5 0.064350 0.511180 0.500000 1.389559
O8    O     O_R   0.654880 0.361190 0.414920 -0.524983
C3    C     C_R   0.816959 0.324430 0.386535 0.802023
O9    O     O_R   0.696930 0.443850 0.585060 -0.546791
C4    C     C_R   0.873624 0.433127 0.612038 0.678331
V2    V     V_3+5 0.564340 0.488820 0.500000 1.421087
O10   O     O_3   0.839390 0.560250 0.500010 -0.379688
C5    C     C_R   0.040532 0.860597 0.822482 -0.051638
C6    C     C_R   0.908752 0.396599 0.679151 -0.048125
C7    C     C_R   0.917808 0.820926 0.682823 -0.127224
C8    C     C_R   0.970316 0.787818 0.745835 -0.144177
C9    C     C_R   0.054241 0.968107 0.836143 -0.211300
C10   C     C_R   0.000950 0.004206 0.772650 0.095362
C11   C     C_R   0.932124 0.927784 0.695399 0.116392
C12   C     C_R   0.011538 0.112905 0.783074 0.050953
C13   C     C_R   0.948886 0.143059 0.716547 0.054842
C14   C     C_R   0.883131 0.063140 0.641173 -0.171653
C15   C     C_R   0.875931 0.958036 0.631016 -0.209424
C16   C     C_R   0.085213 0.192259 0.857452 -0.189594
C17   C     C_R   0.093450 0.297279 0.867567 -0.228085
C18   C     C_R   0.027222 0.328225 0.804566 0.115501
C19   C     C_R   0.955421 0.252098 0.727605 0.092169
C20   C     C_R   0.037419 0.435390 0.817939 -0.125799
C21   C     C_R   0.980901 0.469035 0.755627 -0.140807
C22   C     C_R   0.896213 0.288872 0.665002 -0.228087
H1    H     H_    0.823251 0.899605 0.571986 0.126291
H2    H     H_    0.843676 0.236402 0.604396 0.101327
H3    H     H_    0.996009 0.551893 0.766911 0.089940
H4    H     H_    0.151669 0.355284 0.925950 0.138084
H5    H     H_    0.863460 0.762725 0.624042 0.136981
H6    H     H_    0.953750 0.705131 0.734906 0.090598
H7    H     H_    0.102206 0.021048 0.897147 0.103683
H8    H     H_    0.835069 0.079015 0.588275 0.142462
H9    H     H_    0.140153 0.175988 0.909456 0.151028
H10   H     H_    0.093308 0.493347 0.876603 0.137490
H11   H     H_    0.114054 0.223898 0.308994 0.162864
H12   H     H_    0.834472 0.034617 0.193513 0.153239
C23   C     C_2   0.135718 0.037589 0.184056 -0.320837
C24   C     C_2   0.972809 0.077890 0.216998 -0.106782
H13   H     H_    0.674706 0.177523 0.294429 0.135988
C25   C     C_2   0.812773 0.220905 0.318406 -0.292573
C26   C     C_2   0.975706 0.180642 0.285470 -0.106790
H14   H     H_    0.273758 0.081026 0.207975 0.138909
C27   C     C_R   0.408877 0.783876 0.678218 -0.054489
C28   C     C_R   0.540157 0.472955 0.826718 -0.053739
C29   C     C_R   0.527355 0.883041 0.818447 -0.118065
C30   C     C_R   0.474571 0.787489 0.755130 -0.139986
C31   C     C_R   0.400698 0.879371 0.665425 -0.205763
C32   C     C_R   0.454886 0.979597 0.730144 0.108892
C33   C     C_R   0.516929 0.978200 0.806886 0.074657
C34   C     C_R   0.451476 0.080211 0.721770 0.025279
C35   C     C_R   0.509304 0.177654 0.790074 -0.015091
C36   C     C_R   0.577188 0.168939 0.865489 -0.007772
C37   C     C_R   0.573918 0.071002 0.872274 -0.205505
C38   C     C_R   0.390283 0.085012 0.646414 -0.163817
C39   C     C_R   0.383130 0.179005 0.634166 -0.043175
C40   C     C_R   0.439348 0.275138 0.699219 0.048727
C41   C     C_R   0.496302 0.277255 0.778596 0.099457
C42   C     C_R   0.438868 0.370054 0.686006 -0.136857
C43   C     C_R   0.492945 0.466239 0.748043 -0.128122
C44   C     C_R   0.528661 0.380061 0.842407 -0.221708
H15   H     H_    0.626258 0.066142 0.929725 0.157441
H16   H     H_    0.529049 0.392947 0.905116 0.099042
H17   H     H_    0.493112 0.536343 0.734505 0.087564
H18   H     H_    0.578755 0.882462 0.877153 0.146036
H19   H     H_    0.487209 0.715831 0.766291 0.088204
H20   H     H_    0.355176 0.871607 0.604321 0.093492
H21   H     H_    0.341443 0.015174 0.594833 0.161481
H22   H     H_    0.401107 0.371710 0.626906 0.132146
H23   H     H_    0.340689 0.671874 0.198162 0.160614
C45   C     C_2   0.317821 0.598236 0.316703 -0.353243
C46   C     C_2   0.464800 0.580800 0.268417 0.015932
H24   H     H_    0.770182 0.617626 0.193944 0.118545
C47   C     C_2   0.633885 0.646539 0.177968 -0.330421
C48   C     C_2   0.472927 0.637474 0.212337 -0.190914
H25   H     H_    0.202344 0.648504 0.310342 0.112792
O11   O     O_R   0.421600 0.630430 0.917010 -0.541595
O12   O     O_R   0.793840 0.702190 0.087630 -0.542937
O13   O     O_R   0.964010 0.886170 0.088190 -0.536674
C49   C     C_R   0.631226 0.692253 0.115383 0.770498
O14   O     O_R   0.751460 0.619510 0.917500 -0.539462
O15   O     O_R   0.921330 0.802900 0.916840 -0.543293
C50   C     C_R   0.574478 0.579334 0.892773 0.680436
O16   O     O_R   0.464290 0.713700 0.088350 -0.537098
O17   O     O_3   0.609200 0.818520 0.002630 -0.375293
V3    V     V_3+5 0.884140 0.747190 0.002530 1.387325
O18   O     O_R   0.251150 0.814630 0.917340 -0.542448
C51   C     C_R   0.074513 0.824709 0.890046 0.692022
O19   O     O_R   0.293530 0.897310 0.087470 -0.540017
C52   C     C_R   0.131522 0.933977 0.115981 0.762187
V4    V     V_3+5 0.384070 0.769710 0.002370 1.390268
O20   O     O_3   0.109180 0.698190 0.002460 -0.374713
C53   C     C_2   0.305235 0.173579 0.552168 0.335295
H26   H     H_    0.227739 0.237877 0.544470 0.049962
O21   O     O_2   0.323282 0.095210 0.491708 -0.534628
C54   C     C_2   0.670967 0.255502 0.938368 0.346072
H27   H     H_    0.771496 0.311745 0.932915 0.063203
O22   O     O_2   0.639690 0.263621 0.006208 -0.520095
C55   C     C_2   0.608652 0.499396 0.264676 0.485570
H28   H     H_    0.760459 0.514154 0.261989 0.013423
O23   O     O_2   0.556441 0.413106 0.261802 -0.529331

loop_
_geom_bond_atom_site_label_1
_geom_bond_atom_site_label_2
_ccdc_geom_bond_type
C13   C19   A    
C40   C42   A    
C29   C30   A    
C29   C33   A    
C1    C27   S    
C38   H21   S    
C4    C6    S    
O2    C1    A    
C7    C8    A    
C1    O6    A    
O14   V3    S    
C36   C54   S    
C54   O22   D    
C14   C15   A    
C17   C18   A    
C31   H20   S    
C16   C17   A    
O5    C3    A    
H23   C48   S    
C8    H6    S    
H11   C26   S    
C32   C34   A    
V2    O10   S    
O19   C52   A    
C5    C8    A    
C23   C52   S    
C55   H28   S    
C29   H18   S    
O8    V2    S    
C24   C26   S    
C23   C24   D    
C42   C43   A    
O12   V3    S    
C17   H4    S    
C43   H17   S    
O1    V2    S    
C11   C15   A    
O11   V4    S    
O7    V1    S    
C40   C41   A    
O13   V3    S    
C30   H19   S    
O9    C4    A    
C49   O16   A    
C53   H26   S    
C39   C53   S    
C42   H22   S    
C47   C49   S    
H12   C24   S    
C12   C13   A    
O4    C2    A    
C27   C31   A    
C15   H1    S    
C32   C33   A    
C21   H3    S    
C34   C35   A    
C7    C11   A    
C28   C50   S    
C45   H25   S    
C35   C41   A    
O14   C50   A    
C47   C48   D    
C28   C44   A    
O17   V4    S    
O18   C51   A    
C36   C37   A    
C25   C26   D    
C20   H10   S    
C19   C22   A    
O17   V3    S    
O15   C51   A    
C53   O21   D    
C6    C22   A    
O16   V4    S    
O3    C4    A    
C7    H5    S    
C9    H7    S    
C37   H15   S    
H24   C47   S    
O6    V2    S    
O19   V4    S    
O12   C49   A    
C10   C12   A    
O2    V1    S    
C46   C48   S    
C14   H8    S    
C27   C30   A    
O1    C2    A    
C12   C16   A    
C45   C46   D    
O5    V1    S    
V1    O10   S    
C3    C25   S    
O8    C3    A    
C23   H14   S    
C54   H27   S    
C16   H9    S    
C33   C37   A    
C34   C38   A    
C41   C44   A    
C20   C21   A    
O9    V2    S    
C13   C14   A    
O4    V1    S    
O3    V1    S    
O11   C50   A    
C38   C39   A    
C18   C20   A    
C31   C32   A    
C18   C19   A    
C28   C43   A    
O18   V4    S    
V4    O20   S    
C55   O23   D    
C22   H2    S    
C39   C40   A    
O7    V2    S    
C35   C36   A    
C6    C21   A    
C5    C9    A    
C46   C55   S    
O13   C52   A    
O15   V3    S    
H13   C25   S    
C10   C11   A    
C44   H16   S    
C9    C10   A    
C5    C51   S    
V3    O20   S    
C2    C45   S    
