data_mof_unit_44507.cif
_audit_creation_date              2012-12-10T17:55:53-0500
_audit_creation_method            fapswitch 2.2
_symmetry_space_group_name_H-M    P1
_symmetry_Int_Tables_number       1
_space_group_crystal_system       triclinic
_cell_length_a                    11.057488
_cell_length_b                    10.894249
_cell_length_c                    9.650763
_cell_angle_alpha                 90.761859
_cell_angle_beta                  102.680321
_cell_angle_gamma                 95.123681
_cell_volume                      1129.02557589

loop_
_atom_site_label
_atom_site_type_symbol
_atom_type_description
_atom_site_fract_x
_atom_site_fract_y
_atom_site_fract_z
_atom_type_partial_charge
C1    C     C_R   0.509919 0.263387 0.501347 0.815131
C2    C     C_R   0.490102 0.736619 0.498660 0.815145
C3    C     C_R   0.263060 0.499445 0.442049 0.845168
C4    C     C_R   0.736940 0.500554 0.557951 0.845160
C5    C     C_R   0.412594 0.425363 0.051384 0.232391
C6    C     C_R   0.587421 0.574619 0.948617 0.232356
C7    C     C_R   0.413858 0.423864 0.903137 0.236941
C8    C     C_R   0.586145 0.576134 0.096862 0.236970
C9    C     C_2   0.127936 0.498841 0.409723 -0.357794
C10   C     C_2   0.872063 0.501152 0.590278 -0.357804
C11   C     C_2   0.067436 0.500852 0.515316 -0.154033
C12   C     C_2   0.932563 0.499132 0.484685 -0.154024
C13   C     C_R   0.504074 0.060105 0.372282 0.127898
C14   C     C_R   0.496028 0.939913 0.627758 0.127878
C15   C     C_R   0.469058 0.933150 0.368951 0.132072
C16   C     C_R   0.531024 0.066875 0.631079 0.132116
C17   C     C_R   0.479612 0.870933 0.498192 -0.140936
C18   C     C_R   0.520456 0.129084 0.501835 -0.140923
Cu1   Cu    Cu3+1 0.500000 0.500020 0.640660 0.917517
Cu2   Cu    Cu3+1 0.500000 0.499980 0.359340 0.917537
H1    H     H_    0.882501 0.496072 0.374135 0.183526
H2    H     H_    0.117497 0.503906 0.625865 0.183530
H3    H     H_    0.922387 0.503576 0.700695 0.144930
H4    H     H_    0.077613 0.496422 0.299305 0.144947
N1    N     N_R   0.500030 0.500030 0.852080 -0.190946
N2    N     N_R   0.499970 0.499970 0.147920 -0.190951
O1    O     O_R   0.499990 0.319660 0.618740 -0.581616
O2    O     O_R   0.500010 0.680340 0.381260 -0.581619
O3    O     O_R   0.499990 0.319630 0.381170 -0.587557
O4    O     O_R   0.500010 0.680370 0.618830 -0.587561
O5    O     O_R   0.320690 0.500020 0.575130 -0.584825
O6    O     O_R   0.679310 0.499980 0.424870 -0.584825
O7    O     O_R   0.320680 0.499990 0.337560 -0.584714
O8    O     O_R   0.679320 0.500010 0.662440 -0.584720
C19   C     C_3   0.306640 0.350069 0.097648 -0.791857
H5    H     H_    0.283908 0.257924 0.044240 0.183152
H6    H     H_    0.326749 0.326340 0.208935 0.275292
H7    H     H_    0.221930 0.400523 0.074296 0.214298
C20   C     C_3   0.693434 0.649808 0.902348 -0.791921
H8    H     H_    0.716427 0.741871 0.955914 0.183178
H9    H     H_    0.778020 0.599164 0.925453 0.214433
H10   H     H_    0.673237 0.673704 0.791111 0.275219
C21   C     C_3   0.318812 0.333431 0.806185 -0.781946
H11   H     H_    0.323130 0.328256 0.695292 0.279426
H12   H     H_    0.331750 0.238003 0.840943 0.186066
H13   H     H_    0.223160 0.355148 0.809065 0.199809
C22   C     C_3   0.681201 0.666553 0.193816 -0.782005
H14   H     H_    0.676861 0.671752 0.304702 0.279432
H15   H     H_    0.776848 0.644801 0.190963 0.199838
H16   H     H_    0.668297 0.761981 0.159031 0.186041
C23   C     C_3   0.536435 0.116586 0.240545 -0.811833
H17   H     H_    0.618270 0.186184 0.269729 0.243593
H18   H     H_    0.564770 0.046717 0.172190 0.219283
H19   H     H_    0.455373 0.157923 0.176862 0.239271
C24   C     C_3   0.463766 0.883422 0.759539 -0.811850
H20   H     H_    0.381894 0.813864 0.730415 0.243607
H21   H     H_    0.544844 0.842040 0.823121 0.239277
H22   H     H_    0.435532 0.953285 0.827981 0.219284
C25   C     C_3   0.405743 0.869074 0.227500 -0.804845
H23   H     H_    0.334559 0.794458 0.241456 0.236107
H24   H     H_    0.354067 0.934024 0.154365 0.218677
H25   H     H_    0.475218 0.831243 0.175915 0.242351
C26   C     C_3   0.594357 0.130968 0.772514 -0.804864
H26   H     H_    0.665485 0.205628 0.758529 0.236113
H27   H     H_    0.524886 0.168746 0.824147 0.242324
H28   H     H_    0.646106 0.066043 0.845614 0.218686

loop_
_geom_bond_atom_site_label_1
_geom_bond_atom_site_label_2
_ccdc_geom_bond_type
C6    C8    A    
C11   C12   S    
C26   H27   S    
C9    H4    S    
C3    C9    S    
C16   C26   S    
C7    C21   S    
C10   H3    S    
C22   H15   S    
C21   H12   S    
C11   H2    S    
Cu1   Cu2   S    
C7    N1    A    
C13   C15   A    
C2    O4    A    
C24   H20   S    
C23   H19   S    
Cu1   O5    S    
C1    O3    A    
C14   C24   S    
C26   H28   S    
C5    C7    A    
C25   H23   S    
C20   H9    S    
C13   C23   S    
C2    C17   S    
C3    O5    A    
C23   H17   S    
C9    C11   D    
C14   C17   A    
C1    C18   S    
C4    O6    A    
Cu2   N2    S    
C13   C18   A    
Cu2   O7    S    
C10   C12   D    
C16   C18   A    
Cu1   O1    S    
C19   H6    S    
C22   H16   S    
C4    O8    A    
Cu2   O3    S    
C24   H21   S    
C21   H11   S    
Cu1   N1    S    
C21   H13   S    
C14   C16   A    
C8    C22   S    
C6    N1    A    
C25   H24   S    
C3    O7    A    
C4    C10   S    
C5    N2    A    
C22   H14   S    
C5    C19   S    
C19   H7    S    
C8    N2    A    
C1    O1    A    
Cu2   O6    S    
C24   H22   S    
C20   H8    S    
C15   C17   A    
C20   H10   S    
C25   H25   S    
C2    O2    A    
Cu2   O2    S    
C6    C20   S    
Cu1   O4    S    
C15   C25   S    
C12   H1    S    
C19   H5    S    
C26   H26   S    
C23   H18   S    
Cu1   O8    S    
