data_mof_unit_47541.cif
_audit_creation_date              2013-03-05T16:06:19-0500
_audit_creation_method            fapswitch 2.2
_symmetry_space_group_name_H-M    P1
_symmetry_Int_Tables_number       1
_space_group_crystal_system       triclinic
_cell_length_a                    10.821965
_cell_length_b                    9.516636
_cell_length_c                    27.813875
_cell_angle_alpha                 89.941016
_cell_angle_beta                  90.457789
_cell_angle_gamma                 90.162538
_cell_volume                      2864.41046484

loop_
_atom_site_label
_atom_site_type_symbol
_atom_site_description
_atom_site_fract_x
_atom_site_fract_y
_atom_site_fract_z
_atom_type_partial_charge
O1    O     O_R   0.319640 0.618740 0.500000 -0.504378
O2    O     O_R   0.680360 0.381260 0.500000 -0.504638
O3    O     O_R   0.680360 0.618740 0.500000 -0.525851
O4    O     O_R   0.319640 0.381260 0.500000 -0.524473
C1    C     C_R   0.262160 0.499858 0.499963 0.949231
C2    C     C_R   0.737839 0.500142 0.500029 0.948953
O5    O     O_R   0.500020 0.618770 0.430260 -0.521302
O6    O     O_R   0.499980 0.381230 0.569740 -0.515345
O7    O     O_R   0.499980 0.618770 0.569740 -0.494393
O8    O     O_R   0.500020 0.381230 0.430260 -0.494551
C3    C     C_R   0.500298 0.500009 0.407333 0.883323
C4    C     C_R   0.499933 0.499939 0.592724 0.878162
Cu1   Cu    Cu3+1 0.500000 0.640660 0.500000 1.182245
Cu2   Cu    Cu3+1 0.500000 0.359340 0.500000 1.185348
C5    C     C_R   0.392148 0.494239 0.177397 0.648189
C6    C     C_R   0.599177 0.553522 0.823022 0.652866
O9    O     O_2   0.285889 0.490172 0.202424 -0.421325
O10   O     O_2   0.695683 0.604966 0.798052 -0.411989
N1    N     N_R   0.502483 0.497671 0.201583 -0.456108
N2    N     N_R   0.499646 0.499152 0.798790 -0.456035
C7    C     C_R   0.612700 0.500282 0.177943 0.626416
C8    C     C_R   0.400519 0.443862 0.822491 0.629849
C9    C     C_R   0.534650 0.377221 0.278635 -0.166327
C10   C     C_R   0.490502 0.626214 0.721969 -0.157821
C11   C     C_R   0.533940 0.377112 0.328772 0.594348
C12   C     C_R   0.490539 0.627069 0.671828 0.598352
C13   C     C_R   0.469720 0.621828 0.328035 0.578258
C14   C     C_R   0.508493 0.372347 0.671889 0.582693
C15   C     C_R   0.470176 0.620519 0.277900 -0.161234
C16   C     C_R   0.508368 0.372887 0.722016 -0.161401
C17   C     C_R   0.502563 0.498525 0.253124 0.132055
C18   C     C_R   0.499465 0.499460 0.747189 0.126397
C19   C     C_R   0.501993 0.496896 0.101663 -0.202464
C20   C     C_R   0.500407 0.497872 0.898763 -0.207284
C21   C     C_R   0.389282 0.494158 0.126846 -0.196082
C22   C     C_R   0.601564 0.554914 0.873580 -0.200429
C23   C     C_R   0.277103 0.495033 0.100961 0.558353
C24   C     C_R   0.700690 0.614703 0.899476 0.576775
C25   C     C_R   0.615346 0.498355 0.127266 -0.181651
C26   C     C_R   0.399261 0.439740 0.873162 -0.179974
C27   C     C_R   0.501302 0.499727 0.354177 -0.318603
C28   C     C_R   0.499685 0.499790 0.645993 -0.324692
H1    H     H_    0.445307 0.714552 0.258152 0.195464
H2    H     H_    0.515672 0.274574 0.741475 0.194611
C29   C     C_R   0.393695 0.456259 0.974826 -0.073152
C30   C     C_R   0.613126 0.517340 0.025600 -0.070383
C31   C     C_R   0.607650 0.542035 0.975264 -0.064200
C32   C     C_R   0.388678 0.480249 0.025169 -0.069856
C33   C     C_R   0.500645 0.498557 0.949652 -0.075615
C34   C     C_R   0.501277 0.497948 0.050778 -0.071669
C35   C     C_R   0.298725 0.386445 0.949123 0.563050
C36   C     C_R   0.725732 0.505646 0.051298 0.562274
C37   C     C_R   0.301874 0.376205 0.898971 0.392668
C38   C     C_R   0.727338 0.494303 0.101457 0.360746
O11   O     O_2   0.303061 0.395209 0.796878 -0.451592
O12   O     O_2   0.718829 0.506621 0.203637 -0.452457
C39   C     C_R   0.276123 0.492336 0.050740 0.413979
C40   C     C_R   0.702403 0.612735 0.949696 0.445977
H3    H     H_    0.483054 0.724385 0.741388 0.195228
H4    H     H_    0.559943 0.282718 0.259458 0.189503
C41   C     C_R   0.063075 0.387196 0.479335 0.540294
C42   C     C_R   0.936922 0.612819 0.520640 0.540723
C43   C     C_R   0.935214 0.387430 0.479300 0.531685
C44   C     C_R   0.064781 0.612591 0.520671 0.530147
C45   C     C_R   0.871624 0.500252 0.499963 -0.502342
C46   C     C_R   0.128373 0.499757 0.500016 -0.500188
C47   C     C_R   0.424271 0.074190 0.469510 0.593634
C48   C     C_R   0.575715 0.925820 0.530501 0.600460
C49   C     C_R   0.575919 0.074552 0.530430 0.592189
C50   C     C_R   0.423851 0.925470 0.469665 0.586467
N3    N     N_R   0.500000 0.852070 0.500000 -0.373010
N4    N     N_R   0.500000 0.147930 0.500000 -0.368961
F1    F     F_    0.436591 0.742072 0.350651 -0.551863
F2    F     F_    0.517876 0.246802 0.649100 -0.557074
F3    F     F_    0.348880 0.143732 0.438575 -0.493314
F4    F     F_    0.651167 0.856284 0.561413 -0.483237
F5    F     F_    0.652688 0.144498 0.560859 -0.512127
F6    F     F_    0.346403 0.855572 0.439504 -0.504051
F7    F     F_    0.166905 0.502519 0.123874 -0.576572
F8    F     F_    0.795536 0.679563 0.876568 -0.568396
F9    F     F_    0.480805 0.752691 0.648951 -0.558374
F10   F     F_    0.566973 0.257514 0.352155 -0.571532
O13   O     O_3   0.206443 0.306735 0.875595 -0.484017
C51   C     C_3   0.237090 0.163015 0.872482 -0.105237
H5    H     H_    0.324487 0.147036 0.852358 0.129304
H6    H     H_    0.162362 0.107787 0.852488 0.209549
H7    H     H_    0.244196 0.113978 0.908733 0.157391
O14   O     O_3   0.840210 0.484459 0.124884 -0.478031
C52   C     C_3   0.873570 0.341409 0.127545 -0.002720
H8    H     H_    0.802480 0.278031 0.146624 0.101492
H9    H     H_    0.961045 0.332715 0.148370 0.231967
H10   H     H_    0.890244 0.296983 0.091200 0.168353
F11   F     F_    0.209119 0.313665 0.972383 -0.597370
F12   F     F_    0.834628 0.489659 0.028029 -0.582427
O15   O     O_3   0.163859 0.509872 0.027413 -0.459546
C53   C     C_3   0.149980 0.653120 0.015585 -0.083553
H11   H     H_    0.222473 0.688670 0.990113 0.093981
H12   H     H_    0.150794 0.720131 0.048376 0.149044
H13   H     H_    0.059135 0.667297 0.997503 0.251377
O16   O     O_3   0.794280 0.688330 0.972994 -0.494527
C54   C     C_3   0.746893 0.821155 0.985490 -0.237760
H14   H     H_    0.669682 0.811623 0.011489 0.131490
H15   H     H_    0.716352 0.880752 0.953056 0.168672
H16   H     H_    0.821529 0.882736 0.003217 0.201453
F13   F     F_    0.122574 0.278756 0.457987 -0.505837
F14   F     F_    0.877425 0.721258 0.541989 -0.505186
F15   F     F_    0.873912 0.279121 0.457946 -0.538206
F16   F     F_    0.126076 0.720918 0.542015 -0.542250

loop_
_geom_bond_atom_site_label_1
_geom_bond_atom_site_label_2
_geom_bond_distance
_ccdc_geom_bond_type
C16   C18   1.397836 A    
C43   C45   1.403025 A    
C54   H14   1.112839 S    
C13   C15   1.394565 A    
C49   F5    1.355134 S    
O15   C53   1.410201 S    
C51   H7    1.112788 S    
O3    C2    1.290255 A    
N1    C17   1.433574 S    
C32   C39   1.420424 A    
C31   C33   1.415742 A    
C5    N1    1.366129 A    
C23   F7    1.358733 S    
C19   C25   1.413522 A    
O1    C1    1.289536 A    
N1    C7    1.366722 A    
C10   C12   1.394651 A    
C10   H3    1.083149 S    
C25   C38   1.414167 A    
C50   F6    1.354803 S    
C29   C35   1.412155 A    
C53   H13   1.109216 S    
C30   C36   1.412430 A    
C47   N4    1.367538 A    
C41   C43   1.383709 A    
O7    Cu1   1.950682 S    
C4    C28   1.481643 S    
C24   C40   1.396909 A    
C41   C46   1.402929 A    
C2    C45   1.447822 S    
C48   C49   1.415424 A    
C53   H12   1.113399 S    
C42   C44   1.383684 A    
C36   F12   1.358008 S    
C50   N3    1.367424 A    
C52   H9    1.109096 S    
C41   F13   1.357670 S    
O3    Cu1   1.963554 S    
C6    N2    1.366785 A    
C32   C34   1.416261 A    
C14   F2    1.357501 S    
C54   H15   1.113547 S    
Cu1   Cu2   2.677220 S    
C15   H1    1.083013 S    
C16   H2    1.083173 S    
O2    C2    1.289539 A    
C5    C21   1.406123 A    
C36   C38   1.399166 A    
C44   F16   1.358800 S    
C9    H4    1.083039 S    
C40   O16   1.383000 S    
C51   H5    1.113741 S    
O8    Cu2   1.950682 S    
C11   C27   1.411987 A    
O4    C1    1.290265 A    
Cu1   N3    2.011912 S    
C19   C34   1.415288 A    
C35   C37   1.399107 A    
C9    C17   1.397625 A    
C49   N4    1.367461 A    
O5    C3    1.298282 A    
C10   C18   1.398002 A    
C13   C27   1.411485 A    
O13   C51   1.411197 S    
C7    C25   1.410205 A    
C29   C33   1.414794 A    
O6    C4    1.298624 A    
C8    C26   1.410033 A    
C53   H11   1.112975 S    
C52   H10   1.112413 S    
C35   F11   1.357901 S    
N2    C8    1.367330 A    
C12   F9    1.357671 S    
C11   F10   1.357680 S    
C20   C26   1.412843 A    
O1    Cu1   1.962377 S    
C43   F15   1.358809 S    
C12   C28   1.413116 A    
N2    C18   1.435209 S    
C29   C32   1.420426 A    
C5    O9    1.349403 S    
C30   C31   1.420198 A    
C20   C33   1.415429 A    
O6    Cu2   1.951109 S    
C42   C45   1.402918 A    
C21   C23   1.406524 A    
Cu2   N4    2.011913 S    
C51   H6    1.109284 S    
C1    C46   1.447842 S    
C7    O12   1.349089 S    
C8    O11   1.349127 S    
C42   F14   1.357674 S    
C48   F4    1.354462 S    
C30   C34   1.414789 A    
C37   O13   1.382987 S    
C47   C50   1.415310 A    
C22   C24   1.406519 A    
C14   C16   1.394244 A    
C15   C17   1.397652 A    
C6    C22   1.406345 A    
C31   C40   1.420081 A    
C38   O14   1.383186 S    
C24   F8    1.358880 S    
C48   N3    1.367674 A    
C14   C28   1.412996 A    
O16   C54   1.410334 S    
C19   C21   1.411560 A    
C3    C27   1.478603 S    
C20   C22   1.411308 A    
C9    C11   1.394594 A    
O4    Cu2   1.963554 S    
O2    Cu2   1.962377 S    
O7    C4    1.298487 A    
O8    C3    1.297275 A    
O5    Cu1   1.951109 S    
C47   F3    1.354495 S    
O14   C52   1.411119 S    
C6    O10   1.349343 S    
C26   C37   1.413940 A    
C39   O15   1.383182 S    
C54   H16   1.109268 S    
C52   H8    1.113775 S    
C13   F1    1.356872 S    
C23   C39   1.397035 A    
C44   C46   1.403025 A    
