data_mof_unit_58260.cif
_audit_creation_date              2012-12-10T18:34:39-0500
_audit_creation_method            fapswitch 2.2
_symmetry_space_group_name_H-M    P1
_symmetry_Int_Tables_number       1
_space_group_crystal_system       triclinic
_cell_length_a                    13.065932
_cell_length_b                    15.138969
_cell_length_c                    13.873005
_cell_angle_alpha                 90.527589
_cell_angle_beta                  95.786677
_cell_angle_gamma                 90.777327
_cell_volume                      2729.7569425

loop_
_atom_site_label
_atom_site_type_symbol
_atom_type_description
_atom_site_fract_x
_atom_site_fract_y
_atom_site_fract_z
_atom_type_partial_charge
C1    C     C_R   0.499743 0.329929 0.499567 0.760240
C2    C     C_R   0.499789 0.670162 0.500240 0.787380
C3    C     C_R   0.498877 0.233530 0.498688 -0.026038
C4    C     C_R   0.498869 0.766732 0.500021 -0.029921
C5    C     C_R   0.528445 0.186981 0.418434 -0.219910
C6    C     C_R   0.529899 0.814907 0.584850 -0.179126
C7    C     C_R   0.528615 0.095142 0.418349 -0.168326
C8    C     C_R   0.530479 0.906656 0.583956 -0.177186
C9    C     C_R   0.497911 0.048736 0.498009 0.108329
C10   C     C_R   0.498391 0.951659 0.498443 0.106083
C11   C     C_R   0.584964 0.536915 0.117055 0.330612
C12   C     C_R   0.474590 0.419618 0.887910 0.323918
C13   C     C_R   0.578559 0.540771 0.218012 -0.098047
C14   C     C_R   0.469811 0.425205 0.785932 -0.124242
C15   C     C_R   0.425431 0.454381 0.201282 0.620763
C16   C     C_R   0.535646 0.571292 0.797474 0.632232
C17   C     C_R   0.424556 0.455332 0.099455 -0.377759
C18   C     C_R   0.532791 0.570933 0.898575 -0.352560
C19   C     C_R   0.504934 0.495642 0.055421 0.001321
C20   C     C_R   0.504235 0.494792 0.946294 -0.000268
C21   C     C_R   0.300486 0.498616 0.482664 0.834017
C22   C     C_R   0.699146 0.498059 0.517488 0.812102
C23   C     C_R   0.811205 0.495433 0.526827 -0.141806
C24   C     C_R   0.187923 0.492856 0.474611 -0.151380
C25   C     C_R   0.027384 0.463423 0.375796 -0.201452
C26   C     C_R   0.971326 0.523082 0.625284 -0.186655
C27   C     C_R   0.133787 0.471966 0.384723 -0.276025
C28   C     C_R   0.865197 0.519267 0.615521 -0.297370
C29   C     C_R   0.133999 0.504963 0.557181 0.392097
C30   C     C_R   0.864925 0.471594 0.447190 0.385574
C31   C     C_R   0.026186 0.502226 0.546528 0.011794
C32   C     C_R   0.972595 0.478610 0.456033 0.020923
C33   C     C_R   0.467138 0.095603 0.577684 -0.168176
C34   C     C_R   0.466600 0.903374 0.413622 -0.168951
C35   C     C_R   0.468321 0.187344 0.578309 -0.189014
C36   C     C_R   0.467497 0.811554 0.414262 -0.177306
Cu1   Cu    Cu3+1 0.500000 0.499990 0.596430 0.973594
Cu2   Cu    Cu3+1 0.500000 0.500010 0.403570 0.976923
H1    H     H_    0.360584 0.424965 0.055194 0.208635
H2    H     H_    0.553159 0.630881 0.939393 0.212615
H3    H     H_    0.825463 0.536362 0.677556 0.160396
H4    H     H_    0.173777 0.460972 0.321139 0.220216
H5    H     H_    0.988224 0.446178 0.305471 0.181392
H6    H     H_    0.009870 0.543639 0.694744 0.187811
H7    H     H_    0.441181 0.061373 0.639160 0.128238
H8    H     H_    0.439868 0.936494 0.347131 0.126543
H9    H     H_    0.444111 0.222034 0.640570 0.137804
H10   H     H_    0.442404 0.775679 0.347970 0.154428
H11   H     H_    0.552726 0.221506 0.356407 0.143382
H12   H     H_    0.555238 0.782018 0.651497 0.197920
H13   H     H_    0.554153 0.060551 0.356641 0.127501
H14   H     H_    0.557210 0.942333 0.649930 0.128579
H15   H     H_    0.638361 0.574982 0.264079 0.185454
H16   H     H_    0.442789 0.368161 0.743020 0.161198
N1    N     N_R   0.500000 0.500020 0.258690 -0.237639
N2    N     N_R   0.500000 0.499980 0.741310 -0.228968
O1    O     O_R   0.500010 0.371450 0.581430 -0.606127
O2    O     O_R   0.499990 0.628550 0.418570 -0.593580
O3    O     O_R   0.500010 0.371460 0.418560 -0.583189
O4    O     O_R   0.499990 0.628540 0.581440 -0.527150
O5    O     O_R   0.349000 0.499980 0.568210 -0.546294
O6    O     O_R   0.651000 0.500020 0.431790 -0.545443
O7    O     O_R   0.349000 0.499990 0.405340 -0.540079
O8    O     O_R   0.651000 0.500010 0.594660 -0.599721
O9    O     O_3   0.812488 0.445515 0.359507 -0.593441
C37   C     C_3   0.794652 0.353302 0.361281 0.088032
H17   H     H_    0.748847 0.334814 0.421793 0.136405
H18   H     H_    0.868727 0.317210 0.369021 0.133150
C38   C     C_3   0.734225 0.323987 0.266634 -0.830704
H19   H     H_    0.778703 0.339495 0.204658 0.230648
H20   H     H_    0.719536 0.251612 0.267605 0.197036
H21   H     H_    0.659304 0.358206 0.257093 0.251315
O10   O     O_3   0.185776 0.526742 0.646671 -0.563826
C39   C     C_3   0.193257 0.450677 0.705616 0.070867
H22   H     H_    0.255732 0.407687 0.684580 0.158963
H23   H     H_    0.120799 0.410409 0.700570 0.117592
C40   C     C_3   0.218009 0.479361 0.810911 -0.763664
H24   H     H_    0.152476 0.516308 0.835696 0.227312
H25   H     H_    0.232147 0.420466 0.857247 0.212127
H26   H     H_    0.287513 0.522827 0.818715 0.260992
O11   O     O_3   0.346933 0.412095 0.243238 -0.570421
C41   C     C_3   0.350093 0.319472 0.228496 0.069361
H27   H     H_    0.354671 0.287503 0.300456 0.178392
H28   H     H_    0.417677 0.296089 0.192619 0.112534
C42   C     C_3   0.251058 0.287316 0.170796 -0.846239
H29   H     H_    0.251392 0.214179 0.164037 0.211373
H30   H     H_    0.183626 0.307024 0.208380 0.250776
H31   H     H_    0.244000 0.315821 0.097107 0.247869
O12   O     O_3   0.572000 0.646000 0.755597 -0.577797
C43   C     C_3   0.680958 0.648502 0.767767 0.070406
H32   H     H_    0.708326 0.659242 0.695507 0.170345
H33   H     H_    0.717349 0.586600 0.796971 0.110396
C44   C     C_3   0.719165 0.726062 0.832998 -0.860441
H34   H     H_    0.804229 0.731749 0.835676 0.214070
H35   H     H_    0.684900 0.788450 0.804334 0.251060
H36   H     H_    0.698349 0.715952 0.907697 0.259776
O13   O     O_3   0.668496 0.575323 0.079222 -0.620570
C45   C     C_3   0.750717 0.515480 0.088570 0.045751
H37   H     H_    0.726987 0.450246 0.054725 0.125825
H38   H     H_    0.778027 0.506242 0.166454 0.190431
C46   C     C_3   0.839547 0.552890 0.037181 -0.319446
H39   H     H_    0.813310 0.562457 0.959345 0.216423
H40   H     H_    0.864029 0.618148 0.069672 0.229738
C47   C     C_3   0.931246 0.491057 0.045547 -0.930828
H41   H     H_    0.960223 0.481971 0.122817 0.259783
H42   H     H_    0.994154 0.519880 0.007118 0.257703
H43   H     H_    0.908791 0.425727 0.012237 0.251524
O14   O     O_3   0.446128 0.341064 0.928241 -0.624075
C48   C     C_3   0.535868 0.293531 0.957924 0.053610
H44   H     H_    0.582753 0.329177 0.017998 0.140944
H45   H     H_    0.583370 0.283484 0.896341 0.133777
C49   C     C_3   0.504718 0.203039 0.994106 -0.318128
H46   H     H_    0.452591 0.211514 0.051881 0.220100
H47   H     H_    0.462492 0.164980 0.933335 0.218341
C50   C     C_3   0.598490 0.151095 0.034404 -0.947729
H48   H     H_    0.651137 0.140664 0.977396 0.259067
H49   H     H_    0.573277 0.085668 0.059629 0.258683
H50   H     H_    0.640435 0.187160 0.096740 0.254509

loop_
_geom_bond_atom_site_label_1
_geom_bond_atom_site_label_2
_ccdc_geom_bond_type
C14   N2    A    
C4    C36   A    
C44   H34   S    
C33   H7    S    
O10   C39   S    
C37   H18   S    
C19   C20   S    
C24   C27   A    
C35   H9    S    
C25   H5    S    
C47   H42   S    
O13   C45   S    
C26   H6    S    
C15   O11   S    
C40   H24   S    
C11   C19   A    
C46   H39   S    
C39   H23   S    
C1    O3    A    
C2    O4    A    
C42   H31   S    
C37   C38   S    
C29   O10   S    
C50   H48   S    
C45   H37   S    
C28   H3    S    
O14   C48   S    
C18   C20   A    
C15   C17   A    
C17   H1    S    
C38   H20   S    
C18   H2    S    
C24   C29   A    
C47   H41   S    
C33   C35   A    
Cu2   O2    S    
Cu1   N2    S    
Cu2   N1    S    
C50   H49   S    
C39   C40   S    
C34   H8    S    
C9    C10   S    
C8    H14   S    
C21   O5    A    
C25   C32   A    
C42   H30   S    
C37   H17   S    
C26   C31   A    
C46   H40   S    
C9    C33   A    
C5    H11   S    
C49   H47   S    
C49   H46   S    
O11   C41   S    
C13   H15   S    
C40   H25   S    
C39   H22   S    
C30   O9    S    
C23   C30   A    
C4    C6    A    
C48   C49   S    
C12   O14   S    
C6    C8    A    
C42   H29   S    
C1    C3    S    
C15   N1    A    
C38   H21   S    
C2    C4    S    
C16   N2    A    
Cu1   Cu2   S    
C1    O1    A    
C22   O6    A    
C43   H33   S    
C31   C32   A    
C3    C35   A    
C50   H50   S    
C12   C20   A    
C10   C34   A    
C23   C28   A    
C6    H12   S    
C16   C18   A    
C14   H16   S    
C12   C14   A    
C41   H27   S    
C44   H36   S    
C41   H28   S    
C41   C42   S    
Cu1   O8    S    
C43   C44   S    
C5    C7    A    
Cu2   O7    S    
C40   H26   S    
C7    C9    A    
C26   C28   A    
C3    C5    A    
Cu1   O5    S    
C2    O2    A    
C25   C27   A    
C45   C46   S    
C45   H38   S    
C11   O13   S    
C48   H45   S    
C7    H13   S    
C29   C31   A    
C48   H44   S    
C30   C32   A    
C11   C13   A    
C27   H4    S    
C43   H32   S    
C44   H35   S    
C17   C19   A    
C36   H10   S    
C34   C36   A    
C47   H43   S    
C38   H19   S    
C21   O7    A    
Cu1   O4    S    
C22   O8    A    
Cu2   O3    S    
C16   O12   S    
C8    C10   A    
O9    C37   S    
C21   C24   S    
C22   C23   S    
C46   C47   S    
Cu2   O6    S    
O12   C43   S    
C49   C50   S    
Cu1   O1    S    
C13   N1    A    
