data_mof_unit_6101.cif
_audit_creation_date              2013-03-05T15:42:08-0500
_audit_creation_method            fapswitch 2.2
_symmetry_space_group_name_H-M    P1
_symmetry_Int_Tables_number       1
_space_group_crystal_system       triclinic
_cell_length_a                    21.952035
_cell_length_b                    7.207685
_cell_length_c                    14.927399
_cell_angle_alpha                 89.998523
_cell_angle_beta                  106.908423
_cell_angle_gamma                 90.000117
_cell_volume                      2259.76176228

loop_
_atom_site_label
_atom_site_type_symbol
_atom_site_description
_atom_site_fract_x
_atom_site_fract_y
_atom_site_fract_z
_atom_type_partial_charge
O1    O     O_R   0.584770 0.505770 0.002090 -0.559912
O2    O     O_R   0.415230 0.005770 0.997910 -0.559913
O3    O     O_R   0.467060 0.173340 0.861950 -0.547707
O4    O     O_R   0.532940 0.673340 0.138050 -0.547708
C1    C     C_R   0.455400 0.344348 0.825998 0.830277
C2    C     C_R   0.544600 0.844344 0.174002 0.830278
O5    O     O_R   0.587510 0.175890 0.993210 -0.558636
O6    O     O_R   0.412490 0.675890 0.006790 -0.558635
O7    O     O_R   0.536540 0.008150 0.130100 -0.552264
O8    O     O_R   0.463460 0.508150 0.869900 -0.552263
C3    C     C_R   0.612947 0.344930 0.997345 0.828505
C4    C     C_R   0.387053 0.844930 0.002655 0.828507
O9    O     O_3   0.483140 0.340040 0.044760 -0.276314
O10   O     O_3   0.516860 0.840040 0.955240 -0.276315
V1    V     V_3+5 0.503130 0.064190 0.991700 1.180016
V2    V     V_3+5 0.496870 0.564190 0.008300 1.180021
C5    C     C_2   0.214153 0.727683 0.004237 -0.084719
C6    C     C_2   0.785847 0.227683 0.995763 -0.084719
C7    C     C_2   0.180384 0.886727 0.996508 -0.205528
C8    C     C_2   0.819616 0.386726 0.003491 -0.205528
H1    H     H_    0.191116 0.596965 0.010448 0.105983
H2    H     H_    0.808884 0.096966 0.989553 0.105983
H3    H     H_    0.201904 0.018889 0.989277 0.073011
H4    H     H_    0.798096 0.518888 0.010720 0.073012
C9    C     C_2   0.282047 0.714632 0.004039 -0.075680
C10   C     C_2   0.717953 0.214633 0.995961 -0.075679
C11   C     C_2   0.319988 0.861441 0.003768 -0.186039
C12   C     C_2   0.680012 0.361442 0.996233 -0.186039
H5    H     H_    0.301295 0.575653 0.004772 0.108039
H6    H     H_    0.698704 0.075654 0.995226 0.108040
H7    H     H_    0.302023 0.001266 0.004048 0.078439
H8    H     H_    0.697978 0.501267 0.995954 0.078437
C13   C     C_R   0.925945 0.886363 0.724456 -0.067382
C14   C     C_R   0.074056 0.386348 0.275542 -0.067377
C15   C     C_R   0.572234 0.852761 0.275477 -0.163482
C16   C     C_R   0.427767 0.352778 0.724523 -0.163483
C17   C     C_R   0.935715 0.881584 0.567835 -0.076699
C18   C     C_R   0.064286 0.381583 0.432161 -0.076703
C19   C     C_R   0.963928 0.887697 0.664152 -0.104219
C20   C     C_R   0.036073 0.387676 0.335844 -0.104217
C21   C     C_R   0.859617 0.879480 0.688685 -0.101965
C22   C     C_R   0.140384 0.379477 0.311312 -0.101971
C23   C     C_R   0.829440 0.873917 0.590912 0.064233
C24   C     C_R   0.170561 0.373923 0.409085 0.064234
C25   C     C_R   0.869146 0.874976 0.530891 0.066350
C26   C     C_R   0.130855 0.374991 0.469106 0.066352
C27   C     C_R   0.761617 0.868563 0.550859 -0.018603
C28   C     C_R   0.238384 0.368570 0.449138 -0.018604
C29   C     C_R   0.734886 0.863187 0.451509 0.061631
C30   C     C_R   0.265115 0.363217 0.548489 0.061631
C31   C     C_R   0.776877 0.865663 0.395256 -0.074475
C32   C     C_R   0.223124 0.365719 0.604742 -0.074475
C33   C     C_R   0.842363 0.870799 0.434324 -0.111065
C34   C     C_R   0.157638 0.370843 0.565673 -0.111066
C35   C     C_R   0.719865 0.867679 0.607015 -0.149138
C36   C     C_R   0.280136 0.367663 0.392983 -0.149133
C37   C     C_R   0.653909 0.864495 0.568886 0.378035
C38   C     C_R   0.346091 0.364476 0.431113 0.378038
C39   C     C_R   0.626596 0.864974 0.470874 -0.125751
C40   C     C_R   0.373405 0.364970 0.529126 -0.125753
C41   C     C_R   0.667135 0.858541 0.411472 -0.051356
C42   C     C_R   0.332866 0.358564 0.588527 -0.051356
C43   C     C_R   0.559657 0.875099 0.430265 0.725772
C44   C     C_R   0.440344 0.375079 0.569733 0.725780
C45   C     C_R   0.533198 0.868351 0.333556 -0.074405
C46   C     C_R   0.466803 0.368343 0.666443 -0.074398
C47   C     C_R   0.638163 0.848201 0.313523 -0.105358
C48   C     C_R   0.361837 0.348235 0.686477 -0.105358
H9    H     H_    0.872431 0.872647 0.388120 0.069162
H10   H     H_    0.127570 0.372707 0.611876 0.069163
H11   H     H_    0.665061 0.835331 0.263999 0.063819
H12   H     H_    0.334939 0.335378 0.736001 0.063818
H13   H     H_    0.481964 0.875736 0.303781 0.136559
H14   H     H_    0.518037 0.375711 0.696217 0.136556
H15   H     H_    0.966011 0.882678 0.521996 0.066756
H16   H     H_    0.033990 0.382682 0.478000 0.066757
H17   H     H_    0.015325 0.893442 0.691696 0.054402
H18   H     H_    0.984676 0.393413 0.308299 0.054402
H19   H     H_    0.833494 0.880053 0.739551 0.054324
H20   H     H_    0.166508 0.380060 0.260447 0.054324
H21   H     H_    0.761085 0.866065 0.320007 0.064714
H22   H     H_    0.238916 0.366150 0.679990 0.064715
H23   H     H_    0.736827 0.865963 0.682221 0.108471
H24   H     H_    0.263175 0.365923 0.317777 0.108470
O11   O     O_R   0.036450 0.233070 0.130130 -0.557162
O12   O     O_R   0.963550 0.733070 0.869870 -0.557157
O13   O     O_R   0.912470 0.560570 0.006790 -0.561481
O14   O     O_R   0.087530 0.060570 0.993210 -0.561481
C49   C     C_R   0.886966 0.391924 0.002494 0.824602
C50   C     C_R   0.113034 0.891924 0.997506 0.824601
O15   O     O_R   0.032920 0.562940 0.138050 -0.559118
O16   O     O_R   0.967080 0.062940 0.861950 -0.559119
O17   O     O_R   0.084790 0.730500 0.002090 -0.558138
O18   O     O_R   0.915210 0.230500 0.997910 -0.558135
C51   C     C_R   0.045008 0.394430 0.174388 0.809444
C52   C     C_R   0.954993 0.894434 0.825611 0.809439
O19   O     O_3   0.016820 0.396170 0.955260 -0.285713
O20   O     O_3   0.983180 0.896170 0.044740 -0.285711
V3    V     V_3+5 0.996880 0.672090 0.008300 1.135959
V4    V     V_3+5 0.003120 0.172090 0.991700 1.135961
F1    F     F_    0.519099 0.898404 0.482779 -0.600569
F2    F     F_    0.480902 0.398350 0.517217 -0.600584
N1    N     N_R   0.615682 0.852692 0.632020 0.135512
O21   O     O_R   0.581238 0.705496 0.631442 -0.279118
O22   O     O_R   0.625454 0.967888 0.701898 -0.352030
N2    N     N_R   0.384319 0.352646 0.367980 0.135519
O23   O     O_R   0.418752 0.205430 0.368562 -0.279112
O24   O     O_R   0.374550 0.467834 0.298096 -0.352034

loop_
_geom_bond_atom_site_label_1
_geom_bond_atom_site_label_2
_geom_bond_distance
_ccdc_geom_bond_type
C43   C45   1.391408 A    
C22   H20   1.076417 S    
C14   C22   1.398351 A    
C43   F1    1.356992 S    
O2    C4    1.325529 A    
C2    O7    1.336881 A    
C27   C29   1.427946 A    
C18   H16   1.084101 S    
C44   F2    1.356973 S    
C13   C19   1.393651 A    
C14   C20   1.393637 A    
C19   H17   1.083469 S    
C16   C46   1.389497 A    
C37   C39   1.410607 A    
N2    O23   1.301344 A    
C15   C45   1.389500 A    
C38   C40   1.410607 A    
C46   H14   1.083765 S    
C1    C16   1.460023 S    
O16   C52   1.325162 A    
C45   H13   1.083764 S    
C2    C15   1.460021 S    
C40   C42   1.428049 A    
C49   O18   1.329468 A    
C8    H4    1.082540 S    
C24   C26   1.420142 A    
C29   C31   1.416116 A    
C6    C10   1.494243 S    
C30   C32   1.416110 A    
C15   C47   1.392899 A    
O17   V3    2.003504 S    
C47   H11   1.075946 S    
C48   H12   1.075948 S    
C28   C30   1.427945 A    
C17   H15   1.084115 S    
C33   H9    1.084603 S    
O6    V2    2.013822 S    
C21   C23   1.417101 A    
C22   C24   1.417098 A    
C32   C34   1.385766 A    
C36   H24   1.075142 S    
O13   V3    2.013905 S    
C9    H5    1.086003 S    
C37   N1    1.435148 S    
C39   C41   1.428055 A    
C29   C41   1.432915 A    
C4    C11   1.481921 S    
C11   H7    1.082682 S    
C12   H8    1.082682 S    
C14   C51   1.459425 S    
O4    C2    1.338960 A    
O15   C51   1.325161 A    
C5    H1    1.085946 S    
C38   N2    1.435161 S    
C44   C46   1.391415 A    
O4    V2    2.026130 S    
C7    H3    1.082542 S    
O2    V1    2.003307 S    
C35   H23   1.075139 S    
C41   C47   1.416666 A    
O5    C3    1.334178 A    
C34   H10   1.084592 S    
O18   V4    2.003508 S    
O6    C4    1.334174 A    
C26   C34   1.389772 A    
N1    O22   1.301284 A    
O1    V2    2.003307 S    
C32   H22   1.074901 S    
O12   V3    2.029537 S    
C23   C25   1.420147 A    
O14   V4    2.013905 S    
O12   C52   1.323729 A    
O14   C50   1.331996 A    
C10   H6    1.086005 S    
O13   C49   1.331998 A    
C30   C42   1.432913 A    
C20   H18   1.083472 S    
C17   C25   1.404666 A    
C13   C52   1.459441 S    
O19   V4    1.757836 S    
O3    V1    2.026091 S    
O16   V4    2.026054 S    
C50   O17   1.329466 A    
C27   C35   1.410556 A    
C28   C36   1.410552 A    
C31   H21   1.074905 S    
C6    H2    1.085944 S    
C10   C12   1.347351 D    
O3    C1    1.338964 A    
C21   H19   1.076424 S    
C16   C48   1.392900 A    
C9    C11   1.347351 D    
C8    C49   1.483344 S    
C39   C43   1.419122 A    
C42   C48   1.416667 A    
C40   C44   1.419126 A    
C13   C21   1.398347 A    
C35   C37   1.393355 A    
O7    V1    2.021830 S    
C5    C9    1.494243 S    
C1    O8    1.336883 A    
C17   C19   1.390938 A    
C7    C50   1.483344 S    
O8    V2    2.021850 S    
C18   C20   1.390936 A    
O11   C51   1.323723 A    
N2    O24   1.301276 A    
C3    C12   1.481920 S    
O5    V1    2.013815 S    
C5    C7    1.351733 D    
C36   C38   1.393350 A    
C6    C8    1.351732 D    
C18   C26   1.404669 A    
C25   C33   1.389775 A    
O20   V3    1.757863 S    
O9    V2    1.758578 S    
N1    O21   1.301369 A    
O11   V4    2.029561 S    
O10   V1    1.758605 S    
O1    C3    1.325532 A    
C31   C33   1.385764 A    
O15   V3    2.026018 S    
C23   C27   1.434519 A    
C24   C28   1.434517 A    
