data_mof_unit_42646.cif
_audit_creation_date              2012-10-26T20:31:42-0400
_audit_creation_method            fapswitch 2.2
_symmetry_space_group_name_H-M    P1
_symmetry_Int_Tables_number       1
_space_group_crystal_system       triclinic
_cell_length_a                    15.899039
_cell_length_b                    10.849525
_cell_length_c                    9.543821
_cell_angle_alpha                 89.525938
_cell_angle_beta                  90.236728
_cell_angle_gamma                 89.7134
_cell_volume                      1646.18941175

loop_
_atom_site_label
_atom_site_type_symbol
_atom_type_description
_atom_site_fract_x
_atom_site_fract_y
_atom_site_fract_z
_atom_type_partial_charge
C1    C     C_R   0.498723 0.262883 0.500472 0.551042
C2    C     C_R   0.492354 0.130860 0.500063 -0.013205
C3    C     C_R   0.462757 0.069536 0.380424 -0.147399
C4    C     C_R   0.340302 0.500385 0.499766 0.538763
C5    C     C_R   0.458691 0.939662 0.376644 -0.009182
C6    C     C_R   0.488302 0.870314 0.495795 0.017442
C7    C     C_R   0.512058 0.936025 0.613569 -0.010099
C8    C     C_3   0.549414 0.921761 0.756633 -0.239975
C9    C     C_3   0.551300 0.064097 0.759606 -0.111175
C10   C     C_R   0.563978 0.446439 0.074684 0.146338
C11   C     C_R   0.433685 0.547560 0.073434 -0.021209
C12   C     C_3   0.951844 0.378650 0.590557 0.219334
C13   C     C_R   0.433745 0.547787 0.924744 -0.013284
C14   C     C_R   0.564012 0.446577 0.927141 0.135105
C15   C     C_3   0.654349 0.482637 0.922219 -0.270218
C16   C     C_R   0.495842 0.737319 0.498827 0.549378
C17   C     C_3   0.654532 0.481531 0.080651 -0.243750
C18   C     C_R   0.659710 0.499950 0.500228 0.548272
C19   C     C_3   0.051559 0.380377 0.584500 -0.026333
C20   C     C_3   0.048312 0.495137 0.354257 -0.234086
C21   C     C_3   0.951102 0.503348 0.354992 0.063370
C22   C     C_1   0.749159 0.500458 0.501415 0.000101
C23   C     C_3   0.916904 0.500166 0.510676 0.109187
C24   C     C_3   0.083389 0.498995 0.506531 -0.014358
C25   C     C_3   0.918769 0.256442 0.521990 -0.223193
C26   C     C_3   0.941186 0.136214 0.600409 -0.418353
C27   C     C_3   0.100599 0.336714 0.719095 -0.230652
C28   C     C_3   0.119532 0.432364 0.831294 -0.390528
C29   C     C_3   0.419518 0.882528 0.247152 -0.260594
C30   C     C_3   0.334060 0.825687 0.280125 -0.422281
C31   C     C_3   0.639627 0.122074 0.769594 -0.266767
C32   C     C_3   0.699317 0.092627 0.648631 -0.406089
C33   C     C_3   0.924486 0.656639 0.734368 -0.179930
C34   C     C_3   0.951586 0.624466 0.580983 0.202776
C35   C     C_3   0.829839 0.665840 0.762551 -0.378205
C36   C     C_3   0.050128 0.619048 0.575734 -0.185426
C37   C     C_1   0.824590 0.500987 0.505169 0.056281
C38   C     C_1   0.175481 0.500747 0.501141 -0.075367
C39   C     C_1   0.250866 0.500969 0.499370 -0.043659
C40   C     C_R   0.513939 0.059998 0.615758 0.030018
Cl1   Cl    Cl    0.911964 0.373188 0.767565 -0.693131
Cl2   Cl    Cl    0.917985 0.759591 0.481210 -0.723325
Cl3   Cl    Cl    0.903231 0.400346 0.231853 -0.661818
Cu1   Cu    Cu3+1 0.500000 0.499980 0.640670 0.923898
Cu2   Cu    Cu3+1 0.500000 0.500020 0.359330 0.931824
H1    H     H_    0.441747 0.122985 0.290316 0.133628
H2    H     H_    0.694461 0.406964 0.126547 0.182032
H3    H     H_    0.664601 0.574425 0.126010 0.165329
H4    H     H_    0.074044 0.573382 0.291737 0.129026
H5    H     H_    0.069224 0.409309 0.301380 0.163631
H6    H     H_    0.934197 0.592148 0.304340 0.226277
H7    H     H_    0.078069 0.630236 0.681151 0.095002
H8    H     H_    0.074791 0.699143 0.515231 0.164754
H9    H     H_    0.010204 0.121364 0.604021 0.138351
H10   H     H_    0.915727 0.134236 0.708308 0.210138
H11   H     H_    0.913287 0.057351 0.543467 0.186908
H12   H     H_    0.504047 0.881060 0.832086 0.122343
H13   H     H_    0.849329 0.260327 0.510037 0.175472
H14   H     H_    0.946064 0.244450 0.416837 0.194905
H15   H     H_    0.165824 0.500793 0.793158 0.134040
H16   H     H_    0.061802 0.478381 0.867854 0.199775
H17   H     H_    0.148439 0.385069 0.923359 0.137949
H18   H     H_    0.066817 0.258980 0.769459 0.192904
H19   H     H_    0.162278 0.297558 0.686554 0.121734
H20   H     H_    0.306136 0.787649 0.182940 0.120885
H21   H     H_    0.340077 0.750240 0.358533 0.169110
H22   H     H_    0.290763 0.897174 0.321607 0.150059
H23   H     H_    0.611908 0.875612 0.755248 0.141311
H24   H     H_    0.408865 0.953675 0.164337 0.121354
H25   H     H_    0.462289 0.814596 0.198273 0.174109
H26   H     H_    0.709970 0.991990 0.638954 0.161067
H27   H     H_    0.674459 0.130238 0.548114 0.159805
H28   H     H_    0.760753 0.136757 0.669448 0.159197
H29   H     H_    0.631961 0.223661 0.774264 0.169971
H30   H     H_    0.669377 0.091723 0.869699 0.153908
H31   H     H_    0.796992 0.722683 0.681960 0.185843
H32   H     H_    0.801365 0.573210 0.767799 0.192248
H33   H     H_    0.819653 0.709611 0.865925 0.134420
H34   H     H_    0.506554 0.103325 0.836899 0.129089
H35   H     H_    0.953493 0.595488 0.813468 0.181519
H36   H     H_    0.951227 0.748515 0.759598 0.156134
H37   H     H_    0.380845 0.587241 0.128067 0.115087
H38   H     H_    0.069884 0.305508 0.511276 0.100670
H39   H     H_    0.381039 0.588132 0.868706 0.115738
H40   H     H_    0.694960 0.409676 0.876723 0.161363
H41   H     H_    0.663128 0.576440 0.877000 0.145353
N1    N     N_R   0.500530 0.500930 0.147930 -0.231254
N2    N     N_R   0.500530 0.500890 0.852020 -0.228678
O1    O     O_R   0.500000 0.319640 0.618810 -0.496778
O2    O     O_R   0.500010 0.319680 0.381230 -0.500801
O3    O     O_R   0.379430 0.499990 0.618840 -0.504437
O4    O     O_R   0.379440 0.500030 0.381260 -0.509394
O5    O     O_R   0.499990 0.680320 0.618770 -0.502878
O6    O     O_R   0.500000 0.680360 0.381190 -0.506879
O7    O     O_R   0.620560 0.499970 0.618740 -0.509720
O8    O     O_R   0.620570 0.500010 0.381160 -0.491154

loop_
_geom_bond_atom_site_label_1
_geom_bond_atom_site_label_2
_ccdc_geom_bond_type
C1    O2    A    
C18   O8    A    
C34   Cl2   S    
C17   H3    S    
C26   H10   S    
C7    C8    S    
C32   H27   S    
C12   C23   S    
C16   O5    A    
C24   C36   S    
Cu2   N1    S    
C38   C39   T    
C10   C17   S    
C13   N2    A    
C1    C2    S    
C9    H34   S    
Cu2   O4    S    
C20   H5    S    
C36   H8    S    
C21   Cl3   S    
C20   C24   S    
C11   N1    A    
C8    C9    S    
C24   C38   S    
C7    C40   A    
Cu1   O5    S    
C19   C27   S    
C5    C29   S    
C30   H22   S    
C36   H7    S    
C15   H40   S    
C4    O3    A    
C28   H16   S    
C18   O7    A    
C19   H38   S    
Cu2   O6    S    
C26   H9    S    
C32   H26   S    
C29   H24   S    
C28   H15   S    
C11   H37   S    
C35   H31   S    
C10   N1    A    
C10   C14   A    
C32   H28   S    
C31   H29   S    
C25   C26   S    
C23   C37   S    
C22   C37   T    
C35   H32   S    
C9    C40   S    
C29   C30   S    
C8    H12   S    
C20   H4    S    
C31   H30   S    
C31   C32   S    
C13   H39   S    
C4    C39   S    
C23   C34   S    
C33   C34   S    
Cu2   O2    S    
C30   H21   S    
Cu1   O3    S    
C27   H18   S    
C15   H41   S    
C8    H23   S    
C21   C23   S    
C25   H13   S    
C21   H6    S    
Cu1   Cu2   S    
C12   Cl1   S    
C29   H25   S    
C15   C17   S    
C1    O1    A    
C35   H33   S    
C18   C22   S    
C17   H2    S    
C3    C5    A    
C26   H11   S    
C33   H35   S    
C6    C7    A    
C3    H1    S    
C16   O6    A    
C12   C25   S    
C2    C3    A    
C14   N2    A    
Cu1   O7    S    
C11   C13   A    
C5    C6    A    
C12   C19   S    
C33   C35   S    
C19   C24   S    
C34   C36   S    
C30   H20   S    
C27   H19   S    
C9    C31   S    
C6    C16   S    
C2    C40   A    
C20   C21   S    
C27   C28   S    
C14   C15   S    
C25   H14   S    
Cu1   N2    S    
Cu2   O8    S    
C33   H36   S    
Cu1   O1    S    
C4    O4    A    
C28   H17   S    
