data_mof_unit_18958.cif
_audit_creation_date              2012-12-11T15:35:37-0500
_audit_creation_method            fapswitch 2.2
_symmetry_space_group_name_H-M    P1
_symmetry_Int_Tables_number       1
_space_group_crystal_system       triclinic
_cell_length_a                    17.332542
_cell_length_b                    24.273302
_cell_length_c                    14.867998
_cell_angle_alpha                 89.996982
_cell_angle_beta                  124.915493
_cell_angle_gamma                 89.992065
_cell_volume                      5129.27448139

loop_
_atom_site_label
_atom_site_type_symbol
_atom_type_description
_atom_site_fract_x
_atom_site_fract_y
_atom_site_fract_z
_atom_type_partial_charge
C1    C     C_R   0.311177 0.127334 0.907336 -0.135598
C2    C     C_R   0.560267 0.151859 0.909894 -0.126097
C3    C     C_R   0.267492 0.546228 0.245937 -0.134456
C4    C     C_R   0.056272 0.347036 0.910375 -0.141955
C5    C     C_R   0.056066 0.653003 0.910300 -0.141088
C6    C     C_R   0.434127 0.999997 0.633031 0.065882
C7    C     C_R   0.048963 0.499994 0.723365 0.061148
C8    C     C_R   0.824943 0.999970 0.277535 -0.004626
C9    C     C_R   0.324633 0.499883 0.276102 0.008009
C10   C     C_R   0.621751 0.183222 0.001660 0.041994
C11   C     C_R   0.621090 0.816572 0.001571 0.043037
C12   C     C_R   0.114883 0.684665 0.001833 0.050697
C13   C     C_R   0.311271 0.872556 0.907338 -0.135701
C14   C     C_R   0.115375 0.315456 0.001979 0.049912
C15   C     C_3   0.070299 0.939806 0.487340 -0.410753
C16   C     C_3   0.037959 0.021133 0.567702 -0.402456
C17   C     C_3   0.536801 0.475092 0.566220 -0.395731
C18   C     C_3   0.566348 0.560808 0.494290 -0.424405
C19   C     C_3   0.967704 0.940216 0.388868 -0.425250
C20   C     C_3   0.935652 0.019538 0.470716 -0.430728
C21   C     C_3   0.436155 0.471857 0.465547 -0.423128
C22   C     C_3   0.462772 0.560260 0.399862 -0.442453
C23   C     C_3   0.092561 0.035851 0.443645 -0.464161
C24   C     C_R   0.808586 0.623340 0.908897 -0.127583
C25   C     C_3   0.593523 0.467642 0.442861 -0.470110
C26   C     C_3   0.101860 0.998868 0.534388 0.374526
C27   C     C_3   0.600442 0.501276 0.535975 0.380889
C28   C     C_3   0.927045 0.999931 0.365726 0.349241
C29   C     C_3   0.426564 0.499854 0.365237 0.354376
C30   C     C_R   0.407958 0.866244 0.090871 -0.122382
C31   C     C_R   0.407916 0.133696 0.090872 -0.123103
C32   C     C_R   0.902156 0.375625 0.093282 -0.129070
C33   C     C_R   0.902194 0.624450 0.093288 -0.128413
C34   C     C_3   0.987595 0.037661 0.341262 0.102563
C35   C     C_R   0.808523 0.376792 0.908868 -0.127465
C36   C     C_3   0.489948 0.468257 0.336832 0.100672
C37   C     C_R   0.160694 0.810945 0.903594 -0.176588
C38   C     C_R   0.160640 0.188949 0.903740 -0.176831
C39   C     C_R   0.658514 0.315399 0.904984 -0.173166
C40   C     C_R   0.658369 0.684598 0.904925 -0.173262
C41   C     C_R   0.612367 0.268780 0.904627 -0.174350
C42   C     C_R   0.611904 0.731073 0.904548 -0.174071
C43   C     C_R   0.107285 0.768904 0.904256 -0.175518
C44   C     C_R   0.107442 0.231123 0.904433 -0.176175
C45   C     C_R   0.646524 0.240897 0.003262 0.145674
C46   C     C_R   0.649522 0.150978 0.092121 -0.134508
C47   C     C_R   0.645863 0.758888 0.003177 0.145628
C48   C     C_R   0.139201 0.741997 0.003182 0.148414
C49   C     C_R   0.139579 0.258103 0.003355 0.148918
C50   C     C_R   0.714337 0.266247 0.103097 -0.176464
C51   C     C_R   0.713779 0.733554 0.103017 -0.175956
C52   C     C_R   0.210981 0.765510 0.102627 -0.181109
C53   C     C_R   0.211308 0.234555 0.102794 -0.183491
C54   C     C_R   0.264872 0.806842 0.101839 -0.181134
C55   C     C_R   0.264971 0.193084 0.101970 -0.182135
C56   C     C_R   0.760335 0.312854 0.103339 -0.174181
C57   C     C_R   0.648897 0.848813 0.091999 -0.140270
C58   C     C_R   0.760120 0.687102 0.103282 -0.173160
C59   C     C_R   0.245446 0.825633 0.001836 0.155000
C60   C     C_R   0.245394 0.174222 0.001941 0.155371
C61   C     C_R   0.739632 0.333583 0.003814 0.145331
C62   C     C_R   0.739585 0.666480 0.003773 0.145089
C63   C     C_R   0.386225 0.950349 0.464285 -0.237720
C64   C     C_R   0.386094 0.049614 0.464187 -0.240397
C65   C     C_R   0.111922 0.450430 0.632690 -0.227915
C66   C     C_R   0.111894 0.549551 0.632665 -0.227356
C67   C     C_R   0.390711 0.950125 0.374246 0.020098
C68   C     C_R   0.145934 0.651788 0.092138 -0.138534
C69   C     C_R   0.390606 0.049834 0.374163 0.020294
C70   C     C_R   0.122854 0.450046 0.546984 0.016971
C71   C     C_R   0.122823 0.549937 0.546959 0.016348
C72   C     C_R   0.410315 0.999983 0.342219 0.101807
C73   C     C_R   0.112715 0.499992 0.491780 0.089756
C74   C     C_R   0.493146 0.045399 0.264065 -0.127317
C75   C     C_R   0.493143 0.954589 0.264044 -0.127339
C76   C     C_R   0.052211 0.545307 0.305367 -0.144537
C77   C     C_R   0.052223 0.454686 0.305376 -0.144117
C78   C     C_R   0.397425 0.999987 0.517754 0.121018
C79   C     C_R   0.146445 0.348351 0.092280 -0.139553
C80   C     C_R   0.094838 0.499991 0.666004 0.125681
C81   C     C_R   0.245712 0.953538 0.696678 -0.155409
C82   C     C_R   0.244304 0.045563 0.695785 -0.152210
C83   C     C_R   0.743677 0.454503 0.696273 -0.157161
C84   C     C_R   0.745072 0.546565 0.697391 -0.158376
C85   C     C_R   0.317823 0.145374 0.999964 0.044940
C86   C     C_R   0.317915 0.854490 0.999940 0.044798
C87   C     C_R   0.812031 0.636600 0.002213 0.041792
C88   C     C_R   0.811972 0.363536 0.002204 0.041835
C89   C     C_R   0.461641 0.999991 0.290542 0.063398
C90   C     C_R   0.559975 0.848059 0.909862 -0.124871
C91   C     C_R   0.073621 0.499994 0.372795 0.068653
C92   C     C_R   0.197588 0.999169 0.634900 0.020374
C93   C     C_R   0.696012 0.500976 0.636521 0.020542
C94   C     C_R   0.451512 0.045732 0.697021 -0.127134
C95   C     C_R   0.451545 0.954265 0.697050 -0.127810
C96   C     C_R   0.018122 0.545943 0.749979 -0.132992
C97   C     C_R   0.018113 0.454051 0.749967 -0.132959
C98   C     C_R   0.767830 0.953685 0.247519 -0.138788
C99   C     C_R   0.768330 0.046358 0.249361 -0.133492
C100  C     C_R   0.267948 0.453551 0.248179 -0.143384
H1    H     H_    0.252708 0.131407 0.822646 0.089642
H2    H     H_    0.896465 0.990924 0.489666 0.170604
H3    H     H_    0.388947 0.492134 0.483938 0.167724
H4    H     H_    0.423551 0.581456 0.428603 0.164016
H5    H     H_    0.961290 0.922725 0.315709 0.167678
H6    H     H_    0.904125 0.060954 0.460128 0.151647
H7    H     H_    0.415338 0.427728 0.448654 0.160120
H8    H     H_    0.451498 0.584713 0.330045 0.156273
H9    H     H_    0.139424 0.019521 0.421129 0.161049
H10   H     H_    0.118527 0.078066 0.475955 0.134578
H11   H     H_    0.616920 0.424668 0.471754 0.148737
H12   H     H_    0.252839 0.868412 0.822656 0.090271
H13   H     H_    0.643603 0.484647 0.425877 0.145496
H14   H     H_    0.139933 0.827547 0.825294 0.104501
H15   H     H_    0.139770 0.172288 0.825442 0.103944
H16   H     H_    0.636189 0.333057 0.826870 0.104107
H17   H     H_    0.636161 0.667009 0.826810 0.103971
H18   H     H_    0.556061 0.252339 0.826284 0.104219
H19   H     H_    0.555537 0.747501 0.826206 0.104134
H20   H     H_    0.047853 0.754036 0.826326 0.104681
H21   H     H_    0.048010 0.246011 0.826512 0.104509
H22   H     H_    0.738834 0.247759 0.181239 0.104273
H23   H     H_    0.750162 0.628147 0.824426 0.090189
H24   H     H_    0.738143 0.751988 0.181154 0.104302
H25   H     H_    0.233878 0.747994 0.181014 0.103884
H26   H     H_    0.234347 0.252125 0.181182 0.104324
H27   H     H_    0.326816 0.819232 0.179531 0.109659
H28   H     H_    0.326917 0.180674 0.179646 0.109997
H29   H     H_    0.818366 0.328366 0.181577 0.106042
H30   H     H_    0.818237 0.671632 0.181524 0.106242
H31   H     H_    0.381519 0.911376 0.496041 0.111512
H32   H     H_    0.381275 0.088583 0.495864 0.111795
H33   H     H_    0.110845 0.411504 0.667343 0.114282
H34   H     H_    0.750093 0.372094 0.824357 0.090049
H35   H     H_    0.110794 0.588477 0.667296 0.114536
H36   H     H_    0.440431 0.851477 0.173088 0.083455
H37   H     H_    0.440409 0.148479 0.173073 0.083362
H38   H     H_    0.929820 0.370304 0.178692 0.090716
H39   H     H_    0.929852 0.629764 0.178697 0.090875
H40   H     H_    0.499022 0.086869 0.291714 0.101268
H41   H     H_    0.499024 0.913109 0.291660 0.101378
H42   H     H_    0.068342 0.587861 0.328536 0.107553
H43   H     H_    0.068366 0.412128 0.328560 0.107333
H44   H     H_    0.235265 0.911058 0.670430 0.085087
H45   H     H_    0.076466 0.911560 0.550176 0.151824
H46   H     H_    0.229724 0.087877 0.668173 0.081967
H47   H     H_    0.729012 0.412255 0.668181 0.085527
H48   H     H_    0.734530 0.589043 0.671016 0.088298
H49   H     H_    0.434575 0.088148 0.670871 0.082831
H50   H     H_    0.434631 0.911849 0.670935 0.082846
H51   H     H_    0.028334 0.588775 0.740141 0.093578
H52   H     H_    0.028310 0.411218 0.740107 0.093412
H53   H     H_    0.787703 0.910875 0.258354 0.096038
H54   H     H_    0.789566 0.088930 0.266637 0.104573
H55   H     H_    0.289160 0.410918 0.265618 0.098067
H56   H     H_    0.046923 0.996097 0.635938 0.165975
H57   H     H_    0.287515 0.589063 0.257009 0.095459
H58   H     H_    0.686370 0.164444 0.176282 0.081529
H59   H     H_    0.685314 0.835233 0.176059 0.082654
H60   H     H_    0.182245 0.664908 0.176459 0.081679
H61   H     H_    0.183084 0.335309 0.176683 0.082519
H62   H     H_    0.515601 0.834465 0.825614 0.083029
H63   H     H_    0.515891 0.165510 0.825676 0.083345
H64   H     H_    0.010211 0.333082 0.826554 0.083770
H65   H     H_    0.010044 0.666913 0.826432 0.083520
H66   H     H_    0.115467 0.923350 0.462509 0.157421
H67   H     H_    0.539345 0.500093 0.630729 0.164472
H68   H     H_    0.057165 0.064395 0.597465 0.151174
H69   H     H_    0.560979 0.432777 0.599812 0.150230
H70   H     H_    0.608379 0.579465 0.466978 0.155586
H71   H     H_    0.912751 0.020709 0.175470 0.110704
H72   H     H_    0.024457 0.039484 0.231147 0.104036
H73   H     H_    0.966854 0.113403 0.390021 0.094040
H74   H     H_    0.991483 0.117875 0.296721 0.098292
H75   H     H_    0.398006 0.410756 0.222689 0.106943
H76   H     H_    0.507849 0.388432 0.302454 0.097457
H77   H     H_    0.523642 0.533040 0.272895 0.108535
H78   H     H_    0.574369 0.587261 0.560350 0.155327
H79   H     H_    0.520072 0.471504 0.220990 0.099837
H80   H     H_    0.308954 0.885255 0.288833 0.113724
H81   H     H_    0.424820 0.870654 0.373847 0.084021
H82   H     H_    0.424568 0.129314 0.373649 0.084175
H83   H     H_    0.308732 0.114663 0.288641 0.112285
H84   H     H_    0.089132 0.371003 0.496820 0.090188
H85   H     H_    0.205686 0.383390 0.584659 0.106982
H86   H     H_    0.205598 0.616599 0.584602 0.106931
H87   H     H_    0.089033 0.628978 0.496740 0.091061
H88   H     H_    0.929075 0.912414 0.409698 0.153807
N1    N     N_R   0.392140 0.102630 0.941800 -0.038857
N2    N     N_R   0.525160 0.972040 0.206160 -0.043271
N3    N     N_R   0.025160 0.527960 0.206160 -0.040649
N4    N     N_R   0.025160 0.472040 0.206160 -0.040574
N5    N     N_R   0.317870 0.971120 0.792790 -0.031641
N6    N     N_R   0.317870 0.028880 0.792790 -0.031604
N7    N     N_R   0.817870 0.471120 0.792790 -0.032483
N8    N     N_R   0.817870 0.528880 0.792790 -0.032668
N9    N     N_R   0.473480 0.027920 0.793480 -0.039042
N10   N     N_R   0.473480 0.972080 0.793480 -0.039043
N11   N     N_R   0.973480 0.527920 0.793480 -0.039416
N12   N     N_R   0.392140 0.897370 0.941800 -0.038837
N13   N     N_R   0.973480 0.472080 0.793480 -0.039245
N14   N     N_R   0.681610 0.971120 0.207570 -0.038639
N15   N     N_R   0.681610 0.028880 0.207570 -0.040425
N16   N     N_R   0.181610 0.471120 0.207570 -0.035964
N17   N     N_R   0.181610 0.528880 0.207570 -0.036903
N18   N     N_R   0.605410 0.102620 0.056870 -0.037440
N19   N     N_R   0.605410 0.897380 0.056870 -0.036943
N20   N     N_R   0.105410 0.602620 0.056870 -0.036048
N21   N     N_R   0.105410 0.397380 0.056870 -0.035755
N22   N     N_R   0.549680 0.896430 0.944180 -0.038762
N23   N     N_R   0.892140 0.602630 0.941800 -0.039596
N24   N     N_R   0.549680 0.103570 0.944180 -0.038946
N25   N     N_R   0.049680 0.396430 0.944180 -0.037278
N26   N     N_R   0.049680 0.603570 0.944180 -0.037237
N27   N     N_3   0.981622 0.015958 0.245008 -0.216590
N28   N     N_3   0.953624 0.095024 0.318893 -0.232293
N29   N     N_3   0.457193 0.411043 0.303969 -0.227853
N30   N     N_3   0.486022 0.496078 0.246059 -0.221163
N31   N     N_3   0.376256 0.899530 0.317487 -0.228822
N32   N     N_3   0.376065 0.100417 0.317327 -0.228748
N33   N     N_3   0.142702 0.398860 0.516482 -0.231544
N34   N     N_R   0.892140 0.397370 0.941800 -0.039506
N35   N     N_3   0.142631 0.601125 0.516430 -0.231615
N36   N     N_R   0.450890 0.896450 0.057150 -0.038559
N37   N     N_R   0.450890 0.103550 0.057150 -0.038769
N38   N     N_R   0.950890 0.396450 0.057150 -0.040226
N39   N     N_R   0.950890 0.603550 0.057150 -0.040232
N40   N     N_R   0.525160 0.027960 0.206160 -0.043386
Ni1   Ni    Ni4+2 0.433410 0.064680 0.868830 0.208015
Ni2   Ni    Ni4+2 0.433410 0.935320 0.868830 0.207898
Ni3   Ni    Ni4+2 0.933410 0.564680 0.868830 0.209652
Ni4   Ni    Ni4+2 0.933410 0.435320 0.868830 0.210169
Ni5   Ni    Ni4+2 0.565650 0.934380 0.131170 0.206364
Ni6   Ni    Ni4+2 0.565650 0.065620 0.131170 0.205602
Ni7   Ni    Ni4+2 0.065650 0.434380 0.131170 0.206431
Ni8   Ni    Ni4+2 0.065650 0.565620 0.131170 0.206532

loop_
_geom_bond_atom_site_label_1
_geom_bond_atom_site_label_2
_ccdc_geom_bond_type
C44   C49   A    
C58   C62   A    
C96   N11   A    
H86   N35   S    
H82   N32   S    
H83   N32   S    
C31   C85   A    
C22   C29   S    
C69   C72   A    
C69   N32   S    
C82   C92   A    
C11   C47   S    
C50   H22   S    
H77   N30   S    
C12   C48   S    
C83   N7    A    
H85   N33   S    
N21   Ni7   S    
C22   H4    S    
C39   C41   A    
C94   H49   S    
C15   C19   S    
C7    C96   A    
C12   C68   A    
C29   C36   S    
N23   Ni3   S    
C90   H62   S    
N2    N40   A    
N37   Ni6   S    
C74   C89   A    
C3    H57   S    
C13   N12   A    
C8    C99   A    
C33   H39   S    
C13   H12   S    
C34   N27   S    
C22   H8    S    
C42   H19   S    
C6    C78   S    
C14   C49   S    
C20   H2    S    
N34   N38   A    
C26   C92   S    
C65   C70   A    
C83   C93   A    
C99   H54   S    
C44   H21   S    
C70   N33   S    
C40   C62   A    
C79   N21   A    
C67   C72   A    
C23   C26   S    
C51   C58   A    
N11   Ni3   S    
C76   H42   S    
C74   N40   A    
C75   H41   S    
C2    N24   A    
C81   C92   A    
C52   H25   S    
C81   H44   S    
C64   H32   S    
C6    C94   A    
N21   N25   A    
C13   C86   A    
C16   H56   S    
N19   N22   A    
C76   C91   A    
C4    H64   S    
C15   H66   S    
C5    H65   S    
C41   H18   S    
C30   C86   A    
H72   N27   S    
C43   C48   A    
N20   Ni8   S    
N40   Ni6   S    
C56   H29   S    
N5    N6    A    
C9    C29   S    
C43   H20   S    
C42   C47   A    
H71   N27   S    
C40   C42   A    
C40   H17   S    
C57   H59   S    
C98   H53   S    
C28   C34   S    
C65   C80   A    
N23   N39   A    
C55   C60   A    
C16   C26   S    
C51   H24   S    
H75   N29   S    
N6    Ni1   S    
N12   Ni2   S    
N5    Ni2   S    
C79   H61   S    
C39   C61   A    
N26   Ni3   S    
C35   H34   S    
C82   H46   S    
C24   N23   A    
C52   C54   A    
C38   C44   A    
H87   N35   S    
C20   H6    S    
C54   C59   A    
C53   C55   A    
C1    C85   A    
H84   N33   S    
C23   H9    S    
C63   C67   A    
C71   N35   S    
N14   N15   A    
C18   H70   S    
C3    N17   A    
C68   H60   S    
N3    N4    A    
N12   N36   A    
C90   N22   A    
C75   N2    A    
C73   C91   S    
C5    C12   A    
C17   H67   S    
C35   N34   A    
C36   N30   S    
N2    Ni5   S    
C68   N20   A    
C25   H11   S    
C58   H30   S    
C15   C26   S    
C47   C51   A    
C37   H14   S    
C20   C28   S    
N3    Ni8   S    
C64   C69   A    
C96   H51   S    
C74   H40   S    
C24   H23   S    
C50   C56   A    
N38   Ni7   S    
C66   H35   S    
C17   C27   S    
H81   N31   S    
C37   C43   A    
C84   H48   S    
N1    Ni1   S    
N36   Ni5   S    
C77   H43   S    
C32   H38   S    
N39   Ni8   S    
C61   C88   S    
C25   H13   S    
C19   H88   S    
C35   C88   A    
C66   C71   A    
N8    Ni3   S    
C16   C20   S    
C23   C34   S    
H73   N28   S    
C70   C73   A    
N22   Ni2   S    
C17   H69   S    
C95   H50   S    
C21   H7    S    
C14   C79   A    
N16   N17   A    
C8    C98   A    
C3    C9    A    
N24   Ni1   S    
C18   H78   S    
C37   C59   A    
N25   Ni4   S    
N15   Ni6   S    
C38   C60   A    
C19   H5    S    
C100  H55   S    
C32   N38   A    
C39   H16   S    
C9    C100  A    
C63   H31   S    
H76   N29   S    
C31   N37   A    
H79   N30   S    
C19   C28   S    
C25   C27   S    
C8    C28   S    
C83   H47   S    
C27   C93   S    
C32   C88   A    
C31   H37   S    
C2    C10   A    
C1    H1    S    
C10   C46   A    
N19   Ni5   S    
N4    Ni7   S    
C15   H45   S    
C54   H27   S    
C46   N18   A    
C23   H10   S    
C77   C91   A    
N20   N26   A    
C4    N25   A    
C7    C97   A    
C99   N15   A    
C18   C22   S    
C77   N4    A    
C64   C78   A    
C98   N14   A    
N17   Ni8   S    
N1    N37   A    
C18   C27   S    
C16   H68   S    
C97   N13   A    
C33   N39   A    
C2    H63   S    
C30   N36   A    
C60   C85   S    
N10   Ni2   S    
N9    Ni1   S    
N16   Ni7   S    
C66   C80   A    
C62   C87   S    
C57   N19   A    
C30   H36   S    
N18   Ni6   S    
C94   N9    A    
C67   N31   S    
C33   C87   A    
C59   C86   S    
C76   N3    A    
C34   N28   S    
N14   Ni5   S    
C38   H15   S    
C100  N16   A    
C11   C90   A    
C36   N29   S    
C21   C29   S    
C45   C50   A    
C84   N8    A    
C95   N10   A    
C49   C53   A    
C5    N26   A    
C81   N5    A    
C97   H52   S    
N7    Ni4   S    
H74   N28   S    
C84   C93   A    
C4    C14   A    
N9    N10   A    
C24   C87   A    
C17   C21   S    
C82   N6    A    
C53   H26   S    
C75   C89   A    
C25   C36   S    
N34   Ni4   S    
N7    N8    A    
C21   H3    S    
N18   N24   A    
C48   C52   A    
C55   H28   S    
N13   Ni4   S    
C6    C95   A    
C10   C45   S    
C71   C73   A    
N11   N13   A    
C41   C45   A    
C56   C61   A    
H80   N31   S    
C72   C89   S    
C11   C57   A    
C65   H33   S    
C1    N1    A    
C7    C80   S    
C63   C78   A    
C46   H58   S    
