data_mof_unit_45114.cif
_audit_creation_date              2012-12-10T21:26:00-0500
_audit_creation_method            fapswitch 2.2
_symmetry_space_group_name_H-M    P1
_symmetry_Int_Tables_number       1
_space_group_crystal_system       triclinic
_cell_length_a                    8.579165
_cell_length_b                    16.276943
_cell_length_c                    16.519198
_cell_angle_alpha                 86.640049
_cell_angle_beta                  96.692504
_cell_angle_gamma                 100.761449
_cell_volume                      2249.16647281

loop_
_atom_site_label
_atom_site_type_symbol
_atom_type_description
_atom_site_fract_x
_atom_site_fract_y
_atom_site_fract_z
_atom_type_partial_charge
C1    C     C_R   0.482793 0.487267 0.652564 0.999652
C2    C     C_R   0.505863 0.512079 0.345848 0.985932
C3    C     C_R   0.407478 0.758802 0.462865 0.474892
C4    C     C_R   0.592781 0.241107 0.536889 0.481049
C5    C     C_R   0.412503 0.845362 0.468855 -0.249110
C6    C     C_R   0.586302 0.154338 0.531558 -0.242061
C7    C     C_R   0.531606 0.894080 0.519061 0.190991
C8    C     C_R   0.465711 0.105530 0.482249 0.209979
C9    C     C_R   0.643132 0.853903 0.564494 -0.270834
C10   C     C_R   0.354310 0.145833 0.436898 -0.300601
C11   C     C_R   0.638425 0.767191 0.560118 0.488890
C12   C     C_R   0.360690 0.232775 0.440370 0.438062
C13   C     C_R   0.800752 0.521692 0.501860 0.978608
C14   C     C_R   0.199180 0.478399 0.497602 0.972552
C15   C     C_2   0.967597 0.532431 0.507195 -0.293358
C16   C     C_2   0.032314 0.467973 0.491302 -0.303046
C17   C     C_R   0.419267 0.475233 0.733115 -0.313272
C18   C     C_R   0.499122 0.519999 0.255809 -0.320454
C19   C     C_R   0.346771 0.538400 0.761422 0.336968
C20   C     C_R   0.487094 0.447839 0.210125 0.369754
C21   C     C_R   0.296007 0.530005 0.838406 -0.202542
C22   C     C_R   0.444551 0.451528 0.127094 -0.213873
C23   C     C_R   0.309535 0.458624 0.887750 0.099001
C24   C     C_R   0.414052 0.525821 0.086395 0.078272
C25   C     C_R   0.352777 0.389259 0.855855 0.256344
C26   C     C_R   0.441533 0.600373 0.128938 0.341145
C27   C     C_R   0.414499 0.398423 0.779758 0.254610
C28   C     C_R   0.491674 0.598107 0.213358 0.280558
H1    H     H_    0.037101 0.592154 0.526620 0.255071
H2    H     H_    0.962825 0.408485 0.471335 0.248442
H3    H     H_    0.439008 0.395735 0.093425 0.254460
H4    H     H_    0.252194 0.581172 0.861876 0.248569
H5    H     H_    0.676243 0.124684 0.567086 0.223906
H6    H     H_    0.323062 0.874971 0.432821 0.225176
H7    H     H_    0.738270 0.892007 0.601905 0.236069
H8    H     H_    0.258222 0.107791 0.399953 0.226402
N1    N     N_2   0.309057 0.460681 0.972819 -0.073367
N2    N     N_2   0.382880 0.528313 0.000566 -0.070501
N3    N     N_R   0.519180 0.718290 0.509780 -0.201920
N4    N     N_R   0.480820 0.281710 0.490220 -0.199249
N5    N     N_2   0.546927 0.983096 0.524465 -0.106289
N6    N     N_2   0.449893 0.016465 0.477015 -0.106718
O1    O     O_R   0.493140 0.422050 0.612640 -0.541948
O2    O     O_R   0.506860 0.577950 0.387360 -0.537716
O3    O     O_R   0.505450 0.562230 0.618920 -0.546681
O4    O     O_R   0.494550 0.437770 0.381080 -0.554272
O5    O     O_R   0.723530 0.446300 0.497600 -0.587846
O6    O     O_R   0.276470 0.553700 0.502400 -0.579802
O7    O     O_R   0.735850 0.586490 0.503880 -0.554373
O8    O     O_R   0.264150 0.413510 0.496120 -0.565595
Zn1   Zn    Zn3+2 0.491780 0.406400 0.495810 1.129898
Zn2   Zn    Zn3+2 0.508220 0.593600 0.504190 1.142634
Cl1   Cl    Cl    0.534791 0.351455 0.250621 -0.488647
Cl2   Cl    Cl    0.311941 0.630037 0.704671 -0.517161
S1    S     S_3+6 0.342479 0.293431 0.914778 0.145750
O9    O     O_2   0.507922 0.285286 0.951296 -0.169774
O10   O     O_2   0.238003 0.290570 0.982281 -0.247037
O11   O     O_3   0.268373 0.211799 0.855240 -0.412026
H9    H     H_    0.163572 0.222982 0.829883 0.374120
S2    S     S_3+6 0.415462 0.696786 0.077073 0.140055
O12   O     O_2   0.577045 0.747470 0.065104 -0.199734
O13   O     O_2   0.318899 0.683346 0.995454 -0.259658
O14   O     O_3   0.320866 0.750124 0.133892 -0.437865
H10   H     H_    0.325672 0.805956 0.105994 0.410132
Cl3   Cl    Cl    0.492049 0.314141 0.747343 -0.378672
Cl4   Cl    Cl    0.562446 0.694185 0.262282 -0.382831
S3    S     S_3+6 0.755701 0.286832 0.607733 0.094312
O15   O     O_2   0.756899 0.229679 0.682631 -0.225040
O16   O     O_2   0.906825 0.286383 0.570534 -0.294118
O17   O     O_3   0.761376 0.383253 0.639381 -0.499431
H11   H     H_    0.865537 0.397590 0.672903 0.373452
S4    S     S_3+6 0.248504 0.713620 0.389688 0.106098
O18   O     O_2   0.094579 0.716175 0.423451 -0.271637
O19   O     O_2   0.255434 0.770201 0.314387 -0.210728
O20   O     O_3   0.241029 0.616535 0.359522 -0.523080
H12   H     H_    0.143661 0.605002 0.320357 0.380519
S5    S     S_3+6 0.808092 0.732338 0.613796 0.096564
O21   O     O_2   0.772162 0.647618 0.654961 -0.256898
O22   O     O_2   0.927882 0.731927 0.554564 -0.261726
O23   O     O_3   0.892129 0.800196 0.686379 -0.520469
H13   H     H_    0.995706 0.783501 0.706055 0.413915
S6    S     S_3+6 0.192269 0.267773 0.385309 0.110563
O24   O     O_2   0.067144 0.263552 0.442417 -0.218530
O25   O     O_2   0.224733 0.354310 0.347743 -0.265155
O26   O     O_3   0.115453 0.202482 0.309550 -0.485982
H14   H     H_    0.197538 0.210880 0.270866 0.388261

loop_
_geom_bond_atom_site_label_1
_geom_bond_atom_site_label_2
_ccdc_geom_bond_type
S1    O9    D    
C2    C18   S    
N5    N6    D    
C1    O3    A    
S5    O21   D    
C2    O4    A    
S2    O14   S    
C6    C8    A    
C19   C21   A    
C24   C26   A    
O26   H14   S    
O23   H13   S    
C16   H2    S    
C15   C16   D    
S2    O13   D    
C11   S5    S    
C1    O1    A    
C4    N4    A    
C2    O2    A    
C24   N2    S    
O17   H11   S    
C14   C16   S    
O2    Zn2   S    
C7    N5    S    
N3    Zn2   S    
C3    N3    A    
S4    O20   S    
C15   H1    S    
S5    O22   D    
C21   C23   A    
C21   H4    S    
C22   H3    S    
S3    O15   D    
C17   C27   A    
C18   C28   A    
S4    O19   D    
C5    C7    A    
C20   Cl1   S    
O5    Zn1   S    
O3    Zn2   S    
O11   H9    S    
C23   N1    S    
O4    Zn1   S    
S2    O12   D    
S3    O16   D    
C12   N4    A    
C28   Cl4   S    
O20   H12   S    
N1    N2    D    
C27   Cl3   S    
O7    Zn2   S    
C5    H6    S    
O8    Zn1   S    
C12   S6    S    
C11   N3    A    
C9    C11   A    
C10   C12   A    
C13   O7    A    
C19   Cl2   S    
C4    C6    A    
C20   C22   A    
S6    O25   D    
C13   C15   S    
C22   C24   A    
S6    O26   S    
C13   O5    A    
S5    O23   S    
C7    C9    A    
C1    C17   S    
C25   S1    S    
C8    N6    S    
S4    O18   D    
C3    C5    A    
C4    S3    S    
C14   O6    A    
C25   C27   A    
N4    Zn1   S    
C26   C28   A    
C6    H5    S    
S3    O17   S    
S1    O10   D    
C3    S4    S    
O1    Zn1   S    
C14   O8    A    
C17   C19   A    
C18   C20   A    
C23   C25   A    
O14   H10   S    
O6    Zn2   S    
C8    C10   A    
S6    O24   D    
S1    O11   S    
C9    H7    S    
C10   H8    S    
C26   S2    S    
