data_mof_unit_50728.cif
_audit_creation_date              2012-12-11T15:08:51-0500
_audit_creation_method            fapswitch 2.2
_symmetry_space_group_name_H-M    P1
_symmetry_Int_Tables_number       1
_space_group_crystal_system       triclinic
_cell_length_a                    19.561219
_cell_length_b                    11.342126
_cell_length_c                    18.715843
_cell_angle_alpha                 89.96137
_cell_angle_beta                  90.660362
_cell_angle_gamma                 90.039763
_cell_volume                      4152.1279636

loop_
_atom_site_label
_atom_site_type_symbol
_atom_type_description
_atom_site_fract_x
_atom_site_fract_y
_atom_site_fract_z
_atom_type_partial_charge
C1    C     C_R   0.272317 0.044256 0.853766 0.531546
C2    C     C_3   0.688671 0.527036 0.955723 -0.234903
C3    C     C_R   0.225225 0.540875 0.355271 0.533292
C4    C     C_R   0.445815 0.819425 0.638114 0.525848
C5    C     C_R   0.553112 0.819533 0.361928 0.525789
C6    C     C_R   0.945815 0.319425 0.638114 0.525848
C7    C     C_R   0.053112 0.319533 0.361928 0.525789
C8    C     C_R   0.258270 0.633751 0.646655 0.528597
C9    C     C_R   0.741653 0.634329 0.353568 0.522031
C10   C     C_R   0.758270 0.133751 0.646655 0.528597
C11   C     C_R   0.241653 0.134329 0.353568 0.522031
C12   C     C_3   0.474503 0.917098 0.031476 -0.121692
C13   C     C_3   0.811313 0.027153 0.044333 -0.235095
C14   C     C_3   0.525470 0.917149 0.968428 -0.121446
C15   C     C_3   0.974503 0.417098 0.031476 -0.121692
C16   C     C_3   0.025470 0.417149 0.968428 -0.121446
C17   C     C_3   0.432089 0.819113 0.994523 -0.138468
C18   C     C_3   0.567889 0.819268 0.005461 -0.138271
C19   C     C_3   0.932089 0.319113 0.994523 -0.138468
C20   C     C_3   0.067889 0.319268 0.005461 -0.138271
C21   C     C_3   0.483042 0.821359 0.932491 0.063767
C22   C     C_3   0.516939 0.821421 0.067500 0.063895
C23   C     C_3   0.983042 0.321359 0.932491 0.063767
C24   C     C_3   0.188671 0.027036 0.955723 -0.234903
C25   C     C_3   0.016939 0.321421 0.067500 0.063895
C26   C     C_3   0.320764 0.551251 0.963864 -0.234077
C27   C     C_3   0.679209 0.551228 0.036164 -0.234197
C28   C     C_3   0.820764 0.051251 0.963864 -0.234077
C29   C     C_3   0.179209 0.051228 0.036164 -0.234197
C30   C     C_3   0.180562 0.527443 0.025665 -0.210267
C31   C     C_3   0.819425 0.527573 0.974424 -0.210063
C32   C     C_3   0.680562 0.027443 0.025665 -0.210267
C33   C     C_R   0.727692 0.044301 0.146254 0.532842
C34   C     C_3   0.319425 0.027573 0.974424 -0.210063
C35   C     C_3   0.243968 0.709011 0.056437 -0.259686
C36   C     C_3   0.756057 0.708987 0.943432 -0.259574
C37   C     C_3   0.743968 0.209011 0.056437 -0.259686
C38   C     C_3   0.256057 0.208987 0.943432 -0.259574
C39   C     C_3   0.241850 0.576429 0.070543 0.061394
C40   C     C_3   0.758149 0.576391 0.929464 0.061269
C41   C     C_3   0.741850 0.076429 0.070543 0.061394
C42   C     C_3   0.258149 0.076391 0.929464 0.061269
C43   C     C_3   0.255645 0.610329 0.932217 0.056996
C44   C     C_R   0.772317 0.544256 0.853766 0.531546
C45   C     C_3   0.744344 0.610409 0.067770 0.057071
C46   C     C_3   0.755645 0.110329 0.932217 0.056996
C47   C     C_3   0.244344 0.110409 0.067770 0.057071
C48   C     C_3   0.195408 0.526862 0.944977 -0.257490
C49   C     C_3   0.804563 0.527028 0.055108 -0.257528
C50   C     C_3   0.695408 0.026862 0.944977 -0.257490
C51   C     C_3   0.304563 0.027028 0.055108 -0.257528
C52   C     C_3   0.240073 0.726074 0.974433 -0.219458
C53   C     C_3   0.759947 0.726143 0.025424 -0.219511
C54   C     C_3   0.740073 0.226074 0.974433 -0.219458
C55   C     C_R   0.227692 0.544301 0.146254 0.532842
C56   C     C_3   0.259947 0.226143 0.025424 -0.219511
C57   C     C_3   0.507731 0.692343 0.460419 0.045827
C58   C     C_3   0.490003 0.692088 0.538939 0.044776
C59   C     C_3   0.007731 0.192343 0.460419 0.045827
C60   C     C_3   0.990003 0.192088 0.538939 0.044776
C61   C     C_R   0.463567 0.819605 0.857251 0.548712
C62   C     C_R   0.536418 0.819633 0.142750 0.548547
C63   C     C_R   0.963567 0.319605 0.857251 0.548712
C64   C     C_R   0.036418 0.319633 0.142750 0.548547
C65   C     C_3   0.573305 0.876807 0.491903 -0.296619
C66   C     C_3   0.524626 0.724071 0.968520 -0.124254
C67   C     C_3   0.425150 0.878434 0.508574 -0.277515
C68   C     C_3   0.073305 0.376807 0.491903 -0.296619
C69   C     C_3   0.925150 0.378434 0.508574 -0.277515
C70   C     C_3   0.460272 0.898239 0.436747 -0.210783
C71   C     C_3   0.538464 0.897757 0.563341 -0.230384
C72   C     C_3   0.960272 0.398239 0.436747 -0.210783
C73   C     C_3   0.038464 0.397757 0.563341 -0.230384
C74   C     C_3   0.523992 0.821637 0.435224 0.044596
C75   C     C_3   0.474361 0.821718 0.564713 0.050782
C76   C     C_3   0.023992 0.321637 0.435224 0.044596
C77   C     C_3   0.475350 0.724022 0.031554 -0.124295
C78   C     C_3   0.974360 0.321718 0.564713 0.050782
C79   C     C_3   0.176712 0.650508 0.458405 -0.201575
C80   C     C_3   0.823963 0.652111 0.540939 -0.170507
C81   C     C_3   0.676712 0.150508 0.458405 -0.201575
C82   C     C_3   0.323963 0.152111 0.540939 -0.170507
C83   C     C_3   0.183790 0.668019 0.538150 -0.000351
C84   C     C_3   0.820311 0.662375 0.460386 0.002029
C85   C     C_3   0.683790 0.168019 0.538150 -0.000351
C86   C     C_3   0.320311 0.162375 0.460386 0.002029
C87   C     C_3   0.235197 0.450002 0.474735 -0.220317
C88   C     C_3   0.024626 0.224071 0.968520 -0.124254
C89   C     C_3   0.761113 0.452788 0.525922 -0.219741
C90   C     C_3   0.735197 0.950002 0.474735 -0.220317
C91   C     C_3   0.261113 0.952788 0.525922 -0.219741
C92   C     C_3   0.301518 0.629109 0.448546 -0.275917
C93   C     C_3   0.699891 0.637475 0.552025 -0.281879
C94   C     C_3   0.801518 0.129109 0.448546 -0.275917
C95   C     C_3   0.199891 0.137475 0.552025 -0.281879
C96   C     C_3   0.234391 0.567878 0.432200 0.039627
C97   C     C_3   0.765441 0.571100 0.568096 0.042804
C98   C     C_3   0.734391 0.067878 0.432200 0.039627
C99   C     C_3   0.975350 0.224022 0.031554 -0.124295
C100  C     C_3   0.265441 0.071100 0.568096 0.042804
C101  C     C_3   0.245593 0.596812 0.571021 0.067219
C102  C     C_3   0.754488 0.598471 0.429263 0.085381
C103  C     C_3   0.745593 0.096812 0.571021 0.067219
C104  C     C_3   0.254488 0.098471 0.429263 0.085381
C105  C     C_3   0.231950 0.466711 0.557020 -0.262072
C106  C     C_3   0.764246 0.467490 0.443566 -0.253233
C107  C     C_3   0.731950 0.966711 0.557020 -0.262072
C108  C     C_3   0.264246 0.967490 0.443566 -0.253233
C109  C     C_R   0.262406 0.642036 0.854939 0.534940
C110  C     C_3   0.311313 0.527153 0.044333 -0.235095
C111  C     C_R   0.737575 0.642108 0.145035 0.536590
C112  C     C_R   0.762406 0.142036 0.854939 0.534940
C113  C     C_R   0.237575 0.142108 0.145035 0.536590
C114  C     C_3   0.312066 0.626689 0.530342 -0.237492
C115  C     C_3   0.689144 0.634356 0.470215 -0.233732
C116  C     C_3   0.812066 0.126689 0.530342 -0.237492
C117  C     C_3   0.189144 0.134356 0.470215 -0.233732
C118  C     C_R   0.274489 0.042214 0.645019 0.527936
C119  C     C_R   0.725225 0.040875 0.355271 0.533292
C120  C     C_R   0.774489 0.542214 0.645019 0.527936
Cr1   Cr    Cr6+3 0.229620 0.836040 0.749110 1.008046
Cr2   Cr    Cr6+3 0.613980 0.676590 0.250790 0.990011
Cr3   Cr    Cr6+3 0.886020 0.176590 0.749210 0.990426
Cr4   Cr    Cr6+3 0.113980 0.176590 0.250790 0.990011
Cr5   Cr    Cr6+3 0.770380 0.836040 0.250890 0.987680
Cr6   Cr    Cr6+3 0.729620 0.336040 0.749110 1.008046
Cr7   Cr    Cr6+3 0.270380 0.336040 0.250890 0.987680
Cr8   Cr    Cr6+3 0.387630 0.990680 0.750730 1.000311
Cr9   Cr    Cr6+3 0.612370 0.990680 0.249270 0.995357
Cr10  Cr    Cr6+3 0.887630 0.490680 0.750730 1.000311
Cr11  Cr    Cr6+3 0.112370 0.490680 0.249270 0.995357
Cr12  Cr    Cr6+3 0.386020 0.676590 0.749210 0.990426
H1    H     H_    0.377727 0.798028 0.996732 0.090054
H2    H     H_    0.707977 0.745824 0.920809 0.105970
H3    H     H_    0.222941 0.916559 0.416717 0.093206
H4    H     H_    0.315688 0.432912 0.055024 0.132214
H5    H     H_    0.684286 0.432780 0.945159 0.131971
H6    H     H_    0.815688 0.932912 0.055024 0.132214
H7    H     H_    0.184286 0.932780 0.945159 0.131971
H8    H     H_    0.353508 0.568302 0.075510 0.108260
H9    H     H_    0.646478 0.568066 0.924489 0.108629
H10   H     H_    0.853508 0.068302 0.075510 0.108260
H11   H     H_    0.146478 0.068066 0.924489 0.108629
H12   H     H_    0.366008 0.608256 0.955766 0.141544
H13   H     H_    0.792055 0.245947 0.079013 0.105817
H14   H     H_    0.633998 0.608228 0.044167 0.141356
H15   H     H_    0.866008 0.108256 0.955766 0.141544
H16   H     H_    0.133998 0.108228 0.044167 0.141356
H17   H     H_    0.331088 0.466888 0.935735 0.115954
H18   H     H_    0.668828 0.466893 0.064397 0.115645
H19   H     H_    0.831088 0.966888 0.935735 0.115954
H20   H     H_    0.168828 0.966893 0.064397 0.115645
H21   H     H_    0.666314 0.942751 0.046915 0.112726
H22   H     H_    0.333701 0.942897 0.953319 0.112346
H23   H     H_    0.166314 0.442751 0.046915 0.112726
H24   H     H_    0.207977 0.245824 0.920809 0.105970
H25   H     H_    0.833701 0.442897 0.953319 0.112346
H26   H     H_    0.707719 0.937366 0.926277 0.110926
H27   H     H_    0.292218 0.937527 0.073905 0.110807
H28   H     H_    0.207719 0.437366 0.926277 0.110926
H29   H     H_    0.792218 0.437527 0.073905 0.110807
H30   H     H_    0.471086 0.555863 0.396679 0.237531
H31   H     H_    0.432514 0.686049 0.378530 0.256180
H32   H     H_    0.526108 0.554482 0.602325 0.243015
H33   H     H_    0.565710 0.683956 0.620148 0.257264
H34   H     H_    0.971086 0.055863 0.396679 0.237531
H35   H     H_    0.273149 0.796933 0.956839 0.109514
H36   H     H_    0.932514 0.186049 0.378530 0.256180
H37   H     H_    0.026108 0.054482 0.602325 0.243015
H38   H     H_    0.065710 0.183956 0.620148 0.257264
H39   H     H_    0.116104 0.580988 0.607083 0.243680
H40   H     H_    0.075839 0.666712 0.543130 0.213182
H41   H     H_    0.880751 0.607707 0.374591 0.261490
H42   H     H_    0.922554 0.682120 0.439117 0.212434
H43   H     H_    0.616104 0.080988 0.607083 0.243680
H44   H     H_    0.575839 0.166712 0.543130 0.213182
H45   H     H_    0.380751 0.107707 0.374591 0.261490
H46   H     H_    0.726862 0.796942 0.042903 0.109796
H47   H     H_    0.422554 0.182120 0.439117 0.212434
H48   H     H_    0.773149 0.296933 0.956839 0.109514
H49   H     H_    0.226862 0.296942 0.042903 0.109796
H50   H     H_    0.186589 0.751274 0.961215 0.130699
H51   H     H_    0.813428 0.751480 0.038622 0.130499
H52   H     H_    0.686589 0.251274 0.961215 0.130699
H53   H     H_    0.622240 0.798226 0.003161 0.090045
H54   H     H_    0.313428 0.251480 0.038622 0.130499
H55   H     H_    0.634452 0.083122 0.034322 0.139055
H56   H     H_    0.365538 0.083349 0.965713 0.139129
H57   H     H_    0.134452 0.583122 0.034322 0.139055
H58   H     H_    0.865538 0.583349 0.965713 0.139129
H59   H     H_    0.149644 0.557029 0.914507 0.124202
H60   H     H_    0.850341 0.557274 0.085548 0.123141
H61   H     H_    0.649644 0.057029 0.914507 0.124202
H62   H     H_    0.350341 0.057274 0.085548 0.123141
H63   H     H_    0.553953 0.639302 0.453492 0.167313
H64   H     H_    0.877727 0.298028 0.996732 0.090054
H65   H     H_    0.443692 0.639502 0.545729 0.166023
H66   H     H_    0.053953 0.139302 0.453492 0.167313
H67   H     H_    0.943693 0.139502 0.545729 0.166023
H68   H     H_    0.613514 0.816904 0.507135 0.126711
H69   H     H_    0.383589 0.820816 0.493975 0.115498
H70   H     H_    0.113514 0.316904 0.507135 0.126711
H71   H     H_    0.883589 0.320816 0.493975 0.115498
H72   H     H_    0.573340 0.878746 0.609279 0.114987
H73   H     H_    0.425047 0.880633 0.390904 0.124267
H74   H     H_    0.073340 0.378746 0.609279 0.114987
H75   H     H_    0.122240 0.298226 0.003161 0.090045
H76   H     H_    0.925047 0.380633 0.390904 0.124267
H77   H     H_    0.456409 0.997618 0.058670 0.104846
H78   H     H_    0.543524 0.997727 0.941160 0.105586
H79   H     H_    0.956409 0.497618 0.058670 0.104846
H80   H     H_    0.043524 0.497727 0.941160 0.105586
H81   H     H_    0.477708 0.990793 0.432102 0.165947
H82   H     H_    0.522859 0.991452 0.567697 0.133595
H83   H     H_    0.977709 0.490793 0.432102 0.165947
H84   H     H_    0.022859 0.491452 0.567697 0.133595
H85   H     H_    0.404972 0.960641 0.529084 0.155929
H86   H     H_    0.200508 0.755082 0.082141 0.125177
H87   H     H_    0.594108 0.958949 0.472203 0.127657
H88   H     H_    0.904972 0.460641 0.529084 0.155929
H89   H     H_    0.094108 0.458949 0.472203 0.127657
H90   H     H_    0.124864 0.621838 0.443001 0.140013
H91   H     H_    0.875833 0.626201 0.558799 0.158823
H92   H     H_    0.624864 0.121838 0.443001 0.140013
H93   H     H_    0.375833 0.126201 0.558799 0.158823
H94   H     H_    0.181024 0.736885 0.430925 0.097398
H95   H     H_    0.818884 0.740860 0.564993 0.083702
H96   H     H_    0.681024 0.236885 0.430925 0.097398
H97   H     H_    0.799527 0.755113 0.917679 0.125512
H98   H     H_    0.318884 0.240860 0.564993 0.083702
H99   H     H_    0.198300 0.757234 0.544752 0.170686
H100  H     H_    0.818302 0.754956 0.447668 0.151545
H101  H     H_    0.698300 0.257234 0.544752 0.170686
H102  H     H_    0.318302 0.254956 0.447668 0.151545
H103  H     H_    0.698237 0.888855 0.452483 0.102671
H104  H     H_    0.295800 0.886000 0.547678 0.096250
H105  H     H_    0.198238 0.388855 0.452483 0.102671
H106  H     H_    0.795800 0.386000 0.547678 0.096250
H107  H     H_    0.682541 0.937852 0.578303 0.110502
H108  H     H_    0.700508 0.255082 0.082141 0.125177
H109  H     H_    0.312893 0.934929 0.421768 0.141556
H110  H     H_    0.182541 0.437852 0.578303 0.110502
H111  H     H_    0.812893 0.434929 0.421768 0.141556
H112  H     H_    0.341066 0.576080 0.422504 0.168360
H113  H     H_    0.659120 0.588889 0.578969 0.166574
H114  H     H_    0.841066 0.076080 0.422504 0.168360
H115  H     H_    0.159120 0.088889 0.578969 0.166574
H116  H     H_    0.302431 0.720139 0.426844 0.108217
H117  H     H_    0.701161 0.728606 0.573180 0.109031
H118  H     H_    0.802431 0.220138 0.426844 0.108217
H119  H     H_    0.299526 0.255113 0.917679 0.125512
H120  H     H_    0.201161 0.228605 0.573180 0.109031
H121  H     H_    0.542682 0.643623 0.941198 0.113306
H122  H     H_    0.457333 0.643518 0.058949 0.113046
H123  H     H_    0.042683 0.143623 0.941198 0.113306
H124  H     H_    0.957333 0.143518 0.058949 0.113046
H125  H     H_    0.332441 0.708198 0.552038 0.101626
H126  H     H_    0.669613 0.714975 0.447078 0.102289
H127  H     H_    0.832441 0.208198 0.552038 0.101626
H128  H     H_    0.169613 0.214975 0.447078 0.102289
H129  H     H_    0.349636 0.556036 0.542952 0.132641
H130  H     H_    0.292055 0.745947 0.079013 0.105817
H131  H     H_    0.650067 0.565839 0.458722 0.131843
H132  H     H_    0.849636 0.056036 0.542952 0.132641
H133  H     H_    0.150067 0.065839 0.458722 0.131843
H134  H     H_    0.285562 0.413751 0.465006 0.118405
H135  H     H_    0.708506 0.424932 0.536121 0.126275
H136  H     H_    0.785562 0.913751 0.465006 0.118405
H137  H     H_    0.208506 0.924932 0.536121 0.126275
H138  H     H_    0.271524 0.413124 0.584683 0.102194
H139  H     H_    0.722941 0.416559 0.416717 0.093206
H140  H     H_    0.771524 0.913124 0.584683 0.102194
N1    N     N_3   0.453001 0.633964 0.419458 -0.687890
N2    N     N_3   0.544608 0.632260 0.579398 -0.685366
N3    N     N_3   0.953001 0.133964 0.419458 -0.687890
N4    N     N_3   0.044608 0.132260 0.579398 -0.685366
N5    N     N_3   0.118712 0.657318 0.576464 -0.628831
N6    N     N_3   0.884107 0.619508 0.429767 -0.690550
N7    N     N_3   0.618712 0.157318 0.576464 -0.628831
N8    N     N_3   0.384107 0.119508 0.429767 -0.690550
O1    O     O_R   0.214130 0.708570 0.829890 -0.529159
O2    O     O_R   0.542830 0.717300 0.331620 -0.530481
O3    O     O_R   0.957170 0.217300 0.668380 -0.530048
O4    O     O_R   0.042830 0.217300 0.331620 -0.530481
O5    O     O_R   0.320870 0.624890 0.673130 -0.527725
O6    O     O_R   0.679130 0.624890 0.326870 -0.522078
O7    O     O_R   0.820870 0.124890 0.673130 -0.527725
O8    O     O_R   0.179130 0.124890 0.326870 -0.522078
O9    O     O_3   0.334430 0.834430 0.749680 -0.288940
O10   O     O_3   0.665570 0.834430 0.250320 -0.283510
O11   O     O_3   0.834430 0.334430 0.749680 -0.288940
O12   O     O_R   0.785870 0.708570 0.170110 -0.530755
O13   O     O_3   0.165570 0.334430 0.250320 -0.283510
O14   O     O_R   0.236050 0.959150 0.825270 -0.513253
O15   O     O_R   0.763950 0.959150 0.174730 -0.512514
O16   O     O_R   0.736050 0.459150 0.825270 -0.513253
O17   O     O_R   0.263950 0.459150 0.174730 -0.512514
O18   O     O_R   0.332100 0.076650 0.832310 -0.527261
O19   O     O_R   0.667900 0.076650 0.167690 -0.527458
O20   O     O_R   0.832100 0.576650 0.832310 -0.527261
O21   O     O_R   0.167900 0.576650 0.167690 -0.527458
O22   O     O_R   0.446500 0.918620 0.826240 -0.504872
O23   O     O_R   0.714130 0.208570 0.829890 -0.529159
O24   O     O_R   0.553500 0.918620 0.173760 -0.505811
O25   O     O_R   0.946500 0.418620 0.826240 -0.504872
O26   O     O_R   0.053500 0.418620 0.173760 -0.505811
O27   O     O_R   0.457310 0.715830 0.831280 -0.526204
O28   O     O_R   0.542690 0.715830 0.168720 -0.526870
O29   O     O_R   0.957310 0.215830 0.831280 -0.526204
O30   O     O_R   0.042690 0.215830 0.168720 -0.526870
O31   O     O_R   0.321000 0.623520 0.824130 -0.511532
O32   O     O_R   0.679000 0.623520 0.175870 -0.510635
O33   O     O_R   0.821000 0.123520 0.824130 -0.511532
O34   O     O_R   0.285870 0.208570 0.170110 -0.530755
O35   O     O_R   0.179000 0.123520 0.175870 -0.510635
O36   O     O_R   0.213990 0.710040 0.667000 -0.492671
O37   O     O_R   0.786010 0.710040 0.333000 -0.538671
O38   O     O_R   0.713990 0.210040 0.667000 -0.492671
O39   O     O_R   0.286010 0.210040 0.333000 -0.538671
O40   O     O_R   0.235920 0.960520 0.674260 -0.507182
O41   O     O_R   0.764080 0.960520 0.325740 -0.512096
O42   O     O_R   0.735920 0.460520 0.674260 -0.507182
O43   O     O_R   0.264080 0.460520 0.325740 -0.512096
O44   O     O_R   0.331960 0.078120 0.669410 -0.539687
O45   O     O_R   0.446360 0.919990 0.675230 -0.507563
O46   O     O_R   0.668040 0.078120 0.330590 -0.537593
O47   O     O_R   0.831960 0.578120 0.669410 -0.539687
O48   O     O_R   0.168040 0.578120 0.330590 -0.537593
O49   O     O_R   0.553640 0.919990 0.324770 -0.510614
O50   O     O_R   0.946360 0.419990 0.675230 -0.507563
O51   O     O_R   0.053640 0.419990 0.324770 -0.510614
O52   O     O_R   0.457170 0.717300 0.668380 -0.530048

loop_
_geom_bond_atom_site_label_1
_geom_bond_atom_site_label_2
_ccdc_geom_bond_type
C73   H74   S    
C46   C112  S    
C34   C42   S    
C106  H111  S    
Cr11  O48   S    
C1    O14   A    
C57   H63   S    
C85   H101  S    
C14   C21   S    
C52   H50   S    
C90   C107  S    
H41   N6    S    
C53   H51   S    
H30   N1    S    
C112  O33   A    
Cr11  O13   S    
C30   H57   S    
C5    C74   S    
Cr12  O9    S    
C36   C53   S    
H36   N3    S    
C120  O42   A    
Cr6   O23   S    
C89   C106  S    
C70   C74   S    
C63   O29   A    
C91   C100  S    
C64   O26   A    
H39   N5    S    
C59   C60   S    
C8    O36   A    
C2    H5    S    
Cr5   O15   S    
Cr6   O16   S    
C5    O49   A    
C68   H70   S    
C1    O18   A    
H44   N7    S    
C19   C99   S    
C118  O40   A    
C17   C21   S    
Cr8   O44   S    
Cr10  O20   S    
C70   H73   S    
C19   C23   S    
C116  H132  S    
C118  O44   A    
C66   H121  S    
C36   C40   S    
C16   C20   S    
C109  O31   A    
C13   H10   S    
C31   H25   S    
C93   H113  S    
C111  O32   A    
Cr11  O26   S    
C17   H1    S    
Cr12  O27   S    
C79   H90   S    
C104  C117  S    
C105  H138  S    
C66   C77   S    
C18   C66   S    
C28   H15   S    
C107  H140  S    
C89   H106  S    
C26   H17   S    
C83   N5    S    
C95   H120  S    
C45   C111  S    
C71   H82   S    
Cr6   O42   S    
C103  C116  S    
C79   C96   S    
C80   H91   S    
C90   H103  S    
C6    O50   A    
C80   H95   S    
C84   H100  S    
C88   C99   S    
Cr11  O51   S    
C87   H134  S    
C33   O19   A    
C2    C40   S    
C72   H83   S    
C81   C98   S    
Cr8   O45   S    
C103  C107  S    
Cr9   O24   S    
C56   H49   S    
C21   C66   S    
C69   C72   S    
C69   H88   S    
C84   C102  S    
C110  H4    S    
Cr9   O46   S    
Cr2   O10   S    
C86   C104  S    
C29   H16   S    
C92   H116  S    
C72   H76   S    
C50   H26   S    
C48   H28   S    
C31   H58   S    
C28   C46   S    
C34   C51   S    
C29   C47   S    
C35   H130  S    
C30   C48   S    
C12   H77   S    
C50   H61   S    
C43   C52   S    
C6    C78   S    
C24   H11   S    
C12   C22   S    
C92   C96   S    
C48   H59   S    
C95   H115  S    
C3    O43   A    
C84   N6    S    
C108  H109  S    
C32   C41   S    
C44   O20   A    
C73   H84   S    
Cr7   O43   S    
C49   H29   S    
H40   N5    S    
Cr7   O13   S    
C45   C53   S    
C106  H139  S    
Cr2   O28   S    
H37   N4    S    
Cr1   O1    S    
C94   H118  S    
C55   O17   A    
C61   O27   A    
C88   H123  S    
Cr4   O4    S    
C71   H72   S    
Cr7   O39   S    
C5    O2    A    
C113  O35   A    
C108  H3    S    
C65   H87   S    
C36   H97   S    
Cr9   O19   S    
C65   C74   S    
C25   C64   S    
Cr4   O35   S    
C99   H124  S    
C67   H69   S    
Cr12  O5    S    
C87   C105  S    
C2    C27   S    
C116  H127  S    
Cr9   O10   S    
C16   C23   S    
C23   C88   S    
C44   O16   A    
C67   C75   S    
C93   C97   S    
C81   H92   S    
C60   N4    S    
C32   H55   S    
C18   C22   S    
Cr11  O21   S    
C36   H2    S    
H47   N8    S    
C7    C76   S    
C57   N1    S    
C27   H18   S    
C119  O46   A    
C18   H53   S    
C67   C70   S    
C62   O24   A    
C13   H6    S    
C57   C58   S    
C83   H99   S    
C30   C39   S    
Cr12  O31   S    
C37   C41   S    
C114  H125  S    
C40   C44   S    
C120  O47   A    
C38   C56   S    
C28   H19   S    
C64   O30   A    
C7    O51   A    
C43   C109  S    
C20   H75   S    
C59   C76   S    
C81   C85   S    
C47   C56   S    
C58   N2    S    
C58   H65   S    
C87   H105  S    
C81   H96   S    
C24   C42   S    
C6    O3    A    
C80   C84   S    
C13   C41   S    
C49   H60   S    
Cr1   O36   S    
C15   C19   S    
C86   H102  S    
H32   N2    S    
C10   C103  S    
H43   N7    S    
C52   H35   S    
C80   C97   S    
C20   C25   S    
C94   C98   S    
C59   H66   S    
C31   C40   S    
C24   C29   S    
C4    C75   S    
Cr5   O37   S    
C102  C115  S    
H45   N8    S    
C25   C99   S    
C39   C55   S    
C9    C102  S    
C119  O41   A    
C12   C17   S    
Cr3   O33   S    
C13   C28   S    
Cr4   O30   S    
C11   C104  S    
H33   N2    S    
Cr3   O11   S    
C8    C101  S    
C79   H94   S    
C21   C61   S    
C27   C45   S    
C23   C63   S    
C3    O48   A    
C82   H98   S    
H38   N4    S    
C101  C114  S    
C31   C49   S    
C34   H22   S    
C24   H7    S    
C62   O28   A    
C4    O52   A    
C67   H85   S    
C117  H128  S    
C94   C116  S    
C95   C100  S    
C37   H108  S    
C47   C51   S    
C82   C86   S    
C107  H107  S    
C51   H62   S    
C95   C117  S    
C61   O22   A    
C89   H135  S    
C35   C39   S    
Cr7   O17   S    
C65   H68   S    
Cr8   O22   S    
Cr10  O50   S    
C45   C49   S    
C60   C78   S    
C46   C54   S    
Cr2   O32   S    
Cr3   O29   S    
Cr2   O2    S    
Cr3   O7    S    
C9    O37   A    
C8    O5    A    
Cr4   O8    S    
C30   H23   S    
C56   H54   S    
C11   O39   A    
C54   H52   S    
C100  C118  S    
C105  H110  S    
C104  C108  S    
H31   N1    S    
C47   C113  S    
C70   H81   S    
C91   C108  S    
C22   C77   S    
Cr10  O25   S    
Cr5   O41   S    
C33   C41   S    
C79   C83   S    
C27   H14   S    
C20   C88   S    
C4    O45   A    
H34   N3    S    
C15   C25   S    
C111  O12   A    
C32   H21   S    
C1    C42   S    
C35   C52   S    
C7    O4    A    
C58   C75   S    
C14   C18   S    
C90   H136  S    
C68   H89   S    
C63   O25   A    
C38   H24   S    
C72   C76   S    
Cr9   O49   S    
C53   H46   S    
C98   C119  S    
C9    O6    A    
C113  O34   A    
C114  H129  S    
C11   O8    A    
C38   C42   S    
Cr12  O52   S    
C15   C16   S    
C112  O23   A    
C109  O1    A    
C93   C115  S    
C15   H79   S    
C60   H67   S    
C39   C110  S    
C59   N3    S    
C73   C78   S    
C3    C96   S    
C43   C48   S    
C26   C110  S    
Cr5   O10   S    
Cr1   O40   S    
Cr1   O14   S    
C69   C78   S    
C26   H12   S    
C17   C77   S    
C93   H117  S    
C26   C43   S    
C101  C105  S    
C82   H93   S    
C14   H78   S    
C16   H80   S    
Cr6   O38   S    
C55   O21   A    
C68   C73   S    
C65   C71   S    
C91   H104  S    
Cr10  O47   S    
C89   C97   S    
C57   C74   S    
Cr10  O11   S    
C22   C62   S    
C94   H114  S    
C38   H119  S    
C87   C96   S    
C85   N7    S    
C33   O15   A    
C68   C76   S    
C34   H56   S    
C32   C50   S    
C115  H131  S    
C37   C54   S    
Cr8   O9    S    
H42   N6    S    
C12   C14   S    
C69   H71   S    
C86   N8    S    
Cr4   O13   S    
C35   H86   S    
C82   C100  S    
C10   O7    A    
C77   H122  S    
C91   H137  S    
C115  H126  S    
C85   C103  S    
Cr8   O18   S    
C46   C50   S    
Cr1   O9    S    
C97   C120  S    
C110  H8    S    
Cr2   O6    S    
Cr3   O3    S    
C29   H20   S    
C71   C75   S    
C92   H112  S    
C10   O38   A    
C51   H27   S    
C54   H48   S    
C102  C106  S    
C117  H133  S    
Cr5   O12   S    
Cr6   O11   S    
C19   H64   S    
Cr7   O34   S    
C2    H9    S    
C83   C101  S    
C37   H13   S    
C92   C114  S    
C90   C98   S    
