data_mof_unit_41894.cif
_audit_creation_date              2012-12-11T14:52:34-0500
_audit_creation_method            fapswitch 2.2
_symmetry_space_group_name_H-M    P1
_symmetry_Int_Tables_number       1
_space_group_crystal_system       triclinic
_cell_length_a                    19.234171
_cell_length_b                    11.194079
_cell_length_c                    18.755015
_cell_angle_alpha                 89.758686
_cell_angle_beta                  90.995851
_cell_angle_gamma                 90.03824
_cell_volume                      4037.47387474

loop_
_atom_site_label
_atom_site_type_symbol
_atom_type_description
_atom_site_fract_x
_atom_site_fract_y
_atom_site_fract_z
_atom_type_partial_charge
C1    C     C_R   0.271604 0.042355 0.852816 0.604589
C2    C     C_R   0.727449 0.041464 0.146708 0.618843
C3    C     C_R   0.772433 0.547337 0.851602 0.606736
C4    C     C_R   0.228023 0.543238 0.146716 0.618527
C5    C     C_3   0.493618 0.718654 0.987003 0.133737
C6    C     C_3   0.444526 0.755881 0.047954 0.135520
C7    C     C_3   0.960739 0.200386 0.988439 0.151177
C8    C     C_3   0.927638 0.272915 0.048795 0.136106
C9    C     C_R   0.307144 0.549058 0.963466 -0.059986
C10   C     C_R   0.686137 0.575898 0.026085 -0.025747
C11   C     C_R   0.788381 0.020574 0.959487 -0.110495
C12   C     C_R   0.217757 0.011713 0.040519 -0.025956
C13   C     C_R   0.302370 0.529307 0.036425 0.206523
C14   C     C_R   0.692590 0.578329 0.951005 0.196988
C15   C     C_R   0.789871 0.008500 0.033172 0.150840
C16   C     C_R   0.208716 0.006691 0.965875 0.216867
C17   C     C_R   0.246292 0.582107 0.073913 0.048136
C18   C     C_R   0.756318 0.602066 0.921206 0.026585
C19   C     C_R   0.745518 0.078945 0.074893 0.039319
C20   C     C_R   0.248694 0.082520 0.922975 0.040676
C21   C     C_R   0.195178 0.645746 0.034160 0.265342
C22   C     C_R   0.811106 0.648083 0.965458 0.253661
C23   C     C_R   0.707748 0.172727 0.043266 0.282359
C24   C     C_R   0.273837 0.187659 0.953022 0.286478
C25   C     C_R   0.191038 0.631020 0.960690 0.314488
C26   C     C_R   0.807242 0.632441 0.038942 0.299711
C27   C     C_R   0.704136 0.181893 0.969713 0.312995
C28   C     C_R   0.258598 0.210081 0.024188 0.287384
C29   C     C_R   0.250665 0.595188 0.924500 0.021083
C30   C     C_R   0.744317 0.604290 0.070681 0.018453
C31   C     C_R   0.747867 0.108580 0.927093 -0.009730
C32   C     C_R   0.246506 0.113752 0.070718 0.025677
C33   C     C_R   0.459872 0.731175 0.524498 0.191708
C34   C     C_R   0.463952 0.745721 0.451480 0.235649
C35   C     C_R   0.959880 0.231179 0.524502 0.191242
C36   C     C_R   0.963954 0.245732 0.451484 0.235826
C37   C     C_R   0.503820 0.838762 0.424397 -0.008881
C38   C     C_R   0.486219 0.821747 0.571131 -0.034402
C39   C     C_R   0.003824 0.338767 0.424401 -0.008344
C40   C     C_R   0.986232 0.321744 0.571137 -0.034414
C41   C     C_R   0.529951 0.929737 0.470685 0.241096
C42   C     C_R   0.523431 0.917930 0.544089 0.257490
C43   C     C_R   0.029961 0.429736 0.470690 0.239365
C44   C     C_R   0.023451 0.417919 0.544096 0.257174
C45   C     C_R   0.440727 0.816091 0.862516 0.592652
C46   C     C_R   0.529261 0.824218 0.146128 0.622041
C47   C     C_R   0.937172 0.314448 0.861175 0.602113
C48   C     C_R   0.030493 0.320655 0.144204 0.634416
C49   C     C_R   0.233890 0.725489 0.514401 0.078253
C50   C     C_R   0.813778 0.573349 0.452934 0.146651
C51   C     C_R   0.733905 0.225514 0.514387 0.077063
C52   C     C_R   0.313780 0.073390 0.452946 0.147814
C53   C     C_R   0.240424 0.700803 0.442644 0.236992
C54   C     C_R   0.822581 0.584459 0.525684 0.197890
C55   C     C_R   0.740440 0.200826 0.442628 0.236088
C56   C     C_R   0.322575 0.084521 0.525695 0.197610
C57   C     C_R   0.247592 0.581603 0.423371 0.053650
C58   C     C_R   0.763689 0.576512 0.570698 -0.007979
C59   C     C_R   0.747602 0.081625 0.423358 0.052015
C60   C     C_R   0.263682 0.076537 0.570703 -0.009301
C61   C     C_R   0.251298 0.492288 0.476117 0.165707
C62   C     C_R   0.696690 0.575605 0.541980 0.174854
C63   C     C_R   0.751316 0.992313 0.476103 0.166362
C64   C     C_R   0.196686 0.075593 0.541977 0.174626
C65   C     C_R   0.266385 0.522486 0.545891 0.316784
C66   C     C_R   0.687878 0.567025 0.468516 0.250862
C67   C     C_R   0.766414 0.022512 0.545872 0.318247
C68   C     C_R   0.187881 0.067003 0.468513 0.252279
C69   C     C_R   0.260739 0.642943 0.564238 -0.005725
C70   C     C_R   0.747061 0.577350 0.424017 0.024484
C71   C     C_R   0.760753 0.142965 0.564227 -0.004324
C72   C     C_R   0.247066 0.077351 0.424020 0.026341
C73   C     C_R   0.260613 0.636956 0.851450 0.616123
C74   C     C_R   0.737370 0.641221 0.146159 0.604519
C75   C     C_R   0.760606 0.141151 0.852781 0.587516
C76   C     C_R   0.238678 0.140745 0.146968 0.595503
C77   C     C_R   0.274087 0.042892 0.644518 0.583727
C78   C     C_R   0.728788 0.045584 0.352730 0.634841
C79   C     C_R   0.774091 0.542882 0.644515 0.577274
C80   C     C_R   0.228783 0.545572 0.352737 0.629593
C81   C     C_R   0.466186 0.821269 0.645499 0.597446
C82   C     C_R   0.531373 0.824659 0.353058 0.618464
C83   C     C_R   0.966194 0.321269 0.645503 0.601440
C84   C     C_R   0.031373 0.324661 0.353059 0.618404
C85   C     C_R   0.271585 0.681211 0.636258 0.551488
C86   C     C_R   0.739744 0.633285 0.354542 0.627857
C87   C     C_R   0.771589 0.181221 0.636257 0.551352
C88   C     C_R   0.239744 0.133286 0.354544 0.620186
C89   C     C_3   0.465266 0.943379 0.030024 0.229016
C90   C     C_3   0.513481 0.910903 0.968641 0.248203
C91   C     C_3   0.991524 0.427246 0.020082 0.230217
C92   C     C_3   0.026937 0.351634 0.962447 0.232199
C93   C     C_3   0.412031 0.852862 0.000448 0.147988
C94   C     C_3   0.547564 0.811470 0.014304 0.160597
C95   C     C_3   0.918071 0.379601 0.996301 0.178292
C96   C     C_3   0.031117 0.246343 0.013653 0.227308
C97   C     C_3   0.460575 0.818993 0.939789 -0.046695
C98   C     C_3   0.499034 0.842746 0.074861 -0.022285
C99   C     C_3   0.955313 0.309237 0.937995 -0.063073
C100  C     C_3   0.998375 0.322243 0.071628 -0.039994
Cr1   Cr    Cr6+3 0.229630 0.835900 0.747350 1.199136
Cr2   Cr    Cr6+3 0.770370 0.835900 0.252650 1.220346
Cr3   Cr    Cr6+3 0.729630 0.335900 0.747350 1.206578
Cr4   Cr    Cr6+3 0.270370 0.335900 0.252650 1.215522
Cr5   Cr    Cr6+3 0.387410 0.989850 0.750850 1.219908
Cr6   Cr    Cr6+3 0.612590 0.989850 0.249150 1.227623
Cr7   Cr    Cr6+3 0.887410 0.489850 0.750850 1.220466
Cr8   Cr    Cr6+3 0.112590 0.489850 0.249150 1.242232
Cr9   Cr    Cr6+3 0.385800 0.677120 0.749340 1.198409
Cr10  Cr    Cr6+3 0.614200 0.677120 0.250660 1.217873
Cr11  Cr    Cr6+3 0.885800 0.177120 0.749340 1.189602
Cr12  Cr    Cr6+3 0.114200 0.177120 0.250660 1.229351
H1    H     H_    0.353323 0.521322 0.936237 0.230623
H2    H     H_    0.635393 0.563197 0.048908 0.224948
H3    H     H_    0.820712 0.963912 0.927372 0.214055
H4    H     H_    0.191515 0.951085 0.075065 0.229077
O1    O     O_R   0.214270 0.709000 0.827470 -0.428075
O2    O     O_R   0.785730 0.709000 0.172530 -0.431183
O3    O     O_R   0.714270 0.209000 0.827470 -0.419091
O4    O     O_R   0.285730 0.209000 0.172530 -0.447243
O5    O     O_R   0.445950 0.919440 0.676520 -0.450141
O6    O     O_R   0.554050 0.919440 0.323480 -0.458920
O7    O     O_R   0.945950 0.419440 0.676520 -0.448726
O8    O     O_R   0.054050 0.419440 0.323480 -0.457768
O9    O     O_R   0.456730 0.717630 0.669840 -0.436585
O10   O     O_R   0.543270 0.717630 0.330160 -0.412769
O11   O     O_R   0.956730 0.217630 0.669840 -0.437371
O12   O     O_R   0.043270 0.217630 0.330160 -0.416332
O13   O     O_R   0.320620 0.625640 0.672920 -0.424304
O14   O     O_R   0.679380 0.625640 0.327080 -0.446861
O15   O     O_R   0.820620 0.125640 0.672920 -0.428281
O16   O     O_R   0.179380 0.125640 0.327080 -0.452065
O17   O     O_3   0.334280 0.834290 0.749180 -0.402531
O18   O     O_3   0.665720 0.834290 0.250820 -0.356394
O19   O     O_3   0.834280 0.334290 0.749180 -0.405222
O20   O     O_3   0.165720 0.334290 0.250820 -0.352488
O21   O     O_R   0.236160 0.958490 0.823130 -0.470733
O22   O     O_R   0.763840 0.958490 0.176870 -0.466905
O23   O     O_R   0.736160 0.458490 0.823130 -0.439324
O24   O     O_R   0.263840 0.458490 0.176870 -0.452361
O25   O     O_R   0.332080 0.075470 0.831280 -0.440328
O26   O     O_R   0.667920 0.075470 0.168720 -0.438835
O27   O     O_R   0.832080 0.575470 0.831280 -0.457823
O28   O     O_R   0.167920 0.575470 0.168720 -0.435591
O29   O     O_R   0.446300 0.918110 0.826620 -0.432605
O30   O     O_R   0.553700 0.918110 0.173380 -0.467038
O31   O     O_R   0.946300 0.418110 0.826620 -0.416241
O32   O     O_R   0.053700 0.418110 0.173380 -0.449570
O33   O     O_R   0.457110 0.716200 0.831760 -0.444709
O34   O     O_R   0.542890 0.716200 0.168240 -0.454775
O35   O     O_R   0.957110 0.216200 0.831760 -0.441935
O36   O     O_R   0.042890 0.216200 0.168240 -0.434131
O37   O     O_R   0.320980 0.624310 0.823030 -0.500354
O38   O     O_R   0.679020 0.624310 0.176970 -0.487424
O39   O     O_R   0.820980 0.124310 0.823030 -0.504777
O40   O     O_R   0.179020 0.124310 0.176970 -0.464678
O41   O     O_R   0.213890 0.710430 0.665540 -0.418665
O42   O     O_R   0.786110 0.710430 0.334460 -0.441352
O43   O     O_R   0.713890 0.210430 0.665540 -0.420689
O44   O     O_R   0.286110 0.210430 0.334460 -0.445022
O45   O     O_R   0.235810 0.959820 0.673020 -0.492335
O46   O     O_R   0.764190 0.959820 0.326980 -0.466884
O47   O     O_R   0.735810 0.459820 0.673020 -0.491518
O48   O     O_R   0.264190 0.459820 0.326980 -0.467973
O49   O     O_R   0.331700 0.076900 0.669350 -0.430324
O50   O     O_R   0.668300 0.076900 0.330650 -0.414271
O51   O     O_R   0.831700 0.576900 0.669350 -0.436981
O52   O     O_R   0.168300 0.576900 0.330650 -0.417814
Cl1   Cl    Cl    0.322969 0.842764 0.985858 -0.695303
Cl2   Cl    Cl    0.639374 0.824987 0.023352 -0.635865
Cl3   Cl    Cl    0.827873 0.387096 0.980554 -0.642960
Cl4   Cl    Cl    0.089641 0.135993 0.035274 -0.464833
Br1   Br    Br    0.150286 0.807440 0.538481 -0.179106
Br2   Br    Br    0.892793 0.558557 0.391292 -0.288140
Br3   Br    Br    0.650302 0.307461 0.538466 -0.178496
Br4   Br    Br    0.392809 0.058630 0.391325 -0.300590
Cl5   Cl    Cl    0.222399 0.811493 0.377719 -0.478678
Cl6   Cl    Cl    0.907040 0.625599 0.555760 -0.346601
Cl7   Cl    Cl    0.722426 0.311508 0.377691 -0.463562
Cl8   Cl    Cl    0.407026 0.125723 0.555776 -0.344664
Br5   Br    Br    0.204667 0.345219 0.461125 -0.441731
Br6   Br    Br    0.617572 0.596913 0.603121 -0.234597
Br7   Br    Br    0.704685 0.845237 0.461121 -0.442806
Br8   Br    Br    0.117560 0.096903 0.603099 -0.233227
Cl9   Cl    Cl    0.277969 0.407859 0.610685 -0.361807
Cl10  Cl    Cl    0.601929 0.545195 0.435500 -0.329697
Cl11  Cl    Cl    0.778045 0.907868 0.610644 -0.379306
Cl12  Cl    Cl    0.101935 0.045150 0.435488 -0.330702
Cl13  Cl    Cl    0.445589 0.089998 0.059910 -0.384781
Cl14  Cl    Cl    0.560177 0.016924 0.916636 -0.371262
Cl15  Cl    Cl    0.023250 0.569203 0.040961 -0.269973
Cl16  Cl    Cl    0.095483 0.376521 0.901351 -0.364042
Br9   Br    Br    0.491663 0.546241 0.982409 -0.256868
Br10  Br    Br    0.392391 0.692925 0.128325 -0.350544
Br11  Br    Br    0.955104 0.038994 0.951231 -0.205786
Br12  Br    Br    0.869635 0.232200 0.128767 -0.329495
Br13  Br    Br    0.368760 0.416193 0.077249 -0.209570
Br14  Br    Br    0.616710 0.579454 0.883276 -0.257190
Br15  Br    Br    0.861658 0.910145 0.074353 -0.213138
Br16  Br    Br    0.130383 0.925630 0.925551 -0.154200
Cl17  Cl    Cl    0.137325 0.747196 0.074150 -0.374174
Cl18  Cl    Cl    0.888912 0.711995 0.932485 -0.340451
Cl19  Cl    Cl    0.669484 0.286923 0.095575 -0.395045
Cl20  Cl    Cl    0.305669 0.300960 0.897405 -0.452295
Cl21  Cl    Cl    0.110380 0.652003 0.914959 -0.274953
Cl22  Cl    Cl    0.884021 0.624659 0.091176 -0.339952
Cl23  Cl    Cl    0.642450 0.286751 0.935624 -0.323244
Cl24  Cl    Cl    0.203872 0.331796 0.037292 -0.561581
Cl25  Cl    Cl    0.428815 0.590152 0.553422 -0.377048
Cl26  Cl    Cl    0.418352 0.646233 0.393665 -0.426557
Cl27  Cl    Cl    0.928831 0.090150 0.553421 -0.377754
Cl28  Cl    Cl    0.918340 0.146266 0.393668 -0.425168
Cl29  Cl    Cl    0.566385 0.064891 0.440047 -0.344672
Cl30  Cl    Cl    0.567158 0.018464 0.602513 -0.342724
Cl31  Cl    Cl    0.066381 0.564900 0.440051 -0.344550
Cl32  Cl    Cl    0.067190 0.518432 0.602526 -0.336106

loop_
_geom_bond_atom_site_label_1
_geom_bond_atom_site_label_2
_ccdc_geom_bond_type
C84   O12   A    
Cr12  O40   S    
C49   C53   A    
C58   C62   A    
C73   O37   A    
C55   C59   A    
C34   C37   A    
C41   C42   A    
C14   C18   A    
Cr9   O33   S    
C35   C36   A    
C40   C83   S    
Cr7   O7    S    
C43   Cl31  S    
Cr2   O42   S    
C49   Br1   S    
C5    C94   S    
C69   C85   S    
C7    C8    S    
C66   C70   A    
C66   Cl10  S    
C15   C19   A    
C7    C96   S    
C14   Br14  S    
C93   Cl1   S    
C50   C54   A    
C13   Br13  S    
C52   C72   A    
Cr8   O52   S    
C64   C68   A    
C5    Br9   S    
Cr10  O10   S    
Cr4   O44   S    
C39   C84   S    
Cr8   O20   S    
Cr5   O25   S    
C5    C6    S    
C30   C74   S    
C95   C99   S    
Cr5   O5    S    
C4    O24   A    
C94   C98   S    
C77   O49   A    
C48   O32   A    
C92   C96   S    
C47   C99   S    
C74   O38   A    
C3    C18   S    
C54   Cl6   S    
Cr2   O22   S    
C87   O15   A    
C35   Cl27  S    
C82   O10   A    
C22   Cl18  S    
C9    C13   A    
C34   Cl26  S    
C85   O13   A    
C52   C56   A    
C33   Cl25  S    
C80   O48   A    
C12   C16   A    
Cr5   O49   S    
C32   C76   S    
Cr7   O19   S    
Cr12  O36   S    
Cr6   O26   S    
C23   C27   A    
C91   C100  S    
Cr9   O37   S    
C52   Br4   S    
C90   C97   S    
C45   O33   A    
C10   H2    S    
C68   C72   A    
C27   Cl23  S    
C46   C98   S    
Cr11  O39   S    
C11   C31   A    
C18   C22   A    
C12   C32   A    
C77   O45   A    
C57   C80   S    
Cr2   O2    S    
C26   Cl22  S    
C8    C95   S    
C11   C15   A    
Cr8   O8    S    
C48   C100  S    
C59   C78   S    
Cr8   O32   S    
C72   C88   S    
C67   Cl11  S    
C90   C94   S    
C65   Cl9   S    
Cr3   O43   S    
C25   C29   A    
C74   O2    A    
Cr7   O51   S    
C60   C77   S    
C78   O50   A    
C73   O1    A    
C62   C66   A    
C27   C31   A    
C2    O22   A    
C21   Cl17  S    
C28   C32   A    
C3    O27   A    
C10   C14   A    
C83   O11   A    
C91   C92   S    
C53   C57   A    
C86   O14   A    
C39   C43   A    
C61   Br5   S    
C51   C55   A    
Cr7   O31   S    
C91   Cl15  S    
C76   O40   A    
C89   C93   S    
C17   C21   A    
C56   C60   A    
C81   O5    A    
C19   C23   A    
C43   C44   A    
Cr2   O18   S    
C63   C67   A    
Cr4   O48   S    
Cr10  O38   S    
Cr3   O23   S    
C11   H3    S    
C62   Br6   S    
C15   Br15  S    
C10   C30   A    
C93   C97   S    
C31   C75   S    
Cr6   O18   S    
C16   C20   A    
C6    C93   S    
Cr5   O29   S    
Cr6   O6    S    
C54   C58   A    
C33   C34   A    
C25   Cl21  S    
C75   O3    A    
C56   Cl8   S    
C76   O4    A    
Cr12  O16   S    
C51   Br3   S    
C86   O42   A    
C42   Cl30  S    
C7    C99   S    
C58   C79   S    
C63   Br7   S    
C71   C87   S    
C4    C17   S    
Cr9   O9    S    
C46   O34   A    
Cr8   O28   S    
C36   Cl28  S    
C78   O46   A    
C48   O36   A    
C38   C81   S    
Cr11  O11   S    
C2    O26   A    
C45   O29   A    
C37   C82   S    
Cr10  O18   S    
C3    O23   A    
C88   O16   A    
C7    Br11  S    
C70   C86   S    
C6    C98   S    
C6    Br10  S    
C1    O21   A    
Cr2   O46   S    
Cr5   O17   S    
C90   Cl14  S    
Cr11  O15   S    
C59   C63   A    
C21   C25   A    
C24   Cl20  S    
C1    C20   S    
Cr1   O21   S    
Cr4   O20   S    
C81   O9    A    
C2    C19   S    
C44   Cl32  S    
C55   Cl7   S    
C36   C39   A    
Cr3   O3    S    
C24   C28   A    
C79   O47   A    
Cr10  O34   S    
Cr11  O35   S    
C96   Cl4   S    
C4    O28   A    
C51   C71   A    
C75   O39   A    
C57   C61   A    
Cr1   O17   S    
C84   O8    A    
C16   Br16  S    
Cr10  O14   S    
Cr3   O47   S    
C33   C38   A    
Cr6   O30   S    
C60   C64   A    
C89   C98   S    
C50   Br2   S    
C79   O51   A    
Cr1   O45   S    
C35   C40   A    
C8    C100  S    
Cr12  O20   S    
Cr1   O1    S    
C47   O31   A    
C45   C97   S    
C89   Cl13  S    
C94   Cl2   S    
Cr9   O13   S    
C9    C29   A    
Cr11  O19   S    
C46   O30   A    
C53   Cl5   S    
Cr3   O19   S    
Cr6   O50   S    
C65   C69   A    
C96   C100  S    
C87   O43   A    
C8    Br12  S    
C67   C71   A    
C88   O44   A    
Cr9   O17   S    
C37   C41   A    
C20   C24   A    
Cr7   O27   S    
C82   O6    A    
C50   C70   A    
Cr12  O12   S    
C1    O25   A    
C41   Cl29  S    
C47   O35   A    
Cr1   O41   S    
C13   C17   A    
C64   Br8   S    
C38   C42   A    
C61   C65   A    
C5    C97   S    
C40   C44   A    
C29   C73   S    
C68   Cl12  S    
C28   Cl24  S    
C22   C26   A    
C23   Cl19  S    
C85   O41   A    
C9    H1    S    
C91   C95   S    
C49   C69   A    
C12   H4    S    
C89   C90   S    
C95   Cl3   S    
C80   O52   A    
C83   O7    A    
C92   Cl16  S    
C92   C99   S    
Cr4   O24   S    
Cr4   O4    S    
C26   C30   A    
