data_mof_unit_38895.cif
_audit_creation_date              2012-12-11T17:00:22-0500
_audit_creation_method            fapswitch 2.2
_symmetry_space_group_name_H-M    P1
_symmetry_Int_Tables_number       1
_space_group_crystal_system       triclinic
_cell_length_a                    6.981275
_cell_length_b                    13.776835
_cell_length_c                    20.12584
_cell_angle_alpha                 102.830098
_cell_angle_beta                  88.114254
_cell_angle_gamma                 91.017372
_cell_volume                      1886.24123448

loop_
_atom_site_label
_atom_site_type_symbol
_atom_type_description
_atom_site_fract_x
_atom_site_fract_y
_atom_site_fract_z
_atom_type_partial_charge
O1    O     O_R   0.506770 0.599700 0.449550 -0.524268
O2    O     O_R   0.179980 0.595740 0.587960 -0.515644
O3    O     O_R   0.004580 0.400300 0.550450 -0.531854
C1    C     C_R   0.346303 0.617386 0.615295 0.791675
O4    O     O_R   0.177380 0.611700 0.452380 -0.548545
O5    O     O_R   0.001970 0.416370 0.413900 -0.560016
C2    C     C_R   0.350294 0.637892 0.435435 0.739433
O6    O     O_R   0.509390 0.583630 0.586100 -0.504454
O7    O     O_3   0.337530 0.435890 0.487530 -0.396668
V1    V     V_3+5 0.064660 0.511890 0.502310 1.591033
O8    O     O_R   0.671950 0.404260 0.412040 -0.546347
C3    C     C_R   0.843592 0.382985 0.385180 0.672848
O9    O     O_R   0.674540 0.388300 0.547620 -0.535458
C4    C     C_R   0.841164 0.362484 0.564648 0.850173
V2    V     V_3+5 0.564030 0.488110 0.497690 1.594732
O10   O     O_3   0.841030 0.564110 0.512470 -0.330207
C5    C     C_R   0.827127 0.113268 0.612302 -0.202610
H1    H     H_    0.811212 0.035523 0.587195 0.187134
C6    C     C_R   0.844756 0.286367 0.605016 -0.209981
C7    C     C_R   0.800312 0.309908 0.930159 0.393516
C8    C     C_R   0.767844 0.382615 0.893721 -0.116103
C9    C     C_R   0.795053 0.361895 0.823195 -0.113015
C10   C     C_R   0.861957 0.268248 0.787325 0.064527
C11   C     C_R   0.900346 0.194563 0.824251 -0.168601
C12   C     C_R   0.873455 0.242559 0.714932 -0.046534
C13   C     C_R   0.869475 0.140854 0.681754 -0.150729
C14   C     C_R   0.924263 0.069815 0.717661 0.408004
C15   C     C_R   0.963114 0.100177 0.787142 0.331812
C16   C     C_R   0.891193 0.313436 0.674244 0.321477
C17   C     C_R   0.808141 0.186047 0.574229 0.384150
C18   C     C_R   0.867736 0.215723 0.896133 -0.183613
H2    H     H_    0.751110 0.417762 0.796859 0.215153
H3    H     H_    0.712549 0.454412 0.919824 0.180464
C19   C     C_R   0.768938 0.157690 0.241752 -0.032068
C20   C     C_R   0.858437 0.186007 0.184766 -0.073270
C21   C     C_R   0.966116 0.275644 0.197860 -0.053013
H4    H     H_    0.044551 0.298788 0.156588 0.189165
C22   C     C_R   0.968535 0.338053 0.263826 -0.088053
H5    H     H_    0.043949 0.408669 0.271508 0.176711
C23   C     C_R   0.863815 0.312475 0.318515 -0.070118
C24   C     C_R   0.778204 0.218436 0.307567 0.015003
C25   C     C_3   0.581985 0.194896 0.329248 -0.388731
C26   C     C_3   0.559897 0.140121 0.256515 0.311281
H6    H     H_    0.486911 0.260421 0.344924 0.210334
H7    H     H_    0.581997 0.144896 0.365651 0.139594
H8    H     H_    0.514925 0.061833 0.253733 0.035384
C27   C     C_R   0.503935 0.751107 0.703353 0.025920
C28   C     C_R   0.347306 0.688672 0.682827 -0.105267
C29   C     C_R   0.192844 0.693593 0.729816 -0.038182
H9    H     H_    0.074833 0.642838 0.717558 0.231105
C30   C     C_R   0.196346 0.757933 0.794801 -0.128855
H10   H     H_    0.077381 0.756220 0.830325 0.134826
C31   C     C_R   0.358183 0.818004 0.815553 -0.060578
C32   C     C_R   0.508724 0.816492 0.767460 -0.031712
C33   C     C_3   0.714934 0.796258 0.775174 -0.442791
C34   C     C_3   0.704321 0.720609 0.707917 0.655856
H11   H     H_    0.738262 0.763157 0.819812 0.181961
H12   H     H_    0.807149 0.862124 0.773078 0.221851
C35   C     C_R   0.596813 0.844998 0.372883 -0.236680
H13   H     H_    0.723840 0.939125 0.279284 0.107352
H14   H     H_    0.703606 0.902271 0.390550 0.142060
C36   C     C_R   0.382122 0.715350 0.396260 -0.171317
C37   C     C_R   0.232352 0.700482 0.076708 -0.279705
C38   C     C_R   0.207837 0.623050 0.110413 0.440489
C39   C     C_R   0.278861 0.631822 0.175994 0.319829
C40   C     C_R   0.366263 0.722783 0.209796 -0.045190
C41   C     C_R   0.421292 0.792702 0.169674 0.026492
C42   C     C_R   0.408640 0.746197 0.280790 0.128019
C43   C     C_R   0.541409 0.824166 0.305036 0.073413
C44   C     C_R   0.618668 0.881115 0.261404 -0.188840
C45   C     C_R   0.552354 0.869126 0.195868 -0.168792
C46   C     C_R   0.319397 0.697814 0.329049 -0.240764
C47   C     C_R   0.521601 0.790395 0.418252 0.465866
C48   C     C_R   0.344784 0.783672 0.104179 -0.141201
H15   H     H_    0.205162 0.644148 0.315047 0.182076
H16   H     H_    0.172169 0.693217 0.026836 0.170056
H17   H     H_    0.608182 0.919780 0.165934 0.117255
O11   O     O_R   0.203450 0.916320 0.913910 -0.523079
O12   O     O_R   0.535520 0.888300 0.047620 -0.546625
O13   O     O_R   0.710860 0.083650 0.086100 -0.532612
C49   C     C_R   0.364258 0.863094 0.065658 0.692764
O14   O     O_R   0.532860 0.904250 0.912040 -0.548800
O15   O     O_R   0.708190 0.099710 0.949550 -0.540644
C50   C     C_R   0.365557 0.881917 0.885193 0.709580
O16   O     O_R   0.206120 0.900260 0.050460 -0.549537
O17   O     O_3   0.375280 0.064080 0.012470 -0.379619
V3    V     V_3+5 0.648180 0.988110 0.997690 1.459660
O18   O     O_R   0.038220 0.111740 0.952370 -0.518940
C51   C     C_R   0.872148 0.136458 0.934318 0.855091
O19   O     O_R   0.040880 0.095790 0.087940 -0.570863
C52   C     C_R   0.870002 0.116996 0.115711 0.689906
V4    V     V_3+5 0.148800 0.011950 0.002300 1.464805
O20   O     O_3   0.871820 0.935920 0.987530 -0.376313
O21   O     O_3   0.760523 0.158960 0.506357 -0.557683
C53   C     C_3   0.925565 0.121995 0.467184 -0.285314
H18   H     H_    0.976954 0.052805 0.480350 0.148746
H19   H     H_    0.042248 0.179165 0.473000 0.137237
H20   H     H_    0.888705 0.102738 0.412628 0.155100
O22   O     O_3   0.447128 0.197058 0.223370 -0.532816
C54   C     C_3   0.341934 0.134082 0.173583 -0.057021
H21   H     H_    0.208373 0.111375 0.197613 0.091660
H22   H     H_    0.417984 0.065584 0.147214 0.097965
H23   H     H_    0.313050 0.177553 0.135052 0.198194
Cl1   Cl    Cl    0.714332 0.594882 0.717799 -0.642036
O23   O     O_3   0.946970 0.971325 0.684757 -0.529491
C55   C     C_3   0.133027 0.957506 0.654926 -0.149614
H24   H     H_    0.233123 0.938165 0.691599 0.162030
H25   H     H_    0.190104 0.022403 0.635439 0.088776
H26   H     H_    0.126887 0.893656 0.610691 0.178732
Cl2   Cl    Cl    0.848478 0.747265 0.639493 -0.624406
O24   O     O_3   0.604525 0.803156 0.481181 -0.530871
C56   C     C_3   0.474553 0.852546 0.531901 -0.218645
H27   H     H_    0.352508 0.802706 0.538920 0.102304
H28   H     H_    0.422429 0.922852 0.520394 0.118344
H29   H     H_    0.549215 0.872743 0.580961 0.196291
Cl3   Cl    Cl    0.299680 0.520745 0.205390 -0.602648
Cl4   Cl    Cl    0.092425 0.513611 0.067544 -0.500382
Cl5   Cl    Cl    0.025268 0.423889 0.703947 -0.626121
Cl6   Cl    Cl    0.742204 0.336826 0.018249 -0.536948
O25   O     O_3   0.083081 0.042611 0.815318 -0.550371
C57   C     C_3   0.268235 0.087089 0.817087 -0.159468
H30   H     H_    0.273662 0.157942 0.856334 0.156453
H31   H     H_    0.316409 0.100979 0.766637 0.099321
H32   H     H_    0.374085 0.036672 0.830555 0.129653

loop_
_geom_bond_atom_site_label_1
_geom_bond_atom_site_label_2
_ccdc_geom_bond_type
O15   V3    S    
C33   C34   S    
C24   C25   S    
O23   C55   S    
C40   C42   A    
C53   H18   S    
C1    O6    A    
C29   C30   A    
C56   H28   S    
C53   H20   S    
C31   C32   A    
C13   C14   A    
C9    H2    S    
C31   C50   S    
C5    C13   A    
C21   H4    S    
C26   O22   S    
O13   V3    S    
O5    C3    A    
C22   H5    S    
C8    H3    S    
C55   H24   S    
C14   O23   S    
V2    O10   S    
C19   C20   A    
V4    O20   S    
C57   H32   S    
O8    V2    S    
C27   C28   A    
C42   C43   A    
C18   C51   S    
C10   C11   A    
C36   C47   A    
C44   C45   A    
O1    V2    S    
O9    C4    A    
O7    V1    S    
C35   C47   A    
C40   C41   A    
O12   V3    S    
C5    C17   A    
C43   C44   A    
C19   C24   A    
C25   H6    S    
C46   H15   S    
C34   Cl2   S    
C56   H27   S    
O16   V4    S    
C47   O24   S    
C12   C16   A    
O15   C51   A    
C35   H14   S    
C30   H10   S    
O18   V4    S    
C56   H29   S    
C34   Cl1   S    
C15   O25   S    
O12   C49   A    
O17   V3    S    
O11   V4    S    
C12   C13   A    
C54   H23   S    
C38   Cl4   S    
C30   C31   A    
C25   H7    S    
C3    C23   S    
O2    C1    A    
C2    C36   S    
O19   V4    S    
O22   C54   S    
H13   C44   S    
C42   C46   A    
C54   H22   S    
C5    H1    S    
C36   C46   A    
C41   C48   A    
O18   C51   A    
C57   H30   S    
O3    C4    A    
C35   C43   A    
C27   C32   A    
C28   C29   A    
C29   H9    S    
O6    V2    S    
O14   C50   A    
O9    V2    S    
C39   Cl3   S    
C25   C26   S    
C48   C49   S    
O2    V1    S    
C45   H17   S    
O25   C57   S    
O4    C2    A    
C1    C28   S    
C32   C33   S    
C23   C24   A    
O24   C56   S    
O1    C2    A    
C4    C6    S    
C19   C26   S    
C11   C15   A    
O5    V1    S    
O8    C3    A    
C53   H19   S    
C37   C48   A    
C16   Cl5   S    
C38   C39   A    
O13   C52   A    
C33   H11   S    
O7    V2    S    
C11   C18   A    
O4    V1    S    
C17   O21   S    
O3    V1    S    
V1    O10   S    
C22   C23   A    
O19   C52   A    
C55   H25   S    
V3    O20   S    
C21   C22   A    
C54   H21   S    
C41   C45   A    
C10   C12   A    
O21   C53   S    
C26   H8    S    
C57   H31   S    
C37   C38   A    
O11   C50   A    
C7    C8    A    
C39   C40   A    
C37   H16   S    
C33   H12   S    
C14   C15   A    
C9    C10   A    
O17   V4    S    
C20   C21   A    
C8    C9    A    
C6    C17   A    
C55   H26   S    
C7    Cl6   S    
C49   O16   A    
O14   V3    S    
C20   C52   S    
C27   C34   S    
C7    C18   A    
C6    C16   A    
