data_mof_unit_21099.cif
_audit_creation_date              2012-12-10T18:07:37-0500
_audit_creation_method            fapswitch 2.2
_symmetry_space_group_name_H-M    P1
_symmetry_Int_Tables_number       1
_space_group_crystal_system       triclinic
_cell_length_a                    11.512446
_cell_length_b                    12.633529
_cell_length_c                    13.197122
_cell_angle_alpha                 82.05307
_cell_angle_beta                  91.777207
_cell_angle_gamma                 101.7123
_cell_volume                      1861.40483154

loop_
_atom_site_label
_atom_site_type_symbol
_atom_type_description
_atom_site_fract_x
_atom_site_fract_y
_atom_site_fract_z
_atom_type_partial_charge
C1    C     C_R   0.481299 0.439024 0.690988 0.953947
C2    C     C_R   0.417267 0.651268 0.897062 0.555710
C3    C     C_R   0.401757 0.563995 0.840692 0.505534
C4    C     C_R   0.717546 0.500520 0.500281 0.861354
C5    C     C_R   0.536739 0.524978 0.133386 0.660121
C6    C     C_R   0.497648 0.700684 0.160270 -0.285472
C7    C     C_R   0.474016 0.402368 0.801201 -0.284797
C8    C     C_R   0.352034 0.099040 0.330232 0.606406
C9    C     C_R   0.652555 0.801758 0.618318 -0.152727
C10   C     C_R   0.712758 0.909071 0.614548 0.547576
C11   C     C_R   0.670733 0.990189 0.549744 0.425817
C12   C     C_R   0.521280 0.598419 0.199504 -0.207500
C13   C     C_R   0.555418 0.966015 0.506800 -0.113717
C14   C     C_R   0.510447 0.855704 0.497536 0.089686
C15   C     C_R   0.492244 0.046064 0.460734 -0.191318
C16   C     C_R   0.514676 0.560935 0.308955 0.906718
C17   C     C_R   0.408064 0.018734 0.382692 -0.198667
C18   C     C_R   0.378060 0.910497 0.362262 0.645045
C19   C     C_R   0.424399 0.829638 0.422679 -0.247974
C20   C     C_R   0.499926 0.147861 0.496746 0.619418
C21   C     C_R   0.372454 0.201708 0.361187 -0.155399
C22   C     C_R   0.282459 0.499541 0.499550 0.898546
C23   C     C_R   0.509936 0.304905 0.840135 0.481711
C24   C     C_1   0.838456 0.501361 0.500457 -0.166102
C25   C     C_1   0.940695 0.500641 0.500159 0.024918
C26   C     C_1   0.059269 0.499242 0.499548 0.020595
C27   C     C_1   0.161538 0.498644 0.499255 -0.141245
C28   C     C_R   0.472279 0.722838 0.056715 -0.063480
C29   C     C_3   0.646703 0.215426 0.610371 0.034914
C30   C     C_3   0.784233 0.076991 0.412559 -0.246693
C31   C     C_3   0.787253 0.477884 0.005887 -0.216760
C32   C     C_3   0.568459 0.148293 0.048112 -0.110373
C33   C     C_3   0.215223 0.494622 0.790063 -0.248755
C34   C     C_R   0.572689 0.298848 0.931790 0.326078
C35   C     C_R   0.597300 0.390561 0.983522 0.462457
C36   C     C_R   0.528138 0.472882 0.961278 -0.155978
C37   C     C_R   0.465994 0.478955 0.867622 -0.275183
C38   C     C_R   0.519128 0.549020 0.028251 -0.075487
C39   C     C_R   0.473616 0.643712 0.992128 -0.156825
F1    F     F_    0.298044 0.880792 0.288403 -0.605429
F2    F     F_    0.276991 0.078706 0.250658 -0.595186
F3    F     F_    0.819568 0.931950 0.661662 -0.610569
F4    F     F_    0.364012 0.736668 0.864624 -0.617519
F5    F     F_    0.549121 0.422856 0.173516 -0.638217
F6    F     F_    0.494413 0.219789 0.785618 -0.582504
H1    H     H_    0.487351 0.758923 0.210662 0.199502
H2    H     H_    0.814819 0.999893 0.406584 0.178936
H3    H     H_    0.859065 0.145694 0.389061 0.211475
H4    H     H_    0.766326 0.560896 0.994216 0.156594
H5    H     H_    0.813287 0.455972 0.932101 0.142484
H6    H     H_    0.864877 0.480248 0.058062 0.198738
H7    H     H_    0.472105 0.119938 0.033405 0.181433
H8    H     H_    0.581260 0.194226 0.115064 0.187180
H9    H     H_    0.607579 0.074749 0.068170 0.172089
H10   H     H_    0.177435 0.521455 0.856587 0.171476
H11   H     H_    0.225101 0.408258 0.808459 0.161852
H12   H     H_    0.689807 0.736942 0.660867 0.179459
H13   H     H_    0.150754 0.498583 0.726160 0.189410
H14   H     H_    0.394756 0.747922 0.406447 0.215036
H15   H     H_    0.442540 0.797796 0.029317 0.222081
H16   H     H_    0.331363 0.264926 0.320387 0.195564
H17   H     H_    0.645648 0.287323 0.649025 0.161974
H18   H     H_    0.697318 0.243393 0.538142 0.151658
H19   H     H_    0.696076 0.164076 0.663210 0.194890
H20   H     H_    0.709790 0.085876 0.358470 0.148366
N1    N     N_R   0.440320 0.222190 0.444690 -0.175192
N2    N     N_R   0.559060 0.776980 0.554780 -0.131119
O1    O     O_R   0.471500 0.366730 0.627160 -0.551502
O2    O     O_3   0.752402 0.082889 0.513757 -0.623270
O3    O     O_3   0.691675 0.399510 0.051557 -0.532433
O4    O     O_3   0.626425 0.210866 0.960434 -0.557134
O5    O     O_3   0.323902 0.563699 0.758667 -0.553157
O6    O     O_R   0.509620 0.544830 0.662520 -0.584744
O7    O     O_R   0.646490 0.410960 0.482310 -0.640806
O8    O     O_R   0.684610 0.589050 0.517670 -0.608151
O9    O     O_R   0.490380 0.455170 0.337480 -0.548337
O10   O     O_R   0.528500 0.633270 0.372840 -0.648162
O11   O     O_R   0.315390 0.410950 0.482330 -0.612754
O12   O     O_R   0.353510 0.589040 0.517690 -0.586287
O13   O     O_3   0.530151 0.156241 0.598516 -0.549824
Zn1   Zn    Zn3+2 0.474550 0.381080 0.476390 1.019992
Zn2   Zn    Zn3+2 0.525450 0.618920 0.523610 0.980004

loop_
_geom_bond_atom_site_label_1
_geom_bond_atom_site_label_2
_ccdc_geom_bond_type
C33   H10   S    
C29   H18   S    
C33   H13   S    
C23   F6    S    
C21   N1    A    
C10   F3    S    
O6    Zn2   S    
C35   C36   A    
C26   C27   T    
O1    Zn1   S    
C20   N1    A    
C36   C37   A    
C22   O12   A    
C18   C19   A    
C6    C12   A    
C38   C39   A    
C4    C24   S    
C1    O1    A    
C34   C35   A    
C18   F1    S    
C32   H7    S    
C4    O8    A    
C33   O5    S    
C2    C39   A    
C31   O3    S    
C6    C28   A    
C12   C16   S    
C35   O3    S    
C14   N2    A    
C9    C10   A    
C4    O7    A    
C33   H11   S    
C29   H19   S    
C1    C7    S    
C13   C14   A    
C31   H4    S    
C32   H9    S    
C8    C21   A    
C32   O4    S    
C28   H15   S    
C15   C20   A    
C20   O13   S    
C30   H2    S    
C8    F2    S    
C22   O11   A    
C5    C12   A    
C28   C39   A    
C19   H14   S    
C25   C26   S    
C9    N2    A    
C2    F4    S    
C23   C34   A    
C17   C18   A    
C7    C37   A    
C24   C25   T    
C5    F5    S    
C22   C27   S    
C13   C15   A    
C31   H5    S    
C32   H8    S    
C30   O2    S    
C30   H3    S    
C15   C17   A    
C29   H17   S    
C6    H1    S    
C16   O9    A    
C21   H16   S    
C14   C19   A    
C31   H6    S    
O9    Zn1   S    
O12   Zn2   S    
C11   O2    S    
O8    Zn2   S    
C8    C17   A    
C1    O6    A    
C36   C38   A    
C2    C3    A    
N1    Zn1   S    
C11   C13   A    
O11   Zn1   S    
C29   O13   S    
O10   Zn2   S    
C7    C23   A    
C3    O5    S    
C9    H12   S    
C30   H20   S    
C10   C11   A    
C3    C37   A    
N2    Zn2   S    
C16   O10   A    
O7    Zn1   S    
C5    C38   A    
C34   O4    S    
