data_mof_unit_7396.cif
_audit_creation_date              2012-12-10T18:48:40-0500
_audit_creation_method            fapswitch 2.2
_symmetry_space_group_name_H-M    P1
_symmetry_Int_Tables_number       1
_space_group_crystal_system       triclinic
_cell_length_a                    15.126934
_cell_length_b                    14.877194
_cell_length_c                    9.938134
_cell_angle_alpha                 90.435235
_cell_angle_beta                  89.888664
_cell_angle_gamma                 89.692719
_cell_volume                      2236.43950841

loop_
_atom_site_label
_atom_site_type_symbol
_atom_type_description
_atom_site_fract_x
_atom_site_fract_y
_atom_site_fract_z
_atom_type_partial_charge
C1    C     C_R   0.119299 0.379811 0.499627 1.086038
C2    C     C_R   0.986521 0.422080 0.927064 0.172942
C3    C     C_R   0.989132 0.421719 0.071142 0.130715
C4    C     C_R   0.008499 0.578717 0.928554 0.142110
C5    C     C_R   0.509645 0.078672 0.073500 0.169291
C6    C     C_R   0.486529 0.922078 0.927065 0.172973
C7    C     C_R   0.489181 0.921711 0.071143 0.130729
C8    C     C_R   0.508488 0.078717 0.928555 0.142104
C9    C     C_R   0.825782 0.236491 0.420861 0.520338
C10   C     C_R   0.174260 0.763378 0.579024 0.517068
C11   C     C_R   0.260847 0.672349 0.420552 0.536844
C12   C     C_R   0.880887 0.620225 0.500346 1.106658
C13   C     C_R   0.739352 0.327380 0.579715 0.548869
C14   C     C_R   0.161401 0.223423 0.498486 0.436217
C15   C     C_R   0.839122 0.776350 0.500154 0.471539
C16   C     C_R   0.726700 0.658872 0.499560 0.552127
C17   C     C_R   0.273776 0.341024 0.499880 0.543948
C18   C     C_R   0.325778 0.736500 0.420836 0.520347
C19   C     C_R   0.674250 0.263387 0.579007 0.517061
C20   C     C_R   0.760849 0.172342 0.420574 0.536860
C21   C     C_R   0.239362 0.827369 0.579734 0.548894
C22   C     C_R   0.661400 0.723426 0.498428 0.436339
C23   C     C_R   0.880674 0.379768 0.499868 1.107002
C24   C     C_R   0.339122 0.276351 0.500078 0.471502
C25   C     C_R   0.226703 0.158870 0.499625 0.552216
C26   C     C_R   0.773777 0.841024 0.499953 0.543824
C27   C     C_R   0.185833 0.686120 0.500257 -0.549365
C28   C     C_R   0.814379 0.313614 0.500003 -0.532813
C29   C     C_R   0.814630 0.686173 0.500861 -0.542128
C30   C     C_R   0.185727 0.313758 0.498979 -0.540220
C31   C     C_R   0.685829 0.186123 0.500258 -0.549347
C32   C     C_R   0.314381 0.813614 0.500003 -0.532867
C33   C     C_R   0.314632 0.186174 0.500859 -0.542151
C34   C     C_R   0.119434 0.620104 0.500171 1.121949
C35   C     C_R   0.685727 0.813760 0.498981 -0.540206
C36   C     C_3   0.095468 0.712186 0.138255 -0.644182
C37   C     C_3   0.029374 0.279542 0.819751 -0.620928
C38   C     C_3   0.060373 0.287753 0.158120 -0.539380
C39   C     C_3   0.934342 0.715235 0.856531 -0.598319
C40   C     C_3   0.595403 0.212187 0.138325 -0.644189
C41   C     C_3   0.529233 0.779538 0.819579 -0.620910
C42   C     C_3   0.560673 0.787888 0.158060 -0.540290
C43   C     C_3   0.434346 0.215240 0.856488 -0.598274
C44   C     C_R   0.619301 0.879813 0.499627 1.086221
C45   C     C_R   0.380889 0.120226 0.500346 1.106623
C46   C     C_R   0.380674 0.879768 0.499868 1.106988
C47   C     C_R   0.619431 0.120106 0.500171 1.121924
C48   C     C_R   0.009678 0.578668 0.073501 0.169349
F1    F     F_    0.900650 0.222184 0.348361 -0.582172
F2    F     F_    0.598919 0.278088 0.650299 -0.582792
F3    F     F_    0.771536 0.096430 0.345255 -0.550744
F4    F     F_    0.228573 0.903370 0.654824 -0.551845
F5    F     F_    0.575235 0.698334 0.495855 -0.592016
F6    F     F_    0.425517 0.300845 0.499019 -0.568837
F7    F     F_    0.204923 0.070394 0.498500 -0.554315
F8    F     F_    0.795606 0.929479 0.500692 -0.553122
F9    F     F_    0.098934 0.778074 0.650327 -0.582784
F10   F     F_    0.271526 0.596445 0.345211 -0.550681
F11   F     F_    0.728557 0.403389 0.654784 -0.551872
F12   F     F_    0.075237 0.198326 0.495956 -0.592035
F13   F     F_    0.925517 0.800843 0.499163 -0.568824
F14   F     F_    0.704918 0.570396 0.498371 -0.554332
F15   F     F_    0.295604 0.429478 0.500556 -0.553096
F16   F     F_    0.400637 0.722208 0.348305 -0.582114
H1    H     H_    0.957279 0.696706 0.156817 0.236059
H2    H     H_    0.062154 0.230426 0.086641 0.204369
H3    H     H_    0.061669 0.259108 0.260283 0.307488
H4    H     H_    0.120540 0.329343 0.143835 0.208752
H5    H     H_    0.071036 0.695496 0.869988 0.267341
H6    H     H_    0.931153 0.757359 0.948867 0.202004
H7    H     H_    0.874030 0.673083 0.849636 0.224801
H8    H     H_    0.935607 0.760762 0.768742 0.303729
H9    H     H_    0.457207 0.196733 0.156655 0.236043
H10   H     H_    0.585142 0.270239 0.070571 0.225835
H11   H     H_    0.651682 0.170279 0.101532 0.244590
H12   H     H_    0.085158 0.770262 0.070561 0.225872
H13   H     H_    0.612472 0.239557 0.238958 0.255085
H14   H     H_    0.402476 0.814812 0.887042 0.222089
H15   H     H_    0.518400 0.715141 0.872464 0.222834
H16   H     H_    0.596412 0.805293 0.843043 0.223877
H17   H     H_    0.524596 0.764785 0.710734 0.295133
H18   H     H_    0.426403 0.801480 0.114533 0.250931
H19   H     H_    0.562819 0.730910 0.085990 0.204003
H20   H     H_    0.561793 0.758777 0.259937 0.307545
H21   H     H_    0.620746 0.829734 0.144559 0.209350
H22   H     H_    0.571040 0.195491 0.869986 0.267321
H23   H     H_    0.151726 0.670294 0.101347 0.244586
H24   H     H_    0.431221 0.257482 0.948709 0.202081
H25   H     H_    0.374023 0.173086 0.849799 0.224704
H26   H     H_    0.435561 0.260653 0.768566 0.303696
H27   H     H_    0.112600 0.739522 0.238883 0.255040
H28   H     H_    0.902544 0.314771 0.886941 0.222095
H29   H     H_    0.018519 0.215151 0.872635 0.222808
H30   H     H_    0.096519 0.305330 0.843357 0.223807
H31   H     H_    0.024853 0.264764 0.710904 0.295158
H32   H     H_    0.926117 0.301619 0.114578 0.250774
N1    N     N_R   0.000000 0.500000 0.857200 -0.118948
N2    N     N_2   0.460727 0.843535 0.855402 -0.271778
N3    N     N_2   0.480084 0.839774 0.141963 -0.238327
N4    N     N_2   0.513526 0.160139 0.855689 -0.232926
N5    N     N_R   0.000000 0.500000 0.142800 -0.121313
N6    N     N_R   0.500000 0.000000 0.857200 -0.118921
N7    N     N_R   0.500000 0.000000 0.142800 -0.121331
N8    N     N_2   0.015102 0.660189 0.148530 -0.261691
N9    N     N_2   0.960804 0.343516 0.855383 -0.271690
N10   N     N_2   0.979889 0.339798 0.141959 -0.238527
N11   N     N_2   0.013525 0.660139 0.855688 -0.232880
N12   N     N_2   0.515027 0.160198 0.148524 -0.261629
O1    O     O_R   0.091610 0.408380 0.614620 -0.629378
O2    O     O_R   0.408390 0.091620 0.385380 -0.626230
O3    O     O_R   0.408390 0.091620 0.614620 -0.593785
O4    O     O_R   0.591610 0.908380 0.385380 -0.598870
O5    O     O_R   0.408390 0.908380 0.385380 -0.590351
O6    O     O_R   0.591610 0.091620 0.614620 -0.592533
O7    O     O_R   0.591610 0.091620 0.385380 -0.579313
O8    O     O_R   0.408390 0.908380 0.614620 -0.582663
O9    O     O_R   0.908390 0.591620 0.385380 -0.626299
O10   O     O_R   0.908390 0.591620 0.614620 -0.593787
O11   O     O_R   0.091610 0.408380 0.385380 -0.598917
O12   O     O_R   0.908390 0.408380 0.385380 -0.590432
O13   O     O_R   0.091610 0.591620 0.614620 -0.592527
O14   O     O_R   0.091610 0.591620 0.385380 -0.579262
O15   O     O_R   0.908390 0.408380 0.614620 -0.582668
O16   O     O_R   0.591610 0.908380 0.614620 -0.629446
Zn1   Zn    Zn3+2 0.000000 0.500000 0.653120 1.040138
Zn2   Zn    Zn3+2 0.000000 0.500000 0.346880 1.042938
Zn3   Zn    Zn3+2 0.500000 0.000000 0.653120 1.040127
Zn4   Zn    Zn3+2 0.500000 0.000000 0.346880 1.042961

loop_
_geom_bond_atom_site_label_1
_geom_bond_atom_site_label_2
_ccdc_geom_bond_type
C10   C27   A    
C47   O6    A    
C5    N7    A    
C11   C18   A    
C38   N10   S    
C12   C29   S    
C33   C45   S    
H18   N3    S    
C19   C31   A    
C41   H16   S    
H5    N11   S    
O5    Zn4   S    
C47   O7    A    
C22   C35   A    
C43   H25   S    
C7    N3    S    
C43   H24   S    
C6    N2    S    
C20   F3    S    
O12   Zn2   S    
O15   Zn1   S    
C24   F6    S    
C48   N8    S    
C37   H31   S    
C1    O11   A    
C36   H12   S    
C1    O1    A    
C38   H2    S    
C2    N1    A    
O8    Zn3   S    
H14   N2    S    
C39   H8    S    
C13   C28   A    
O10   Zn1   S    
C11   F10   S    
H22   N4    S    
O9    Zn2   S    
C40   N12   S    
C3    N5    A    
C27   C34   S    
C31   C47   S    
C4    N1    A    
C17   C30   A    
C16   F14   S    
C14   C30   A    
C21   C32   A    
C15   C29   A    
C22   F5    S    
C36   H23   S    
C4    N11   S    
C17   C24   A    
C13   C19   A    
C37   H29   S    
C43   H26   S    
C10   F9    S    
C42   H20   S    
C43   N4    S    
N1    Zn1   S    
N6    Zn3   S    
C23   O12   A    
C45   O2    A    
C15   C26   A    
C23   O15   A    
C37   N9    S    
C44   O16   A    
O7    Zn4   S    
O14   Zn2   S    
C39   N11   S    
O13   Zn1   S    
N7    Zn4   S    
C26   C35   A    
C9    C20   A    
C11   C27   A    
C41   H17   S    
N5    Zn2   S    
C15   F13   S    
C9    F1    S    
C42   H21   S    
C23   C28   S    
C35   C44   S    
O16   Zn3   S    
C12   O10   A    
C44   O4    A    
C36   H27   S    
O1    Zn1   S    
C38   H4    S    
C34   O13   A    
O3    Zn3   S    
C18   C32   A    
C4    C48   A    
H32   N10   S    
C16   C22   A    
C46   O5    A    
C40   H13   S    
C32   C46   S    
C42   H19   S    
C25   F7    S    
H9    N12   S    
C26   F8    S    
C10   C21   A    
C41   H15   S    
C5    C8    A    
C45   O3    A    
C6    C7    A    
C13   F11   S    
C14   F12   S    
C2    N9    S    
C24   C33   A    
C40   H11   S    
C46   O8    A    
C36   N8    S    
C3    N10   S    
C16   C29   A    
C42   N3    S    
C17   F15   S    
O6    Zn3   S    
C19   F2    S    
C18   F16   S    
C48   N5    A    
C1    C30   S    
C39   H6    S    
C40   H10   S    
C37   H30   S    
C2    C3    A    
C6    N6    A    
C14   C25   A    
C8    N4    S    
O4    Zn4   S    
C12   O9    A    
O11   Zn2   S    
H28   N9    S    
C38   H3    S    
C34   O14   A    
O2    Zn4   S    
C39   H7    S    
C41   N2    S    
C7    N7    A    
H1    N8    S    
C8    N6    A    
C5    N12   S    
C21   F4    S    
C9    C28   A    
C25   C33   A    
C20   C31   A    
