data_mof_unit_9394.cif
_audit_creation_date              2012-12-11T15:52:13-0500
_audit_creation_method            fapswitch 2.2
_symmetry_space_group_name_H-M    P1
_symmetry_Int_Tables_number       1
_space_group_crystal_system       triclinic
_cell_length_a                    10.967523
_cell_length_b                    10.96754
_cell_length_c                    18.821573
_cell_angle_alpha                 89.999907
_cell_angle_beta                  90.000145
_cell_angle_gamma                 120.000216
_cell_volume                      1960.66494338

loop_
_atom_site_label
_atom_site_type_symbol
_atom_type_description
_atom_site_fract_x
_atom_site_fract_y
_atom_site_fract_z
_atom_type_partial_charge
C1    C     C_R   0.519717 0.458457 0.147464 0.536023
C2    C     C_R   0.541543 0.061260 0.147463 0.536023
C3    C     C_R   0.938739 0.480283 0.147464 0.536025
C4    C     C_R   0.451795 0.523117 0.855510 0.543545
C5    C     C_R   0.071324 0.548206 0.855511 0.543546
C6    C     C_R   0.476883 0.928676 0.855510 0.543549
C7    C     C_3   0.708373 0.953603 0.539431 -0.269753
C8    C     C_3   0.046417 0.754772 0.539428 -0.269749
C9    C     C_3   0.245229 0.291629 0.539430 -0.269754
C10   C     C_3   0.032728 0.745101 0.459575 -0.280328
C11   C     C_3   0.712383 0.967282 0.459577 -0.280328
C12   C     C_3   0.254897 0.287620 0.459576 -0.280329
C13   C     C_R   0.522282 0.453858 0.356011 0.545884
C14   C     C_R   0.546142 0.068424 0.356011 0.545884
C15   C     C_R   0.931574 0.477717 0.356011 0.545884
C16   C     C_R   0.458393 0.517304 0.647011 0.546415
C17   C     C_R   0.058911 0.541607 0.647011 0.546413
C18   C     C_R   0.482696 0.941089 0.647011 0.546413
C19   C     C_R   0.485543 0.955604 0.931290 0.018831
C20   C     C_R   0.044398 0.529937 0.931291 0.018832
C21   C     C_R   0.470063 0.514458 0.931291 0.018830
C22   C     C_R   0.008127 0.502636 0.079047 0.010516
C23   C     C_R   0.494505 0.991870 0.079047 0.010515
C24   C     C_R   0.497365 0.505492 0.079048 0.010516
C25   C     C_R   0.398854 0.997867 0.963768 -0.000871
C26   C     C_R   0.002135 0.400985 0.963769 -0.000872
C27   C     C_R   0.599017 0.601150 0.963770 -0.000873
C28   C     C_R   0.982147 0.386990 0.036495 0.005646
C29   C     C_R   0.404835 0.017844 0.036495 0.005643
C30   C     C_R   0.613011 0.595159 0.036496 0.005644
C31   C     C_R   0.562202 0.925309 0.048165 -0.160648
C32   C     C_R   0.074686 0.636893 0.048164 -0.160650
C33   C     C_R   0.363107 0.437792 0.048164 -0.160647
C34   C     C_R   0.091150 0.650211 0.974629 -0.146690
C35   C     C_R   0.559059 0.908846 0.974629 -0.146692
C36   C     C_R   0.349788 0.440936 0.974628 -0.146692
C37   C     C_3   0.387701 0.125444 0.949029 -0.282385
C38   C     C_3   0.874563 0.262254 0.949029 -0.282386
C39   C     C_3   0.737748 0.612308 0.949030 -0.282387
C40   C     C_3   0.851359 0.246943 0.028622 -0.242670
C41   C     C_3   0.395561 0.148627 0.028626 -0.242665
C42   C     C_3   0.753058 0.604420 0.028623 -0.242669
C43   C     C_R   0.513474 0.014325 0.579463 0.015779
C44   C     C_R   0.985677 0.499150 0.579462 0.015779
C45   C     C_R   0.500851 0.486528 0.579462 0.015780
C46   C     C_R   0.960379 0.485242 0.431386 0.016262
C47   C     C_R   0.524861 0.039618 0.431386 0.016260
C48   C     C_R   0.514756 0.475140 0.431386 0.016261
C49   C     C_R   0.633064 0.036390 0.541833 0.030229
C50   C     C_R   0.963616 0.596677 0.541833 0.030228
C51   C     C_R   0.403325 0.366938 0.541833 0.030229
C52   C     C_R   0.952302 0.589552 0.469509 0.042760
C53   C     C_R   0.637250 0.047698 0.469510 0.042762
C54   C     C_R   0.410447 0.362753 0.469509 0.042762
C55   C     C_R   0.417008 0.045227 0.469318 -0.160647
C56   C     C_R   0.954771 0.371781 0.469318 -0.160647
C57   C     C_R   0.628219 0.582994 0.469317 -0.160647
C58   C     C_R   0.965867 0.378016 0.543684 -0.166185
C59   C     C_R   0.412149 0.034133 0.543685 -0.166188
C60   C     C_R   0.621984 0.587853 0.543684 -0.166185
Cr1   Cr    Cr6+3 0.769160 0.541570 0.250690 1.006709
Cr2   Cr    Cr6+3 0.458430 0.227590 0.250690 1.006710
Cr3   Cr    Cr6+3 0.772410 0.230840 0.250690 1.006710
Cr4   Cr    Cr6+3 0.541570 0.769160 0.749310 1.006807
Cr5   Cr    Cr6+3 0.227590 0.458430 0.749310 1.006806
Cr6   Cr    Cr6+3 0.230840 0.772410 0.749310 1.006806
H1    H     H_    0.480550 0.208548 0.920006 0.130796
H2    H     H_    0.791467 0.271993 0.919994 0.130800
H3    H     H_    0.728009 0.519471 0.919997 0.130800
H4    H     H_    0.863517 0.160262 0.051585 0.147541
H5    H     H_    0.296701 0.136443 0.051581 0.147522
H6    H     H_    0.839739 0.703261 0.051586 0.147539
H7    H     H_    0.334808 0.053051 0.441675 0.131027
H8    H     H_    0.946948 0.281758 0.441676 0.131026
H9    H     H_    0.718243 0.665193 0.441675 0.131026
H10   H     H_    0.971008 0.294873 0.572034 0.121261
H11   H     H_    0.323864 0.028992 0.572033 0.121263
H12   H     H_    0.705128 0.676138 0.572033 0.121263
O1    O     O_R   0.911480 0.572650 0.170990 -0.528993
O2    O     O_R   0.427350 0.338830 0.170990 -0.528994
O3    O     O_R   0.661170 0.088520 0.170990 -0.528991
O4    O     O_R   0.572650 0.911480 0.829010 -0.528459
O5    O     O_R   0.338830 0.427350 0.829010 -0.528459
O6    O     O_R   0.088520 0.661170 0.829010 -0.528458
O7    O     O_R   0.640340 0.528970 0.175680 -0.500673
O8    O     O_R   0.471030 0.111370 0.175680 -0.500674
O9    O     O_R   0.888630 0.359660 0.175680 -0.500672
O10   O     O_R   0.528970 0.640340 0.824320 -0.501052
O11   O     O_R   0.111370 0.471030 0.824320 -0.501053
O12   O     O_R   0.359660 0.888630 0.824320 -0.501054
O13   O     O_R   0.909980 0.572450 0.331530 -0.518502
O14   O     O_R   0.427550 0.337530 0.331530 -0.518501
O15   O     O_R   0.662470 0.090020 0.331530 -0.518501
O16   O     O_R   0.572450 0.909980 0.668470 -0.523123
O17   O     O_R   0.337530 0.427550 0.668470 -0.523123
O18   O     O_R   0.090020 0.662470 0.668470 -0.523122
O19   O     O_R   0.638950 0.528780 0.324500 -0.507156
O20   O     O_R   0.471220 0.110170 0.324500 -0.507156
O21   O     O_R   0.889830 0.361050 0.324500 -0.507157
O22   O     O_R   0.528780 0.638950 0.675500 -0.508593
O23   O     O_R   0.110170 0.471220 0.675500 -0.508593
O24   O     O_R   0.361050 0.889830 0.675500 -0.508593
O25   O     O_3   0.666667 0.333333 0.250560 -0.249176
O26   O     O_3   0.333333 0.666667 0.749440 -0.248619
H13   H     H_    0.628671 0.899060 0.079578 0.134397
H14   H     H_    0.100933 0.729611 0.079576 0.134397
H15   H     H_    0.270388 0.371320 0.079575 0.134398
H16   H     H_    0.135618 0.754225 0.951618 0.148286
H17   H     H_    0.618601 0.864375 0.951618 0.148287
H18   H     H_    0.245776 0.381389 0.951616 0.148287
H19   H     H_    0.283787 0.098461 0.926096 0.141976
H20   H     H_    0.901554 0.185322 0.926104 0.141973
H21   H     H_    0.814680 0.716231 0.926105 0.141974
H22   H     H_    0.755339 0.249287 0.045295 0.145994
H23   H     H_    0.493913 0.244653 0.045310 0.146014
H24   H     H_    0.750716 0.506058 0.045297 0.145998
H25   H     H_    0.640635 0.843287 0.556902 0.168685
H26   H     H_    0.156734 0.797339 0.556896 0.168683
H27   H     H_    0.202651 0.359366 0.556901 0.168684
H28   H     H_    0.967030 0.787547 0.438231 0.134427
H29   H     H_    0.820524 0.032983 0.438231 0.134428
H30   H     H_    0.212457 0.179480 0.438229 0.134429
H31   H     H_    0.814298 0.010658 0.564462 0.126416
H32   H     H_    0.989376 0.803655 0.564462 0.126419
H33   H     H_    0.196359 0.185704 0.564461 0.126415
H34   H     H_    0.134614 0.781631 0.431686 0.136447
H35   H     H_    0.647030 0.865390 0.431692 0.136445
H36   H     H_    0.218359 0.352974 0.431692 0.136445

loop_
_geom_bond_atom_site_label_1
_geom_bond_atom_site_label_2
_ccdc_geom_bond_type
C38   C40   S    
C45   C60   A    
C6    O4    A    
C55   C59   A    
Cr6   O24   S    
C11   H35   S    
C33   H15   S    
Cr5   O23   S    
C10   C52   S    
C59   H11   S    
C8    H26   S    
C48   C57   A    
Cr6   O12   S    
C5    C20   S    
C48   C54   A    
C6    C19   S    
Cr2   O8    S    
C60   H12   S    
C22   C32   A    
Cr3   O3    S    
C37   C41   S    
C23   C29   A    
Cr2   O2    S    
Cr1   O25   S    
C8    H32   S    
C49   C53   A    
Cr5   O5    S    
C45   C51   A    
C46   C52   A    
C33   C36   A    
C18   O24   A    
C7    H25   S    
Cr3   O21   S    
C25   C37   S    
Cr2   O20   S    
C40   H22   S    
C44   C58   A    
C39   H21   S    
Cr2   O14   S    
C50   C52   A    
C14   O15   A    
C11   C53   S    
C43   C59   A    
C47   C53   A    
Cr3   O9    S    
C21   C27   A    
C47   C55   A    
C3    O1    A    
C22   C28   A    
C27   C30   A    
C25   C29   A    
C31   H13   S    
C11   H29   S    
C41   H23   S    
C14   O20   A    
C39   C42   S    
C1    O7    A    
C43   C49   A    
C56   H8    S    
C3    O9    A    
Cr6   O26   S    
C7    C49   S    
Cr3   O25   S    
C27   C39   S    
C21   C36   A    
C5    O6    A    
C26   C38   S    
C57   C60   A    
C6    O12   A    
Cr6   O6    S    
C9    H33   S    
C17   O23   A    
C23   C31   A    
Cr5   O11   S    
C7    C11   S    
Cr5   O17   S    
C42   H6    S    
C39   H3    S    
Cr1   O19   S    
C17   O18   A    
Cr4   O4    S    
Cr1   O7    S    
C12   H36   S    
C42   H24   S    
C38   H2    S    
C13   O14   A    
C36   H18   S    
C9    H27   S    
C31   C35   A    
C12   C54   S    
C38   H20   S    
C8    C50   S    
Cr6   O18   S    
Cr2   O25   S    
C44   C50   A    
Cr4   O26   S    
C16   O17   A    
C29   C41   S    
C58   H10   S    
C16   O22   A    
C7    H31   S    
C3    C22   S    
C35   H17   S    
C16   C45   S    
C13   C48   S    
C14   C47   S    
C4    O10   A    
Cr3   O15   S    
C40   H4    S    
C26   C28   A    
C24   C33   A    
C15   C46   S    
C41   H5    S    
C51   C54   A    
C34   H16   S    
C9    C51   S    
C57   H9    S    
C17   C44   S    
Cr4   O16   S    
C19   C35   A    
C18   C43   S    
C15   O21   A    
C4    C21   S    
C4    O5    A    
C20   C26   A    
Cr1   O1    S    
C18   O16   A    
C37   H1    S    
C56   C58   A    
C2    O8    A    
C13   O19   A    
C19   C25   A    
C9    C12   S    
C24   C30   A    
C37   H19   S    
C10   H28   S    
C15   O13   A    
C20   C34   A    
C55   H7    S    
Cr4   O22   S    
C12   H30   S    
C1    C24   S    
C8    C10   S    
C46   C56   A    
C2    C23   S    
C1    O2    A    
C28   C40   S    
C30   C42   S    
C2    O3    A    
C32   H14   S    
Cr5   O26   S    
C10   H34   S    
Cr4   O10   S    
C5    O11   A    
Cr1   O13   S    
C32   C34   A    
