data_mof_unit_64133.cif
_audit_creation_date              2012-12-10T21:36:31-0500
_audit_creation_method            fapswitch 2.2
_symmetry_space_group_name_H-M    P1
_symmetry_Int_Tables_number       1
_space_group_crystal_system       triclinic
_cell_length_a                    10.512115
_cell_length_b                    16.122073
_cell_length_c                    16.64063
_cell_angle_alpha                 86.342327
_cell_angle_beta                  90.016498
_cell_angle_gamma                 92.087244
_cell_volume                      2812.58758984

loop_
_atom_site_label
_atom_site_type_symbol
_atom_type_description
_atom_site_fract_x
_atom_site_fract_y
_atom_site_fract_z
_atom_type_partial_charge
C1    C     C_R   0.499671 0.487809 0.653282 0.929915
C2    C     C_R   0.500326 0.512190 0.346718 0.929902
C3    C     C_R   0.467762 0.464533 0.906511 0.214051
C4    C     C_R   0.532177 0.535449 0.093481 0.214037
C5    C     C_R   0.546413 0.411312 0.868308 -0.199598
C6    C     C_R   0.453576 0.588701 0.131682 -0.199584
C7    C     C_R   0.558366 0.417617 0.784964 0.240362
C8    C     C_R   0.441643 0.582402 0.215028 0.240386
C9    C     C_R   0.430053 0.763672 0.467156 0.013637
C10   C     C_R   0.569918 0.236326 0.532868 0.013617
C11   C     C_R   0.434296 0.850776 0.468854 -0.252059
C12   C     C_R   0.565676 0.149222 0.531170 -0.252066
C13   C     C_R   0.528009 0.890754 0.515146 0.324965
C14   C     C_R   0.471993 0.109246 0.484851 0.324964
C15   C     C_R   0.614215 0.840714 0.558434 -0.279975
C16   C     C_R   0.385816 0.159288 0.441539 -0.279969
C17   C     C_R   0.606557 0.753883 0.555009 0.016730
C18   C     C_R   0.393472 0.246119 0.444966 0.016728
C19   C     C_R   0.742664 0.499594 0.500041 0.899950
C20   C     C_R   0.257336 0.500406 0.499959 0.899933
C21   C     C_3   0.955313 0.420934 0.494140 -0.173045
C22   C     C_3   0.044688 0.579067 0.505858 -0.173058
C23   C     C_3   0.040319 0.451290 0.563281 -0.195784
C24   C     C_3   0.959682 0.548711 0.436717 -0.195794
C25   C     C_3   0.122702 0.501122 0.499953 -0.039315
C26   C     C_3   0.877298 0.498879 0.500046 -0.039318
C27   C     C_3   0.039783 0.471237 0.431738 0.198640
C28   C     C_3   0.960218 0.528764 0.568260 0.198631
C29   C     C_R   0.489213 0.477601 0.740011 -0.156224
C30   C     C_R   0.510775 0.522396 0.259987 -0.156269
C31   C     C_R   0.405613 0.528023 0.778322 -0.298136
C32   C     C_R   0.594328 0.471942 0.221676 -0.298090
C33   C     C_R   0.393688 0.521353 0.861436 0.297956
C34   C     C_R   0.606231 0.478604 0.138560 0.297951
H1    H     H_    0.077341 0.412500 0.615028 0.168741
H2    H     H_    0.922659 0.587502 0.384971 0.168738
H3    H     H_    0.687394 0.868948 0.594704 0.158775
H4    H     H_    0.312660 0.131056 0.405249 0.158780
H5    H     H_    0.673610 0.715959 0.588539 0.136257
H6    H     H_    0.326442 0.284045 0.411418 0.136263
H7    H     H_    0.915508 0.356788 0.488751 0.164439
H8    H     H_    0.084493 0.643213 0.511247 0.164432
H9    H     H_    0.650260 0.427339 0.256459 0.194274
H10   H     H_    0.349659 0.572605 0.743541 0.194257
H11   H     H_    0.603547 0.368103 0.903843 0.218851
H12   H     H_    0.396458 0.631928 0.096144 0.218831
H13   H     H_    0.641719 0.266688 0.568434 0.173011
H14   H     H_    0.358227 0.733309 0.431610 0.172989
H15   H     H_    0.634887 0.114012 0.565778 0.169094
H16   H     H_    0.365061 0.885984 0.434266 0.169090
N1    N     N_2   0.475187 0.466441 0.990271 -0.111924
N2    N     N_2   0.524745 0.533540 0.009722 -0.111947
N3    N     N_R   0.515540 0.716920 0.509720 -0.096263
N4    N     N_R   0.484460 0.283080 0.490280 -0.096265
N5    N     N_2   0.539599 0.979400 0.520186 -0.174085
N6    N     N_2   0.460404 0.020600 0.479810 -0.174082
O1    O     O_R   0.494440 0.422540 0.612660 -0.580627
O2    O     O_R   0.505560 0.577460 0.387340 -0.580613
O3    O     O_R   0.504420 0.561850 0.618900 -0.623353
O4    O     O_R   0.495580 0.438150 0.381100 -0.623369
O5    O     O_R   0.681060 0.430360 0.496900 -0.625263
O6    O     O_R   0.318940 0.569640 0.503100 -0.625280
O7    O     O_R   0.691040 0.569670 0.503140 -0.627594
O8    O     O_R   0.308960 0.430330 0.496860 -0.627581
Zn1   Zn    Zn3+2 0.493340 0.406980 0.495830 0.970788
Zn2   Zn    Zn3+2 0.506660 0.593020 0.504170 0.970793
C35   C     C_3   0.088327 0.438914 0.353957 -0.837647
H17   H     H_    0.006533 0.423760 0.314661 0.253647
H18   H     H_    0.151307 0.487078 0.322190 0.263959
H19   H     H_    0.142682 0.382044 0.367685 0.234364
C36   C     C_3   0.911678 0.561090 0.646039 -0.837609
H20   H     H_    0.993479 0.576257 0.685330 0.253640
H21   H     H_    0.857302 0.617954 0.632306 0.234353
H22   H     H_    0.848712 0.512924 0.677814 0.263981
Br1   Br    Br    0.722278 0.408595 0.088405 -0.452510
Br2   Br    Br    0.277598 0.591321 0.911597 -0.452497
Br3   Br    Br    0.678584 0.348625 0.736899 -0.518974
Br4   Br    Br    0.321456 0.651421 0.263091 -0.518938

loop_
_geom_bond_atom_site_label_1
_geom_bond_atom_site_label_2
_ccdc_geom_bond_type
C14   N6    S    
N5    N6    D    
C7    C29   A    
C24   C27   S    
C21   C26   S    
C12   H15   S    
N4    Zn1   S    
C24   H2    S    
C4    N2    S    
C24   C26   S    
C1    O3    A    
O3    Zn2   S    
C2    O4    A    
C20   C25   S    
C3    C33   A    
C17   H5    S    
C19   C26   S    
C18   H6    S    
C15   H3    S    
O2    Zn2   S    
C19   O7    A    
C22   C25   S    
C31   C33   A    
C34   Br1   S    
C7    Br3   S    
C21   C27   S    
O7    Zn2   S    
C22   C28   S    
C8    Br4   S    
C4    C34   A    
C31   H10   S    
O6    Zn2   S    
C35   H17   S    
C4    C6    A    
C5    C7    A    
C3    N1    S    
C6    C8    A    
C5    H11   S    
N1    N2    D    
C35   H18   S    
C32   C34   A    
C20   O8    A    
C1    O1    A    
C33   Br2   S    
C1    C29   S    
C23   C28   S    
N3    Zn2   S    
C9    C11   A    
C10   C12   A    
C21   H7    S    
C12   C14   A    
O4    Zn1   S    
C23   H1    S    
C13   C15   A    
C14   C16   A    
C28   C36   S    
C9    N3    A    
C17   N3    A    
C36   H21   S    
C15   C17   A    
C6    H12   S    
O1    Zn1   S    
C3    C5    A    
C36   H22   S    
C2    O2    A    
C25   C27   S    
C26   C28   S    
C2    C30   S    
C35   H19   S    
C8    C30   A    
O8    Zn1   S    
C21   C23   S    
C36   H20   S    
C29   C31   A    
C11   H16   S    
C30   C32   A    
C11   C13   A    
C22   H8    S    
C19   O5    A    
C32   H9    S    
C22   C24   S    
C23   C25   S    
C20   O6    A    
C10   N4    A    
C27   C35   S    
C18   N4    A    
O5    Zn1   S    
C9    H14   S    
C16   C18   A    
C10   H13   S    
C16   H4    S    
C13   N5    S    
