data_mof_unit_18209.cif
_audit_creation_date              2012-12-10T22:11:09-0500
_audit_creation_method            fapswitch 2.2
_symmetry_space_group_name_H-M    P1
_symmetry_Int_Tables_number       1
_space_group_crystal_system       triclinic
_cell_length_a                    12.14363
_cell_length_b                    12.298396
_cell_length_c                    22.970793
_cell_angle_alpha                 91.019032
_cell_angle_beta                  90.657489
_cell_angle_gamma                 91.065579
_cell_volume                      3429.24801831

loop_
_atom_site_label
_atom_site_type_symbol
_atom_type_description
_atom_site_fract_x
_atom_site_fract_y
_atom_site_fract_z
_atom_type_partial_charge
C1    C     C_R   0.656165 0.998542 0.579660 0.867874
C2    C     C_R   0.343835 0.001458 0.420340 0.867874
C3    C     C_R   0.896125 0.804383 0.131155 -0.203631
C4    C     C_R   0.103875 0.195617 0.868845 -0.203631
C5    C     C_R   0.089895 0.852062 0.194215 -0.187161
C6    C     C_R   0.910105 0.147939 0.805785 -0.187161
C7    C     C_R   0.088537 0.770892 0.151968 -0.196837
C8    C     C_R   0.911464 0.229109 0.848032 -0.196837
C9    C     C_R   0.899397 0.154742 0.189982 -0.160497
C10   C     C_R   0.100603 0.845257 0.810018 -0.160504
C11   C     C_R   0.900402 0.237470 0.150180 -0.202452
C12   C     C_R   0.099598 0.762530 0.849820 -0.202449
C13   C     C_R   0.107497 0.916116 0.324758 -0.151786
C14   C     C_R   0.892503 0.083883 0.675242 -0.151787
C15   C     C_R   0.189350 0.913083 0.366913 -0.208026
C16   C     C_R   0.810651 0.086916 0.633086 -0.208026
C17   C     C_R   0.877426 0.109043 0.325392 0.143452
C18   C     C_R   0.122574 0.890957 0.674608 0.143451
C19   C     C_R   0.798053 0.100969 0.368397 -0.222956
C20   C     C_R   0.201947 0.899031 0.631602 -0.222956
C21   C     C_3   0.996929 0.009476 0.247595 -0.111220
C22   C     C_3   0.003071 0.990524 0.752405 -0.111220
C23   C     C_R   0.654836 0.001924 0.420858 0.879815
C24   C     C_R   0.345164 0.998076 0.579142 0.879815
C25   C     C_R   0.096767 0.007375 0.288797 0.126395
C26   C     C_R   0.903233 0.992624 0.711203 0.126395
C27   C     C_R   0.261018 0.002074 0.374800 -0.017988
C28   C     C_R   0.738982 0.997926 0.625200 -0.017988
C29   C     C_R   0.899207 0.014418 0.289770 0.084481
C30   C     C_R   0.100793 0.985582 0.710230 0.084481
C31   C     C_R   0.738860 0.004691 0.376769 -0.054616
C32   C     C_R   0.261140 0.995309 0.623231 -0.054615
C33   C     C_R   0.997408 0.101511 0.204418 0.127954
C34   C     C_R   0.002591 0.898489 0.795582 0.127956
C35   C     C_R   0.998165 0.265022 0.122085 -0.024317
C36   C     C_R   0.001835 0.734978 0.877915 -0.024313
C37   C     C_R   0.993627 0.909838 0.206743 0.127946
C38   C     C_R   0.006373 0.090162 0.793257 0.127946
C39   C     C_R   0.991928 0.746752 0.120223 -0.022133
C40   C     C_R   0.008072 0.253248 0.879777 -0.022133
C41   C     C_R   0.992983 0.661701 0.075722 0.867061
C42   C     C_R   0.007017 0.338299 0.924278 0.867060
C43   C     C_R   0.998911 0.351354 0.080276 0.869315
C44   C     C_R   0.001089 0.648646 0.919724 0.869314
C45   C     C_R   0.172605 0.094928 0.296246 -0.212562
C46   C     C_R   0.827395 0.905072 0.703754 -0.212562
C47   C     C_R   0.253311 0.092313 0.339078 -0.195682
C48   C     C_R   0.746689 0.907687 0.660922 -0.195682
C49   C     C_R   0.840053 0.916826 0.301273 -0.224766
C50   C     C_R   0.159947 0.083174 0.698727 -0.224766
C51   C     C_R   0.760095 0.912654 0.343314 -0.205699
C52   C     C_R   0.239906 0.087345 0.656687 -0.205699
C53   C     C_R   0.092155 0.122556 0.171397 -0.172624
C54   C     C_R   0.907845 0.877444 0.828604 -0.172624
C55   C     C_R   0.093550 0.205858 0.131838 -0.205072
C56   C     C_R   0.906450 0.794142 0.868162 -0.205074
C57   C     C_R   0.897492 0.886477 0.173278 -0.159420
C58   C     C_R   0.102507 0.113523 0.826722 -0.159419
H1    H     H_    0.309565 0.161302 0.344398 0.152415
H2    H     H_    0.690434 0.838699 0.655602 0.152415
H3    H     H_    0.857915 0.840451 0.279837 0.152414
H4    H     H_    0.142086 0.159548 0.720163 0.152415
H5    H     H_    0.165892 0.075561 0.177088 0.139861
H6    H     H_    0.834108 0.924439 0.822912 0.139862
H7    H     H_    0.823473 0.932716 0.179626 0.136883
H8    H     H_    0.176527 0.067283 0.820374 0.136883
H9    H     H_    0.168065 0.871313 0.215281 0.144819
H10   H     H_    0.831936 0.128688 0.784718 0.144820
H11   H     H_    0.821552 0.133057 0.209428 0.130293
H12   H     H_    0.178447 0.866942 0.790572 0.130293
H13   H     H_    0.051356 0.847010 0.320418 0.139781
H14   H     H_    0.948645 0.152989 0.679581 0.139782
H15   H     H_    0.716138 0.836582 0.350220 0.160630
H16   H     H_    0.283863 0.163417 0.649781 0.160630
H17   H     H_    0.168574 0.222679 0.108302 0.157106
H18   H     H_    0.831426 0.777321 0.891698 0.157106
H19   H     H_    0.821092 0.787750 0.106371 0.154247
H20   H     H_    0.178908 0.212249 0.893629 0.154247
H21   H     H_    0.163990 0.727834 0.143803 0.157742
H22   H     H_    0.836011 0.272168 0.856196 0.157742
H23   H     H_    0.824629 0.279685 0.141479 0.155596
H24   H     H_    0.175371 0.720315 0.858520 0.155595
H25   H     H_    0.194679 0.842494 0.394289 0.152378
H26   H     H_    0.805322 0.157505 0.605710 0.152378
H27   H     H_    0.783787 0.170525 0.396733 0.156650
H28   H     H_    0.216212 0.829476 0.603266 0.156650
H29   H     H_    0.169552 0.167753 0.270954 0.137765
H30   H     H_    0.830447 0.832247 0.729047 0.137765
O1    O     O_R   0.621380 0.090460 0.561410 -0.629734
O2    O     O_R   0.378620 0.909540 0.438590 -0.629734
O3    O     O_R   0.617150 0.909540 0.438590 -0.625907
O4    O     O_R   0.382850 0.090460 0.561410 -0.625907
O5    O     O_R   0.619720 0.093230 0.440890 -0.635504
O6    O     O_R   0.380280 0.906770 0.559110 -0.635504
O7    O     O_R   0.618800 0.906770 0.559110 -0.627128
O8    O     O_R   0.381200 0.093230 0.440890 -0.627128
O9    O     O_R   0.087590 0.627480 0.058790 -0.627773
O10   O     O_R   0.912410 0.372520 0.941210 -0.627772
O11   O     O_R   0.905660 0.383870 0.059980 -0.626511
O12   O     O_R   0.094340 0.616130 0.940020 -0.626511
O13   O     O_R   0.092570 0.390420 0.063230 -0.630701
O14   O     O_R   0.907430 0.609580 0.936770 -0.630701
O15   O     O_R   0.900680 0.620930 0.055550 -0.628795
O16   O     O_R   0.099320 0.379070 0.944450 -0.628794
Zn1   Zn    Zn3+2 0.501730 0.123520 0.501540 0.934991
Zn2   Zn    Zn3+2 0.498270 0.876480 0.498460 0.934991
Zn3   Zn    Zn3+2 0.125690 0.504390 0.002180 0.936358
Zn4   Zn    Zn3+2 0.874310 0.495610 0.997820 0.936358
C59   C     C_3   0.937903 0.218696 0.323234 -0.430027
C60   C     C_3   0.859872 0.312804 0.310045 -0.350638
C61   C     C_3   0.924033 0.416279 0.294930 -0.877003
H31   H     H_    0.980624 0.440910 0.331348 0.260076
H32   H     H_    0.972536 0.402959 0.254786 0.265795
H33   H     H_    0.865727 0.483129 0.287164 0.247191
H34   H     H_    0.803801 0.290500 0.273069 0.225575
H35   H     H_    0.808316 0.330810 0.348522 0.214302
H36   H     H_    0.979152 0.234942 0.366062 0.199667
H37   H     H_    0.003368 0.220561 0.291149 0.222336
C62   C     C_3   0.062096 0.781304 0.676766 -0.430025
C63   C     C_3   0.140127 0.687196 0.689955 -0.350640
C64   C     C_3   0.075965 0.583718 0.705063 -0.877015
H38   H     H_    0.027450 0.597035 0.745204 0.265797
H39   H     H_    0.019385 0.559088 0.668641 0.260077
H40   H     H_    0.134270 0.516870 0.712833 0.247194
H41   H     H_    0.191690 0.669195 0.651481 0.214304
H42   H     H_    0.196190 0.709496 0.726935 0.225577
H43   H     H_    0.996631 0.779439 0.708850 0.222334
H44   H     H_    0.020848 0.765058 0.633937 0.199670

loop_
_geom_bond_atom_site_label_1
_geom_bond_atom_site_label_2
_ccdc_geom_bond_type
C16   C28   A    
O8    Zn1   S    
O13   Zn3   S    
C56   H18   S    
C23   O3    A    
C5    C37   A    
C53   H5    S    
C17   C29   A    
C61   H31   S    
C5    H9    S    
C19   C31   A    
C43   O13   A    
C59   H36   S    
C39   C41   S    
C29   C49   A    
C11   H23   S    
O11   Zn4   S    
C45   H29   S    
C43   O11   A    
C60   H35   S    
C52   H16   S    
C42   O10   A    
C63   H42   S    
C21   C33   S    
C22   C38   S    
C16   H26   S    
O10   Zn4   S    
C2    O2    A    
C60   C61   S    
C32   C52   A    
C64   H40   S    
O5    Zn1   S    
C38   C58   A    
C11   C35   A    
C58   H8    S    
O6    Zn2   S    
C4    C40   A    
C49   C51   A    
C20   H28   S    
C1    C28   S    
C50   C52   A    
C6    C38   A    
O14   Zn4   S    
O15   Zn4   S    
C18   C30   A    
C12   C36   A    
C35   C43   S    
C18   C20   A    
C55   H17   S    
C62   H44   S    
C45   C47   A    
C30   C50   A    
C3    C39   A    
C9    C33   A    
O3    Zn2   S    
C13   C25   A    
C24   O4    A    
C59   H37   S    
C48   H2    S    
C46   H30   S    
C53   C55   A    
C33   C53   A    
C22   C34   S    
C46   C48   A    
C49   H3    S    
C35   C55   A    
O2    Zn2   S    
C10   C34   A    
C31   C51   A    
C5    C7    A    
C44   O14   A    
C63   H41   S    
C15   H25   S    
C13   H13   S    
C21   C29   S    
C23   O5    A    
C42   O16   A    
C23   C31   S    
C24   C32   S    
C4    H20   S    
C36   C56   A    
O7    Zn2   S    
C24   O6    A    
C15   C27   A    
C1    O7    A    
C12   H24   S    
C61   H32   S    
C14   C26   A    
C9    C11   A    
C64   H38   S    
C2    C27   S    
C10   C12   A    
C10   H12   S    
C34   C54   A    
C13   C15   A    
C9    H11   S    
C14   C16   A    
C36   C44   S    
O1    Zn1   S    
C3    H19   S    
C25   C45   A    
C63   C64   S    
C7    H21   S    
C20   C32   A    
C27   C47   A    
C21   C25   S    
C28   C48   A    
O12   Zn3   S    
C1    O1    A    
C22   C30   S    
C14   H14   S    
C51   H15   S    
C57   H7    S    
C40   C42   S    
C19   H27   S    
C17   C59   S    
C6    C8    A    
C62   C63   S    
C54   C56   A    
C2    O8    A    
C59   C60   S    
C44   O12   A    
C54   H6    S    
C50   H4    S    
C18   C62   S    
C6    H10   S    
C17   C19   A    
C3    C57   A    
C61   H33   S    
C41   O9    A    
C64   H39   S    
C26   C46   A    
C47   H1    S    
O9    Zn3   S    
C41   O15   A    
O4    Zn1   S    
C21   C37   S    
C22   C26   S    
C4    C58   A    
C8    H22   S    
C7    C39   A    
C8    C40   A    
C60   H34   S    
O16   Zn3   S    
C37   C57   A    
C62   H43   S    
