data_mof_unit_13547.cif
_audit_creation_date              2012-12-10T16:57:03-0500
_audit_creation_method            fapswitch 2.2
_symmetry_space_group_name_H-M    P1
_symmetry_Int_Tables_number       1
_space_group_crystal_system       triclinic
_cell_length_a                    7.759019
_cell_length_b                    8.633946
_cell_length_c                    16.558265
_cell_angle_alpha                 91.814334
_cell_angle_beta                  80.785885
_cell_angle_gamma                 93.615176
_cell_volume                      1092.50035024

loop_
_atom_site_label
_atom_site_type_symbol
_atom_type_description
_atom_site_fract_x
_atom_site_fract_y
_atom_site_fract_z
_atom_type_partial_charge
C1    C     C_R   0.545745 0.794417 0.498063 0.873902
C2    C     C_R   0.388540 0.499081 0.218470 0.555695
C3    C     C_R   0.530688 0.255692 0.833363 0.564462
C4    C     C_R   0.387054 0.450952 0.137791 0.566262
C5    C     C_R   0.391545 0.303403 0.891652 -0.086931
C6    C     C_R   0.525289 0.367033 0.095935 -0.090062
C7    C     C_R   0.275817 0.407623 0.870757 -0.169407
C8    C     C_R   0.669409 0.341581 0.133492 -0.193052
C9    C     C_R   0.306179 0.472955 0.793771 -0.227028
C10   C     C_R   0.671524 0.390499 0.213906 -0.212940
C11   C     C_2   0.388750 0.276383 0.978207 -0.033462
C12   C     C_R   0.454229 0.205595 0.502160 0.871372
C13   C     C_2   0.532328 0.320999 0.010077 -0.085571
C14   C     C_2   0.570214 0.956769 0.497350 0.305085
C15   C     C_2   0.429705 0.043290 0.503325 0.292177
C16   C     C_R   0.475836 0.491930 0.654331 0.928227
C17   C     C_R   0.521989 0.495400 0.345123 0.927083
C18   C     C_R   0.452754 0.434485 0.737332 -0.263575
C19   C     C_R   0.529388 0.466288 0.257510 -0.274124
C20   C     C_R   0.562400 0.321943 0.756782 0.538409
F1    F     F_    0.698037 0.273384 0.701442 -0.590805
F2    F     F_    0.252785 0.578126 0.257993 -0.606343
F3    F     F_    0.254193 0.492107 0.100129 -0.648526
F4    F     F_    0.639665 0.149788 0.852027 -0.620477
F5    F     F_    0.738723 0.016928 0.490611 -0.598445
F6    F     F_    0.261161 0.983154 0.510280 -0.605158
H1    H     H_    0.781949 0.364301 0.242633 0.222418
H2    H     H_    0.217215 0.555495 0.778800 0.207296
H3    H     H_    0.023001 0.380470 0.439461 0.224339
H4    H     H_    0.977005 0.619559 0.560518 0.222360
H5    H     H_    0.657198 0.342448 0.970569 0.184003
H6    H     H_    0.263194 0.257232 0.017295 0.190865
H7    H     H_    0.168641 0.445805 0.915689 0.207695
H8    H     H_    0.779308 0.281946 0.100825 0.197633
N1    N     N_2   0.953500 0.457650 0.478520 -0.117318
N2    N     N_2   0.046500 0.542350 0.521480 -0.123772
O1    O     O_R   0.388470 0.738640 0.505270 -0.571939
O2    O     O_R   0.611530 0.261360 0.494730 -0.563493
O3    O     O_R   0.679650 0.711510 0.491500 -0.581387
O4    O     O_R   0.320350 0.288490 0.508500 -0.585690
O5    O     O_R   0.337210 0.515200 0.623500 -0.619771
O6    O     O_R   0.662790 0.484800 0.376500 -0.621411
O7    O     O_R   0.628380 0.488060 0.609730 -0.572076
O8    O     O_R   0.371620 0.511940 0.390270 -0.574338
Zn1   Zn    Zn3+2 0.305580 0.518120 0.509190 1.075217
Zn2   Zn    Zn3+2 0.694420 0.481880 0.490810 1.082599

loop_
_geom_bond_atom_site_label_1
_geom_bond_atom_site_label_2
_ccdc_geom_bond_type
C10   H1    S    
C2    F2    S    
C2    C4    A    
C12   O4    A    
C1    O1    A    
C11   C13   D    
H3    N1    S    
N1    N2    D    
C12   C15   S    
H4    N2    S    
C10   C19   A    
C17   O8    A    
N2    Zn1   S    
C8    H8    S    
C20   F1    S    
C6    C13   S    
C7    H7    S    
C16   O7    A    
C3    F4    S    
O3    Zn2   S    
C4    C6    A    
C17   C19   S    
C11   H6    S    
C5    C11   S    
C18   C20   A    
C14   F5    S    
C12   O2    A    
O4    Zn1   S    
O7    Zn2   S    
O2    Zn2   S    
C1    O3    A    
O1    Zn1   S    
C7    C9    A    
C9    C18   A    
C3    C20   A    
O8    Zn1   S    
C16   C18   S    
O6    Zn2   S    
C5    C7    A    
C4    F3    S    
O5    Zn1   S    
C14   C15   D    
C15   F6    S    
C6    C8    A    
C1    C14   S    
C2    C19   A    
C17   O6    A    
N1    Zn2   S    
C16   O5    A    
C13   H5    S    
C8    C10   A    
C9    H2    S    
C3    C5    A    
