data_mof_unit_7383.cif
_audit_creation_date              2012-12-10T17:29:14-0500
_audit_creation_method            fapswitch 2.2
_symmetry_space_group_name_H-M    P1
_symmetry_Int_Tables_number       1
_space_group_crystal_system       triclinic
_cell_length_a                    12.054314
_cell_length_b                    12.875356
_cell_length_c                    13.003574
_cell_angle_alpha                 87.06237
_cell_angle_beta                  113.03966
_cell_angle_gamma                 93.697395
_cell_volume                      1852.6084968

loop_
_atom_site_label
_atom_site_type_symbol
_atom_type_description
_atom_site_fract_x
_atom_site_fract_y
_atom_site_fract_z
_atom_type_partial_charge
C1    C     C_R   0.477075 0.299509 0.497592 0.895466
C2    C     C_R   0.610572 0.498700 0.829701 -0.082689
C3    C     C_R   0.532643 0.812039 0.493040 -0.063032
C4    C     C_R   0.566699 0.498340 0.708618 0.860561
C5    C     C_R   0.462035 0.188117 0.491318 -0.065852
C6    C     C_R   0.339177 0.029414 0.467284 -0.241318
C7    C     C_R   0.350655 0.136753 0.474670 -0.187729
C8    C     C_R   0.561440 0.132875 0.499666 -0.280490
C9    C     C_R   0.551128 0.026404 0.493255 0.180713
C10   C     C_R   0.439332 0.974245 0.477467 0.180544
C11   C     C_R   0.430509 0.867424 0.475731 -0.301682
C12   C     C_R   0.567091 0.525915 0.991914 0.136698
C13   C     C_R   0.642751 0.863639 0.505591 -0.202528
C14   C     C_R   0.651825 0.971275 0.505131 -0.219798
C15   C     C_R   0.019902 0.614807 0.418367 -0.279843
C16   C     C_R   0.521749 0.700488 0.499131 0.852197
C17   C     C_R   0.137566 0.602850 0.424461 -0.044847
C18   C     C_R   0.150326 0.445188 0.530955 0.544530
C19   C     C_R   0.031601 0.454536 0.527510 0.009555
C20   C     C_R   0.966290 0.541098 0.470539 -0.065991
C21   C     C_R   0.848618 0.551900 0.467255 -0.035476
C22   C     C_R   0.860196 0.396909 0.576178 -0.148488
C23   C     C_R   0.551540 0.554436 0.882120 0.030535
C24   C     C_R   0.977262 0.381177 0.581469 0.394430
C25   C     C_R   0.435102 0.511727 0.291818 0.890340
C26   C     C_R   0.338751 0.685190 0.032106 0.513711
C27   C     C_R   0.403458 0.548088 0.176354 -0.222498
C28   C     C_R   0.703291 0.433217 0.892847 -0.183732
C29   C     C_R   0.731977 0.417741 0.006597 -0.138129
C30   C     C_R   0.662881 0.461499 0.055779 -0.176506
C31   C     C_3   0.388040 0.842437 0.765123 0.087240
C32   C     C_3   0.507694 0.896916 0.841230 -0.431746
C33   C     C_3   0.560100 0.969814 0.773683 -0.889412
C34   C     C_R   0.484920 0.561068 0.033319 -0.048216
C35   C     C_3   0.350705 0.864027 0.031879 0.142994
C36   C     C_3   0.338856 0.903996 0.136055 -0.343691
C37   C     C_3   0.400281 0.012055 0.165529 -0.958961
C38   C     C_R   0.411102 0.645708 0.980056 -0.159527
C39   C     C_R   0.412302 0.687907 0.877580 0.518481
C40   C     C_R   0.477249 0.636925 0.827059 -0.331619
C41   C     C_R   0.471780 0.509414 0.124437 -0.275084
C42   C     C_R   0.333886 0.635807 0.129272 0.322608
H1    H     H_    0.721750 0.821093 0.517619 0.167391
H2    H     H_    0.517809 0.438558 0.159236 0.173957
H3    H     H_    0.751056 0.391803 0.853584 0.151648
H4    H     H_    0.687640 0.446356 0.144322 0.138232
H5    H     H_    0.804493 0.368240 0.055806 0.149589
H6    H     H_    0.472660 0.662801 0.745572 0.167146
H7    H     H_    0.344465 0.827724 0.464104 0.159362
H8    H     H_    0.304721 0.674862 0.258069 0.329246
H9    H     H_    0.987399 0.253072 0.670852 0.316685
H10   H     H_    0.321678 0.903737 0.728577 0.175740
H11   H     H_    0.395027 0.807798 0.691714 0.140173
H12   H     H_    0.253191 0.989602 0.455349 0.148746
H13   H     H_    0.491726 0.943241 0.903320 0.214855
H14   H     H_    0.575647 0.839065 0.887108 0.222104
H15   H     H_    0.584345 0.924318 0.715935 0.274780
H16   H     H_    0.643049 0.011520 0.831060 0.261124
H17   H     H_    0.494043 0.028217 0.725023 0.272772
H18   H     H_    0.297973 0.379687 0.618483 0.371570
H19   H     H_    0.321091 0.925246 0.964663 0.181159
H20   H     H_    0.447733 0.852577 0.050148 0.084600
H21   H     H_    0.241860 0.907540 0.121147 0.258979
H22   H     H_    0.382244 0.850372 0.208481 0.227213
H23   H     H_    0.737687 0.011141 0.516674 0.146320
H24   H     H_    0.498233 0.009577 0.184136 0.265067
H25   H     H_    0.389238 0.039080 0.240514 0.283418
H26   H     H_    0.358967 0.068592 0.095344 0.268210
H27   H     H_    0.273116 0.179233 0.467397 0.200068
H28   H     H_    0.647960 0.172253 0.512479 0.161519
H29   H     H_    0.796842 0.617297 0.422243 0.134695
H30   H     H_    0.817775 0.341656 0.616680 0.132187
H31   H     H_    0.971466 0.681946 0.373726 0.157947
H32   H     H_    0.177752 0.660813 0.384672 0.156803
N1    N     N_R   0.798200 0.480260 0.519790 -0.104426
N2    N     N_R   0.201820 0.519740 0.480210 -0.159718
O1    O     O_R   0.579910 0.341070 0.505280 -0.627359
O2    O     O_3   0.038531 0.295489 0.638956 -0.703783
O3    O     O_3   0.338692 0.770051 0.824004 -0.611174
O4    O     O_3   0.211845 0.359189 0.585042 -0.714221
O5    O     O_3   0.274239 0.773919 0.991416 -0.562778
O6    O     O_R   0.388440 0.353740 0.492580 -0.615766
O7    O     O_R   0.643280 0.490550 0.663120 -0.602561
O8    O     O_R   0.451810 0.503220 0.650420 -0.636483
O9    O     O_R   0.611560 0.646260 0.507420 -0.618998
O10   O     O_R   0.420090 0.658930 0.494720 -0.647525
O11   O     O_R   0.548190 0.496780 0.349580 -0.610484
O12   O     O_R   0.356720 0.509450 0.336880 -0.598492
O13   O     O_3   0.262184 0.677264 0.175923 -0.750061
Zn1   Zn    Zn3+2 0.627850 0.491540 0.508480 0.941739
Zn2   Zn    Zn3+2 0.372150 0.508460 0.491520 0.947065

loop_
_geom_bond_atom_site_label_1
_geom_bond_atom_site_label_2
_ccdc_geom_bond_type
C33   H16   S    
C1    O1    A    
C19   C20   A    
C31   H10   S    
C35   O5    S    
C12   C23   A    
C29   H5    S    
C1    C5    S    
C28   C29   A    
O10   Zn2   S    
C38   C39   A    
C23   C40   A    
C37   H26   S    
C25   O11   A    
C40   H6    S    
C18   C19   A    
N1    Zn1   S    
H18   O4    S    
C35   C36   S    
C8    C9    A    
C17   N2    A    
C18   N2    A    
O8    Zn2   S    
C36   H21   S    
C9    C10   A    
C32   H13   S    
C3    C13   A    
C33   H17   S    
C13   C14   A    
C16   O10   A    
C34   C41   A    
C22   N1    A    
C6    H12   S    
C22   H30   S    
C15   C20   A    
C28   H3    S    
O1    Zn1   S    
C39   C40   A    
C5    C7    A    
C26   C38   A    
C1    O6    A    
C25   O12   A    
O6    Zn2   S    
C39   O3    S    
C2    C4    S    
C9    C14   A    
C6    C10   A    
C29   C30   A    
C11   H7    S    
C27   C41   A    
H8    O13   S    
C31   C32   S    
C4    O8    A    
O12   Zn2   S    
C37   H24   S    
C35   H19   S    
C31   H11   S    
C24   O2    S    
C15   H31   S    
C21   H29   S    
C26   O5    S    
C16   O9    A    
C41   H2    S    
C22   C24   A    
C12   C34   A    
C13   H1    S    
C26   C42   A    
C15   C17   A    
O7    Zn1   S    
C36   C37   S    
C33   H15   S    
C12   C30   A    
C34   C38   A    
C30   H4    S    
C7    H27   S    
C5    C8    A    
O9    Zn1   S    
C31   O3    S    
C6    C7    A    
C25   C27   S    
C21   N1    A    
C8    H28   S    
C42   O13   S    
C32   C33   S    
C19   C24   A    
H9    O2    S    
C27   C42   A    
C17   H32   S    
C4    O7    A    
C37   H25   S    
C14   H23   S    
C35   H20   S    
C3    C11   A    
C10   C11   A    
N2    Zn2   S    
C20   C21   A    
C18   O4    S    
O11   Zn1   S    
C2    C23   A    
C2    C28   A    
C36   H22   S    
C32   H14   S    
C3    C16   S    
