data_mof_unit_49910.cif
_audit_creation_date              2012-12-10T19:01:53-0500
_audit_creation_method            fapswitch 2.2
_symmetry_space_group_name_H-M    P1
_symmetry_Int_Tables_number       1
_space_group_crystal_system       triclinic
_cell_length_a                    11.740807
_cell_length_b                    10.966407
_cell_length_c                    9.59905
_cell_angle_alpha                 91.123467
_cell_angle_beta                  90.0088
_cell_angle_gamma                 91.667854
_cell_volume                      1235.15916511

loop_
_atom_site_label
_atom_site_type_symbol
_atom_type_description
_atom_site_fract_x
_atom_site_fract_y
_atom_site_fract_z
_atom_type_partial_charge
C1    C     C_R   0.502742 0.263023 0.498523 0.821787
C2    C     C_R   0.496438 0.130302 0.493821 -0.242866
C3    C     C_R   0.524588 0.060999 0.372878 -0.163241
C4    C     C_R   0.498921 0.933822 0.370264 0.467014
C5    C     C_R   0.479899 0.871609 0.497088 -0.248298
C6    C     C_R   0.441408 0.943776 0.609265 -0.173246
C7    C     C_3   0.440246 0.946286 0.767536 0.361730
C8    C     C_3   0.446970 0.087918 0.760138 -0.109173
C9    C     C_R   0.598101 0.525105 0.073816 0.117645
C10   C     C_R   0.407777 0.454368 0.073857 0.565549
C11   C     C_R   0.407818 0.458350 0.923835 -0.168300
C12   C     C_R   0.284030 0.496714 0.499842 0.829860
C13   C     C_R   0.599015 0.519941 0.926781 0.217522
C14   C     C_3   0.675803 0.628834 0.917405 0.213125
C15   C     C_3   0.669157 0.640835 0.076433 0.167819
C16   C     C_R   0.493154 0.737721 0.500696 0.760501
C17   C     C_R   0.715792 0.496667 0.499886 0.779032
C18   C     C_1   0.162135 0.490183 0.499221 -0.170698
C19   C     C_1   0.059607 0.486767 0.498619 -0.000790
C20   C     C_1   0.939704 0.486823 0.498827 -0.009862
C21   C     C_1   0.837348 0.490111 0.499420 -0.157670
C22   C     C_R   0.447516 0.068646 0.605167 0.007529
Cu1   Cu    Cu3+1 0.499990 0.499980 0.640670 0.973361
Cu2   Cu    Cu3+1 0.500010 0.500020 0.359330 1.002030
H1    H     H_    0.632571 0.697329 0.858482 0.091684
H2    H     H_    0.618185 0.719621 0.111725 0.151712
H3    H     H_    0.335884 0.424629 0.863836 0.176445
N1    N     N_R   0.500710 0.500930 0.147930 -0.248173
N2    N     N_R   0.500710 0.500890 0.852020 -0.237501
O1    O     O_R   0.500000 0.319640 0.618810 -0.547846
O2    O     O_R   0.500010 0.319680 0.381230 -0.566590
O3    O     O_R   0.337190 0.499990 0.618790 -0.581453
O4    O     O_R   0.337200 0.500030 0.381210 -0.542222
O5    O     O_R   0.499990 0.680320 0.618770 -0.624657
O6    O     O_R   0.500000 0.680360 0.381190 -0.550905
O7    O     O_R   0.662800 0.499970 0.618790 -0.543810
O8    O     O_R   0.662810 0.500010 0.381210 -0.568534
C23   C     C_2   0.593631 0.115627 0.258257 0.440136
H4    H     H_    0.640464 0.201321 0.274135 0.084928
O9    O     O_2   0.604873 0.062845 0.146547 -0.462093
O10   O     O_3   0.776386 0.627458 0.141581 -0.561610
C24   C     C_3   0.794705 0.717759 0.247833 0.080924
H5    H     H_    0.864940 0.687474 0.315099 0.155101
H6    H     H_    0.718842 0.727002 0.316404 0.164534
C25   C     C_3   0.830970 0.841844 0.188162 -0.389331
H7    H     H_    0.912684 0.833024 0.131266 0.205261
H8    H     H_    0.765218 0.873288 0.115081 0.268083
C26   C     C_3   0.847004 0.938735 0.302784 -0.876921
H9    H     H_    0.765558 0.951284 0.359131 0.250073
H10   H     H_    0.873751 0.026888 0.256157 0.265587
H11   H     H_    0.913696 0.911838 0.376991 0.248524
O11   O     O_3   0.490679 0.870240 0.244707 -0.570169
C27   C     C_3   0.384105 0.892536 0.181185 0.199796
H12   H     H_    0.381694 0.840521 0.081257 0.221556
H13   H     H_    0.376368 0.990804 0.156669 0.170548
C28   C     C_3   0.280773 0.846821 0.266114 -0.475037
H14   H     H_    0.291352 0.749517 0.291519 0.232940
H15   H     H_    0.274116 0.900902 0.364540 0.232773
C29   C     C_3   0.169796 0.859687 0.185896 -0.913901
H16   H     H_    0.154701 0.957327 0.165920 0.269943
H17   H     H_    0.098037 0.822017 0.248539 0.264695
H18   H     H_    0.172546 0.808765 0.085049 0.257288
O12   O     O_3   0.339518 0.906231 0.838605 -0.634204
C30   C     C_3   0.273217 0.816463 0.766012 0.064706
H19   H     H_    0.232139 0.756113 0.843988 0.137848
H20   H     H_    0.324039 0.755984 0.699124 0.175514
C31   C     C_3   0.179572 0.876792 0.683531 -0.333381
H21   H     H_    0.118329 0.917277 0.757985 0.218093
H22   H     H_    0.215531 0.951471 0.619225 0.251492
C32   C     C_3   0.118341 0.784359 0.587817 -0.959903
H23   H     H_    0.179534 0.744082 0.513443 0.251200
H24   H     H_    0.052065 0.829767 0.527173 0.264512
H25   H     H_    0.078300 0.710817 0.650291 0.262246
C33   C     C_2   0.545053 0.894511 0.826288 0.293944
H26   H     H_    0.612810 0.870894 0.756417 0.050564
O13   O     O_2   0.559051 0.889446 0.951499 -0.538760
C34   C     C_2   0.341101 0.150473 0.812394 0.500243
H27   H     H_    0.322315 0.151628 0.923122 0.083654
O14   O     O_2   0.276594 0.199793 0.732596 -0.583349
C35   C     C_2   0.556829 0.148295 0.815023 0.432897
H28   H     H_    0.637613 0.127356 0.766281 0.046837
O15   O     O_2   0.556308 0.219790 0.914092 -0.526509
O16   O     O_3   0.323092 0.391895 0.147719 -0.573871
C36   C     C_3   0.211244 0.400996 0.094082 0.027849
H29   H     H_    0.154473 0.346564 0.163300 0.184771
H30   H     H_    0.200979 0.356680 0.989868 0.136158
C37   C     C_3   0.169794 0.532664 0.097554 -0.436700
H31   H     H_    0.182936 0.573078 0.203326 0.249326
H32   H     H_    0.218833 0.588743 0.022059 0.191911
C38   C     C_3   0.043470 0.536921 0.061789 -0.795012
H33   H     H_    0.027680 0.499145 0.955091 0.265153
H34   H     H_    0.016275 0.632943 0.066542 0.252400
H35   H     H_    0.991886 0.483829 0.137788 0.277898
O17   O     O_3   0.783902 0.598101 0.863520 -0.544756
C39   C     C_3   0.848943 0.705982 0.835832 0.136630
H36   H     H_    0.940369 0.683404 0.836337 0.138630
H37   H     H_    0.839105 0.775459 0.919590 0.143848
C40   C     C_3   0.820921 0.759620 0.693071 -0.394845
H38   H     H_    0.876132 0.719744 0.611686 0.206359
H39   H     H_    0.732231 0.736086 0.661473 0.222635
C41   C     C_3   0.838359 0.898565 0.694346 -0.945747
H40   H     H_    0.795895 0.941688 0.785266 0.262278
H41   H     H_    0.801785 0.936299 0.598641 0.251359
H42   H     H_    0.929985 0.924083 0.699436 0.273942

loop_
_geom_bond_atom_site_label_1
_geom_bond_atom_site_label_2
_ccdc_geom_bond_type
C37   H31   S    
C41   H40   S    
O10   C24   S    
C19   C20   S    
C36   C37   S    
C39   C40   S    
C7    C8    S    
C27   H12   S    
C33   O13   D    
C4    O11   S    
Cu1   N2    S    
C13   N2    A    
C36   H30   S    
C1    C2    S    
C16   O6    A    
C5    C6    A    
C25   C26   S    
C6    C22   A    
C10   O16   S    
C1    O2    A    
C28   H14   S    
C18   C19   T    
C25   H8    S    
C9    C13   A    
C5    C16   S    
C16   O5    A    
C26   H11   S    
C39   H36   S    
C3    C23   S    
C2    C22   A    
C8    C22   S    
Cu1   Cu2   S    
C32   H23   S    
C17   O7    A    
C34   H27   S    
C26   H10   S    
C29   H16   S    
C41   H41   S    
C13   C14   S    
C12   O3    A    
C24   H6    S    
C7    C33   S    
C27   H13   S    
C29   H17   S    
Cu2   O6    S    
C33   H26   S    
C31   H21   S    
Cu1   O1    S    
C36   H29   S    
C15   O10   S    
C35   O15   D    
C4    C5    A    
C15   H2    S    
C25   H7    S    
C17   C21   S    
C31   H22   S    
C24   C25   S    
C30   H20   S    
C30   C31   S    
C38   H34   S    
O16   C36   S    
C11   H3    S    
Cu1   O5    S    
C32   H25   S    
Cu2   O8    S    
C34   O14   D    
C17   O8    A    
C7    O12   S    
C26   H9    S    
Cu1   O7    S    
C41   H42   S    
C40   H39   S    
C37   H32   S    
C8    C34   S    
C24   H5    S    
C3    C4    A    
O11   C27   S    
C38   H35   S    
C27   C28   S    
C10   N1    A    
C29   H18   S    
Cu2   N1    S    
C35   H28   S    
C39   H37   S    
C6    C7    S    
C40   C41   S    
Cu2   O4    S    
C28   C29   S    
C31   C32   S    
Cu1   O3    S    
C2    C3    A    
C9    C15   S    
Cu2   O2    S    
C30   H19   S    
C23   O9    D    
C38   H33   S    
C23   H4    S    
C1    O1    A    
C28   H15   S    
C14   H1    S    
O17   C39   S    
C10   C11   A    
O12   C30   S    
C20   C21   T    
C11   N2    A    
C40   H38   S    
C37   C38   S    
C12   C18   S    
C8    C35   S    
C14   C15   S    
C32   H24   S    
C12   O4    A    
C14   O17   S    
C9    N1    A    
