data_mof_unit_31689.cif
_audit_creation_date              2012-12-11T15:32:07-0500
_audit_creation_method            fapswitch 2.2
_symmetry_space_group_name_H-M    P1
_symmetry_Int_Tables_number       1
_space_group_crystal_system       triclinic
_cell_length_a                    13.569198
_cell_length_b                    13.593316
_cell_length_c                    27.689781
_cell_angle_alpha                 90.361398
_cell_angle_beta                  90.151436
_cell_angle_gamma                 119.953141
_cell_volume                      4425.03054465

loop_
_atom_site_label
_atom_site_type_symbol
_atom_type_description
_atom_site_fract_x
_atom_site_fract_y
_atom_site_fract_z
_atom_type_partial_charge
C1    C     C_R   0.619405 0.898584 0.431193 0.545045
C2    C     C_R   0.168458 0.920811 0.264783 -0.123872
C3    C     C_R   0.152078 0.914019 0.214707 -0.113720
C4    C     C_R   0.599736 0.218469 0.431276 0.544006
C5    C     C_R   0.175889 0.749040 0.211602 -0.112658
C6    C     C_R   0.193299 0.755310 0.261827 0.002721
C7    C     C_R   0.188372 0.841672 0.288691 0.024200
C8    C     C_R   0.155929 0.828243 0.188026 0.018428
C9    C     C_1   0.129494 0.814513 0.137134 -0.058316
C10   C     C_1   0.208224 0.852687 0.340257 -0.059249
C11   C     C_1   0.099162 0.795260 0.095465 -0.011856
C12   C     C_R   0.623131 0.234721 0.208580 -0.106020
C13   C     C_1   0.634190 0.866622 0.383428 -0.025355
C14   C     C_R   0.685454 0.759601 0.272487 -0.105281
C15   C     C_R   0.692414 0.747061 0.222615 -0.101830
C16   C     C_R   0.279647 0.878918 0.430510 0.544179
C17   C     C_R   0.618088 0.873659 0.208022 -0.103294
C18   C     C_R   0.611078 0.886137 0.257885 -0.105163
C19   C     C_R   0.645608 0.829922 0.290241 0.035241
C20   C     C_R   0.659453 0.804600 0.190251 0.038388
C21   C     C_1   0.673906 0.796194 0.139123 -0.056667
C22   C     C_1   0.641224 0.846920 0.341430 -0.073884
C23   C     C_R   0.612162 0.217266 0.258460 -0.104756
C24   C     C_1   0.692287 0.786802 0.097221 -0.011623
C25   C     C_R   0.624215 0.253481 0.618889 0.026296
C26   C     C_R   0.732502 0.335640 0.634816 -0.138482
C27   C     C_R   0.753809 0.354675 0.684155 -0.119339
C28   C     C_R   0.620232 0.900951 0.569168 0.537692
C29   C     C_R   0.668063 0.288531 0.717105 0.020230
C30   C     C_R   0.561644 0.201079 0.700853 -0.011922
C31   C     C_R   0.539795 0.185361 0.651849 -0.123191
C32   C     C_R   0.607858 0.355710 0.786051 -0.121662
C33   C     C_R   0.609787 0.380231 0.834368 -0.122398
C34   C     C_R   0.666421 0.309646 0.290591 0.037853
C35   C     C_R   0.765855 0.343336 0.846864 -0.129913
C36   C     C_R   0.761598 0.314632 0.798138 -0.000974
C37   C     C_R   0.682297 0.321844 0.767747 0.019397
C38   C     C_R   0.690413 0.377027 0.864897 0.015377
C39   C     C_R   0.243712 0.869822 0.617577 0.031566
C40   C     C_R   0.600575 0.221200 0.568789 0.535928
C41   C     C_R   0.147059 0.874030 0.631730 -0.139068
C42   C     C_R   0.117467 0.861509 0.680481 -0.128777
C43   C     C_R   0.185880 0.846725 0.714535 0.040613
C44   C     C_R   0.285725 0.849247 0.700099 -0.087659
C45   C     C_R   0.688656 0.344731 0.190594 0.037968
C46   C     C_R   0.313827 0.859720 0.651914 -0.126192
C47   C     C_R   0.147909 0.730008 0.788819 -0.009199
C48   C     C_R   0.123385 0.715728 0.837849 -0.121717
C49   C     C_R   0.103676 0.883562 0.839515 -0.125824
C50   C     C_R   0.131620 0.900913 0.790863 -0.107279
C51   C     C_R   0.152473 0.824129 0.765158 0.032151
C52   C     C_R   0.279779 0.881340 0.567958 0.531750
C53   C     C_R   0.097222 0.789539 0.863040 0.008504
C54   C     C_R   0.637063 0.863604 0.616463 0.017631
C55   C     C_R   0.544081 0.772416 0.639173 -0.138072
C56   C     C_1   0.694840 0.365152 0.139436 -0.057453
C57   C     C_R   0.548032 0.754522 0.688226 -0.128632
C58   C     C_R   0.646255 0.825236 0.715152 0.033002
C59   C     C_R   0.742726 0.910169 0.691604 -0.115737
C60   C     C_R   0.737928 0.929785 0.642628 -0.121899
C61   C     C_R   0.707557 0.906080 0.798058 -0.117354
C62   C     C_R   0.722523 0.891889 0.846691 -0.123326
C63   C     C_R   0.607594 0.687701 0.836368 -0.129908
C64   C     C_1   0.631238 0.264302 0.383667 -0.014239
C65   C     C_R   0.594640 0.701731 0.787582 -0.126062
C66   C     C_R   0.648157 0.810879 0.767674 0.031102
C67   C     C_1   0.650525 0.290028 0.341744 -0.059141
C68   C     C_R   0.676407 0.782391 0.865639 0.023852
C69   C     C_R   0.049335 0.761098 0.048203 0.546537
C70   C     C_R   0.714357 0.435881 0.049763 0.546097
C71   C     C_R   0.723514 0.770646 0.049564 0.545213
C72   C     C_R   0.043519 0.755304 0.910354 0.544545
C73   C     C_R   0.708306 0.429740 0.912247 0.544289
C74   C     C_R   0.716871 0.765384 0.912071 0.540741
C75   C     C_R   0.733192 0.419520 0.272629 -0.111775
C76   C     C_R   0.744219 0.436978 0.222726 -0.110809
C77   C     C_1   0.838237 0.278313 0.780174 0.182337
C78   C     C_1   0.701797 0.390828 0.097471 -0.012019
C79   C     C_1   0.473492 0.128942 0.734190 0.184389
C80   C     C_R   0.160476 0.641015 0.762862 0.023162
C81   C     C_R   0.089648 0.582680 0.723287 -0.080776
C82   C     C_R   0.101370 0.498595 0.699064 -0.091213
C83   C     C_R   0.183424 0.471813 0.714246 -0.084583
C84   C     C_R   0.253679 0.528847 0.753768 -0.114931
C85   C     C_R   0.242242 0.612993 0.778108 -0.107698
C86   C     C_R   0.215183 0.670100 0.285132 0.028512
C87   C     C_R   0.315544 0.704209 0.311865 -0.072525
C88   C     C_R   0.335586 0.623091 0.333489 -0.091455
C89   C     C_1   0.233836 0.863006 0.382496 -0.013740
C90   C     C_R   0.256332 0.507605 0.328284 -0.100181
C91   C     C_R   0.156856 0.472947 0.301415 -0.106923
C92   C     C_R   0.136306 0.553731 0.279803 -0.098272
Cr1   Cr    Cr6+3 0.417720 0.831920 0.499820 1.017183
Cr2   Cr    Cr6+3 0.668190 0.085770 0.500360 1.027276
Cr3   Cr    Cr6+3 0.414060 0.082260 0.499840 1.023742
Cr4   Cr    Cr6+3 0.908000 0.821090 0.979770 1.027295
Cr5   Cr    Cr6+3 0.912420 0.571130 0.979880 1.025692
Cr6   Cr    Cr6+3 0.657970 0.566940 0.980940 1.026151
H1    H     H_    0.775447 0.491519 0.297068 0.108660
H2    H     H_    0.794681 0.522571 0.209180 0.107448
H3    H     H_    0.457741 0.117730 0.639249 0.135137
H4    H     H_    0.094048 0.884273 0.605253 0.107464
H5    H     H_    0.116793 0.641628 0.855413 0.139535
H6    H     H_    0.040442 0.860515 0.691493 0.109516
H7    H     H_    0.136419 0.973981 0.773114 0.125810
H8    H     H_    0.083139 0.941239 0.858170 0.134421
H9    H     H_    0.341151 0.841523 0.726163 0.135765
H10   H     H_    0.391258 0.861054 0.641325 0.124679
H11   H     H_    0.465009 0.719620 0.619934 0.133989
H12   H     H_    0.724984 0.693731 0.209280 0.108760
H13   H     H_    0.579364 0.162898 0.184153 0.108837
H14   H     H_    0.746034 0.991349 0.783884 0.133897
H15   H     H_    0.774876 0.966115 0.868859 0.131147
H16   H     H_    0.472347 0.688650 0.705359 0.111340
H17   H     H_    0.548523 0.626753 0.765068 0.098320
H18   H     H_    0.571370 0.602284 0.850157 0.123756
H19   H     H_    0.821014 0.963318 0.711271 0.115822
H20   H     H_    0.811098 0.999997 0.625896 0.133235
H21   H     H_    0.560201 0.131870 0.271992 0.104983
H22   H     H_    0.165384 0.987817 0.284924 0.117251
H23   H     H_    0.592809 0.918917 0.183450 0.108527
H24   H     H_    0.135007 0.974747 0.196901 0.119631
H25   H     H_    0.177719 0.682059 0.190830 0.116565
H26   H     H_    0.712228 0.715628 0.297083 0.108218
H27   H     H_    0.025336 0.602205 0.711324 0.104341
H28   H     H_    0.046633 0.454006 0.668593 0.109898
H29   H     H_    0.192414 0.406710 0.695449 0.112402
H30   H     H_    0.317178 0.508008 0.765497 0.100610
H31   H     H_    0.297719 0.657022 0.808496 0.113352
H32   H     H_    0.378335 0.793356 0.315782 0.108837
H33   H     H_    0.412584 0.649615 0.354244 0.121526
H34   H     H_    0.579921 0.940638 0.271232 0.100607
H35   H     H_    0.272079 0.444967 0.345017 0.112458
H36   H     H_    0.095580 0.383455 0.297364 0.114680
H37   H     H_    0.058613 0.525694 0.259237 0.109837
H38   H     H_    0.799065 0.385368 0.609257 0.107782
H39   H     H_    0.547106 0.362172 0.762685 0.114993
H40   H     H_    0.551963 0.407735 0.847116 0.128910
H41   H     H_    0.835456 0.422511 0.696671 0.114098
H42   H     H_    0.829278 0.342097 0.870363 0.124909
N1    N     N_1   0.899656 0.249236 0.765737 -0.324221
N2    N     N_1   0.403821 0.072565 0.761436 -0.312047
O1    O     O_R   0.302900 0.805360 0.446400 -0.504164
O2    O     O_R   0.638120 0.455970 0.034270 -0.503313
O3    O     O_R   0.667540 0.672320 0.030160 -0.493184
O4    O     O_R   0.522090 0.841370 0.450730 -0.498604
O5    O     O_R   0.814460 0.840990 0.926980 -0.516803
O6    O     O_R   0.001710 0.811400 0.930110 -0.500559
O7    O     O_R   0.023410 0.659800 0.926210 -0.520473
O8    O     O_R   0.806940 0.473170 0.931090 -0.502363
O9    O     O_R   0.633420 0.451310 0.927930 -0.521906
O10   O     O_R   0.663190 0.668000 0.931580 -0.505294
O11   O     O_3   0.826130 0.653050 0.980200 -0.248157
O12   O     O_R   0.657980 0.180990 0.549630 -0.495700
O13   O     O_R   0.693280 0.995650 0.447220 -0.503029
O14   O     O_R   0.657260 0.178740 0.451050 -0.494428
O15   O     O_R   0.502640 0.195380 0.446850 -0.506327
O16   O     O_R   0.319630 0.976590 0.450330 -0.495134
O17   O     O_R   0.303680 0.807790 0.552740 -0.516037
O18   O     O_R   0.522820 0.843620 0.549310 -0.509045
O19   O     O_R   0.694060 0.998080 0.553560 -0.513702
O20   O     O_R   0.503420 0.197810 0.553190 -0.516235
O21   O     O_R   0.320350 0.978840 0.548910 -0.501437
O22   O     O_3   0.499990 0.999990 0.500010 -0.249584
O23   O     O_R   0.819150 0.845650 0.033320 -0.506057
O24   O     O_R   0.006060 0.815720 0.028680 -0.493614
O25   O     O_R   0.028100 0.664460 0.032550 -0.506109
O26   O     O_R   0.811290 0.477490 0.029660 -0.494847

loop_
_geom_bond_atom_site_label_1
_geom_bond_atom_site_label_2
_ccdc_geom_bond_type
C25   C31   A    
C7    C10   S    
C87   C88   A    
C63   C65   A    
C84   H30   S    
C73   O8    A    
C70   C78   S    
Cr3   O16   S    
C41   C42   A    
C18   H34   S    
C35   C36   A    
C75   C76   A    
C40   O12   A    
C81   C82   A    
C57   C58   A    
C39   C41   A    
C54   C60   A    
C12   C23   A    
C26   C27   A    
C29   C30   A    
C45   C76   A    
C31   H3    S    
C87   H32   S    
C36   C37   A    
Cr3   O21   S    
C36   C77   S    
C72   O7    A    
C25   C40   S    
C23   H21   S    
C30   C31   A    
C79   N2    T    
C27   C29   A    
C68   C74   S    
C28   O18   A    
C17   C20   A    
C56   C78   T    
C41   H4    S    
C1    O13   A    
C18   C19   A    
Cr1   O17   S    
C69   O24   A    
C82   H28   S    
C2    C7    A    
C85   H31   S    
C63   C68   A    
C61   C66   A    
C58   C66   S    
C47   C48   A    
C45   C56   S    
C8    C9    S    
C46   H10   S    
C50   H7    S    
Cr5   O8    S    
C60   H20   S    
Cr5   O11   S    
Cr1   O1    S    
C3    H24   S    
C34   C75   A    
C81   H27   S    
C52   O17   A    
C39   C52   S    
Cr6   O11   S    
C59   C60   A    
C59   H19   S    
C55   H11   S    
C65   H17   S    
C15   H12   S    
C74   O10   A    
C1    O4    A    
C15   C20   A    
C47   C80   S    
C44   C46   A    
C28   O19   A    
C50   C51   A    
C6    C7    A    
Cr6   O9    S    
Cr4   O11   S    
C48   C53   A    
Cr4   O6    S    
C14   H26   S    
C16   O16   A    
C64   C67   T    
C74   O5    A    
C19   C22   S    
C84   C85   A    
C10   C89   T    
C62   H15   S    
C3    C8    A    
Cr3   O20   S    
C91   C92   A    
C90   H35   S    
C2    H22   S    
C86   C87   A    
Cr2   O13   S    
C47   C51   A    
Cr1   O22   S    
C58   C59   A    
Cr5   O25   S    
C48   H5    S    
C4    O15   A    
C27   H41   S    
Cr1   O18   S    
C43   C44   A    
C69   O25   A    
C40   O20   A    
C80   C85   A    
C70   O26   A    
C35   H42   S    
C83   C84   A    
C14   C15   A    
C33   H40   S    
Cr2   O12   S    
C23   C34   A    
C35   C38   A    
C75   H1    S    
C17   C18   A    
Cr1   O4    S    
C32   C37   A    
C9    C11   T    
Cr2   O19   S    
C57   H16   S    
C39   C46   A    
C63   H18   S    
C17   H23   S    
C71   O3    A    
C88   C90   A    
C49   C50   A    
C55   C57   A    
Cr4   O24   S    
C92   H37   S    
C1    C13   S    
C42   C43   A    
C30   C79   S    
C4    O14   A    
Cr2   O22   S    
C44   H9    S    
Cr4   O5    S    
C5    H25   S    
C54   C55   A    
C28   C54   S    
Cr6   O2    S    
Cr3   O15   S    
C14   C19   A    
C83   H29   S    
C80   C81   A    
C42   H6    S    
C34   C67   S    
C5    C8    A    
C11   C69   S    
C49   H8    S    
C12   C45   A    
Cr6   O3    S    
C76   H2    S    
Cr5   O26   S    
C4    C64   S    
Cr6   O10   S    
C70   O2    A    
C33   C38   A    
C6    C86   S    
C62   C68   A    
C32   C33   A    
C2    C3    A    
C25   C26   A    
C32   H39   S    
C72   O6    A    
Cr3   O22   S    
C53   C72   S    
C43   C51   S    
C90   C91   A    
C5    C6    A    
C91   H36   S    
C49   C53   A    
C16   O1    A    
C13   C22   T    
C65   C66   A    
C61   C62   A    
C77   N1    T    
C26   H38   S    
C52   O21   A    
C16   C89   S    
C20   C21   S    
Cr2   O14   S    
C82   C83   A    
C71   O23   A    
C21   C24   T    
C29   C37   S    
Cr5   O7    S    
Cr4   O23   S    
C86   C92   A    
C88   H33   S    
C61   H14   S    
C12   H13   S    
C73   O9    A    
C24   C71   S    
C38   C73   S    
