data_mof_unit_6263.cif
_audit_creation_date              2012-12-10T16:55:44-0500
_audit_creation_method            fapswitch 2.2
_symmetry_space_group_name_H-M    P1
_symmetry_Int_Tables_number       1
_space_group_crystal_system       triclinic
_cell_length_a                    7.774232
_cell_length_b                    8.63732
_cell_length_c                    10.494621
_cell_angle_alpha                 91.457743
_cell_angle_beta                  85.675756
_cell_angle_gamma                 93.631062
_cell_volume                      701.130480919

loop_
_atom_site_label
_atom_site_type_symbol
_atom_type_description
_atom_site_fract_x
_atom_site_fract_y
_atom_site_fract_z
_atom_type_partial_charge
C1    C     C_R   0.545261 0.794253 0.496700 0.906212
C2    C     C_3   0.503523 0.500284 0.877444 0.039380
C3    C     C_3   0.340238 0.529790 0.049037 -0.137544
C4    C     C_3   0.659765 0.470270 0.950965 -0.137532
C5    C     C_2   0.564693 0.955429 0.476507 -0.019267
C6    C     C_2   0.435288 0.044569 0.523438 -0.019286
C7    C     C_3   0.658703 0.018924 0.258622 -0.801934
C8    C     C_3   0.341015 0.981177 0.741321 -0.801640
C9    C     C_R   0.454737 0.205749 0.503294 0.906309
C10   C     C_R   0.501727 0.500538 0.742535 0.852542
C11   C     C_R   0.498276 0.499485 0.257465 0.852535
C12   C     C_3   0.459048 0.639972 0.963026 -0.191978
C13   C     C_3   0.540953 0.360087 0.036974 -0.191972
C14   C     C_3   0.615341 0.609972 0.039191 -0.179668
C15   C     C_3   0.384660 0.390089 0.960812 -0.179646
C16   C     C_3   0.496480 0.499772 0.122558 0.039381
H1    H     H_    0.710696 0.698703 0.074665 0.131743
H2    H     H_    0.770064 0.071133 0.198570 0.235537
H3    H     H_    0.546956 0.091664 0.252937 0.229323
H4    H     H_    0.624509 0.900611 0.220992 0.222582
H5    H     H_    0.181686 0.041147 0.603454 0.237878
H6    H     H_    0.229627 0.928874 0.801316 0.235509
H7    H     H_    0.374999 0.099546 0.778950 0.222534
H8    H     H_    0.452881 0.908574 0.747107 0.229255
H9    H     H_    0.289277 0.301373 0.925357 0.131717
H10   H     H_    0.425566 0.754496 0.930488 0.131759
H11   H     H_    0.574433 0.245559 0.069501 0.131775
H12   H     H_    0.209902 0.553937 0.092818 0.142603
H13   H     H_    0.790102 0.446123 0.907185 0.142603
H14   H     H_    0.013620 0.382153 0.404166 0.193304
H15   H     H_    0.986380 0.617847 0.595833 0.193300
H16   H     H_    0.818155 0.958722 0.396277 0.237915
N1    N     N_2   0.950320 0.457950 0.465730 -0.173662
N2    N     N_2   0.049680 0.542050 0.534270 -0.173665
N3    N     N_2   0.704033 0.011611 0.389365 -0.286228
N4    N     N_2   0.295864 0.988362 0.610510 -0.286167
O1    O     O_R   0.389250 0.738570 0.508410 -0.581978
O2    O     O_R   0.610750 0.261430 0.491590 -0.581988
O3    O     O_R   0.678390 0.711620 0.486450 -0.643887
O4    O     O_R   0.321610 0.288380 0.513550 -0.643864
O5    O     O_R   0.355460 0.513510 0.697030 -0.614151
O6    O     O_R   0.644540 0.486490 0.302970 -0.614144
O7    O     O_R   0.644600 0.486560 0.675070 -0.636168
O8    O     O_R   0.355400 0.513440 0.324930 -0.636176
Zn1   Zn    Zn3+2 0.306940 0.517990 0.514670 0.943424
Zn2   Zn    Zn3+2 0.693060 0.482010 0.485330 0.943426

loop_
_geom_bond_atom_site_label_1
_geom_bond_atom_site_label_2
_ccdc_geom_bond_type
C8    H6    S    
C8    N4    S    
C2    C15   S    
C11   C16   S    
C2    C4    S    
C4    H13   S    
C1    O1    A    
C7    H2    S    
C2    C12   S    
C6    C9    S    
N1    N2    D    
H15   N2    S    
C11   O8    A    
N2    Zn1   S    
C10   O5    A    
N1    Zn2   S    
C14   H1    S    
O4    Zn1   S    
O3    Zn2   S    
C1    C5    S    
C5    N3    S    
C3    H12   S    
C8    H8    S    
C12   C14   S    
C7    H3    S    
C13   C15   S    
C4    C14   S    
C5    C6    D    
O7    Zn2   S    
C14   C16   S    
C15   H9    S    
O2    Zn2   S    
C1    O3    A    
O1    Zn1   S    
C2    C10   S    
H16   N3    S    
C8    H7    S    
C3    C15   S    
O8    Zn1   S    
C11   O6    A    
C7    H4    S    
O6    Zn2   S    
C13   C16   S    
C12   H10   S    
C4    C13   S    
H5    N4    S    
O5    Zn1   S    
C9    O2    A    
C3    C12   S    
H14   N1    S    
C10   O7    A    
C7    N3    S    
C9    O4    A    
C13   H11   S    
C3    C16   S    
C6    N4    S    
