data_mof_unit_21984.cif
_audit_creation_date              2012-12-11T15:36:47-0500
_audit_creation_method            fapswitch 2.2
_symmetry_space_group_name_H-M    P1
_symmetry_Int_Tables_number       1
_space_group_crystal_system       triclinic
_cell_length_a                    8.205128
_cell_length_b                    17.374967
_cell_length_c                    19.007634
_cell_angle_alpha                 98.005367
_cell_angle_beta                  94.524551
_cell_angle_gamma                 97.377619
_cell_volume                      2648.22840099

loop_
_atom_site_label
_atom_site_type_symbol
_atom_type_description
_atom_site_fract_x
_atom_site_fract_y
_atom_site_fract_z
_atom_type_partial_charge
Ba1   Ba    Ba6+2 0.162080 0.538580 0.468810 1.649357
Ba2   Ba    Ba6+2 0.648090 0.461410 0.531130 1.649132
C1    C     C_3   0.376536 0.765398 0.222062 -0.361964
C2    C     C_3   0.399633 0.726928 0.288583 0.425462
C3    C     C_3   0.561374 0.699374 0.640558 0.309132
C4    C     C_3   0.594252 0.788186 0.660486 -0.382086
C5    C     C_3   0.866221 0.247371 0.672748 0.384558
C6    C     C_3   0.853904 0.165138 0.692556 -0.366198
C7    C     C_3   0.332565 0.225426 0.705080 0.516630
C8    C     C_3   0.383246 0.181407 0.766329 -0.060704
C9    C     C_2   0.745856 0.723663 0.485685 -0.243778
C10   C     C_3   0.665470 0.773076 0.437761 -0.031415
C11   C     C_2   0.718614 0.859649 0.459398 -0.106602
C12   C     C_3   0.878755 0.743829 0.280504 0.315049
C13   C     C_2   0.860654 0.886310 0.501677 0.012588
C14   C     C_2   0.951084 0.827221 0.533751 -0.114661
C15   C     C_1   0.887836 0.751410 0.524215 0.067108
C16   C     C_R   0.105866 0.139085 0.530574 -0.136792
C17   C     C_R   0.168837 0.218862 0.541273 -0.005245
C18   C     C_R   0.922214 0.248436 0.477181 0.057692
C19   C     C_R   0.858340 0.168000 0.466333 -0.124002
C20   C     C_R   0.947750 0.112715 0.494492 0.014499
C21   C     C_2   0.928282 0.972119 0.517676 -0.075815
C22   C     C_2   0.878359 0.027600 0.480238 -0.071484
C23   C     C_3   0.948841 0.829605 0.282903 -0.343435
C24   C     C_R   0.074600 0.273309 0.517032 -0.274334
C25   C     C_R   0.614506 0.534296 0.301426 -0.276661
C26   C     C_R   0.459000 0.492868 0.276505 0.073185
C27   C     C_R   0.402271 0.485816 0.204055 -0.123817
C28   C     C_R   0.502250 0.519131 0.155920 -0.011853
C29   C     C_R   0.662431 0.557411 0.181547 -0.145581
C30   C     C_R   0.718839 0.563656 0.253914 -0.015280
C31   C     C_R   0.476832 0.574364 0.040725 -0.077592
C32   C     C_R   0.422878 0.566938 0.968081 -0.079665
C33   C     C_R   0.333252 0.496270 0.931588 0.060317
C34   C     C_3   0.759429 0.367385 0.311762 0.314073
C35   C     C_R   0.297351 0.433493 0.969803 -0.080042
C36   C     C_R   0.351342 0.440923 0.042517 -0.078264
C37   C     C_R   0.442390 0.511375 0.078825 0.064080
C38   C     C_R   0.122335 0.448827 0.825177 -0.139901
C39   C     C_R   0.074487 0.441228 0.751717 0.013301
C40   C     C_R   0.339393 0.511776 0.734276 0.048203
C41   C     C_R   0.387818 0.519798 0.807448 -0.116255
C42   C     C_R   0.280639 0.487658 0.853726 -0.005668
C43   C     C_R   0.185433 0.470398 0.706565 -0.238579
C44   C     C_3   0.733958 0.347425 0.230809 -0.396522
C45   C     C_3   0.044596 0.634480 0.689534 0.312044
C46   C     C_3   0.065271 0.655995 0.770419 -0.398143
C47   C     C_3   0.247269 0.302116 0.369512 0.314372
C48   C     C_3   0.219030 0.213603 0.346642 -0.389918
H1    H     H_    0.324926 0.667773 0.279426 0.085268
H2    H     H_    0.626644 0.300678 0.214644 0.123380
H3    H     H_    0.710389 0.399921 0.206769 0.066540
H4    H     H_    0.846181 0.326680 0.210215 0.124258
H5    H     H_    0.158959 0.615134 0.671258 -0.000367
H6    H     H_    0.940141 0.586248 0.674433 0.061776
H7    H     H_    0.174944 0.701295 0.787141 0.127328
H8    H     H_    0.082056 0.603722 0.795951 0.061526
H9    H     H_    0.953620 0.679281 0.788989 0.123459
H10   H     H_    0.129194 0.321959 0.382532 0.005871
H11   H     H_    0.338455 0.316083 0.417404 0.071072
H12   H     H_    0.245065 0.772070 0.210293 0.145954
H13   H     H_    0.124130 0.197795 0.300085 0.120855
H14   H     H_    0.176111 0.183468 0.390821 0.065752
H15   H     H_    0.336129 0.193030 0.331755 0.128013
H16   H     H_    0.532174 0.719886 0.296334 -0.145539
H17   H     H_    0.416075 0.728421 0.175751 0.060521
H18   H     H_    0.678669 0.677862 0.627903 0.011437
H19   H     H_    0.470307 0.685093 0.592606 0.076038
H20   H     H_    0.690092 0.804757 0.706635 0.118028
H21   H     H_    0.638121 0.815292 0.614640 0.065480
H22   H     H_    0.478864 0.810982 0.674766 0.129674
H23   H     H_    0.452654 0.824157 0.230027 0.099671
H24   H     H_    0.850508 0.866921 0.293238 0.058797
H25   H     H_    0.783169 0.245321 0.623228 0.086490
H26   H     H_    0.995634 0.265959 0.662531 -0.063605
H27   H     H_    0.893319 0.124341 0.648965 0.063555
H28   H     H_    0.935017 0.165522 0.742264 0.101209
H29   H     H_    0.724493 0.143841 0.700949 0.153555
H30   H     H_    0.216292 0.190987 0.677292 -0.080725
H31   H     H_    0.283471 0.176539 0.802578 0.019232
H32   H     H_    0.828633 0.737784 0.332090 -0.009756
H33   H     H_    0.399299 0.120783 0.743000 0.069144
H34   H     H_    0.782378 0.011111 0.436328 0.067088
H35   H     H_    0.066943 0.847289 0.566793 0.079705
H36   H     H_    0.183555 0.098241 0.548028 0.061427
H37   H     H_    0.024370 0.989180 0.561634 0.066617
H38   H     H_    0.644531 0.898666 0.436190 0.064974
H39   H     H_    0.740321 0.148432 0.435175 0.084121
H40   H     H_    0.695680 0.662012 0.480220 0.067385
H41   H     H_    0.125359 0.334811 0.524633 0.072135
H42   H     H_    0.508324 0.551408 0.828063 0.068466
H43   H     H_    0.778564 0.727372 0.236005 -0.009079
H44   H     H_    0.450096 0.616915 0.940574 0.060197
H45   H     H_    0.544218 0.629806 0.067335 0.057836
H46   H     H_    0.280799 0.454054 0.185409 0.084340
H47   H     H_    0.230667 0.377957 0.943054 0.059846
H48   H     H_    0.324826 0.390837 0.069947 0.058320
H49   H     H_    0.035761 0.425839 0.859831 0.073552
H50   H     H_    0.745007 0.580036 0.145184 0.070847
H51   H     H_    0.148248 0.464749 0.649962 0.055636
H52   H     H_    0.659137 0.538662 0.357147 0.066203
H53   H     H_    0.051018 0.847185 0.326389 0.151142
H54   H     H_    0.995954 0.838987 0.231140 0.104031
H55   H     H_    0.645237 0.385476 0.331590 0.005667
H56   H     H_    0.862846 0.416291 0.326384 0.064732
O1    O     O_2   0.166667 0.691630 0.546720 -0.452639
O2    O     O_3   0.305185 0.337519 0.312841 -0.636818
O3    O     O_3   0.003911 0.696913 0.269331 -0.583075
O4    O     O_2   0.643630 0.308330 0.453260 -0.458051
O5    O     O_3   0.916470 0.406310 0.458240 -0.501669
O6    O     O_3   0.419940 0.355340 0.582140 -0.452288
O7    O     O_3   0.794850 0.300551 0.339852 -0.635611
O8    O     O_3   0.383960 0.539280 0.585630 -0.479905
O9    O     O_3   0.845010 0.394580 0.619730 -0.489897
O10   O     O_2   0.730765 0.438033 0.744995 -0.474541
O11   O     O_3   0.818108 0.298506 0.728798 -0.565647
O12   O     O_3   0.893830 0.593690 0.541700 -0.501263
O13   O     O_3   0.426330 0.460710 0.414310 -0.492048
O14   O     O_2   0.638540 0.536570 0.671920 -0.460550
O15   O     O_3   0.500238 0.666405 0.698245 -0.645864
O16   O     O_2   0.498128 0.218936 0.524005 -0.492359
O17   O     O_3   0.458217 0.228419 0.658827 -0.568067
O18   O     O_3   0.390350 0.644650 0.417800 -0.485007
O19   O     O_2   0.351396 0.784663 0.487519 -0.479254
O20   O     O_3   0.014609 0.701041 0.659971 -0.638241
O21   O     O_3   0.348541 0.773482 0.347392 -0.581360
O22   O     O_2   0.171750 0.463380 0.328050 -0.463527
O23   O     O_3   0.965290 0.605410 0.380210 -0.467059
O24   O     O_2   0.053226 0.551198 0.252331 -0.488528
P1    P     P_3+3 0.992230 0.679190 0.566750 0.982867
P2    P     P_3+3 0.339610 0.439630 0.337240 0.981836
P3    P     P_3+3 0.933786 0.603105 0.287666 0.956816
P4    P     P_3+3 0.818060 0.320800 0.433200 0.980005
P5    P     P_3+3 0.866932 0.394932 0.712201 0.981599
P6    P     P_3+3 0.437543 0.745965 0.425059 0.970176
P7    P     P_3+3 0.464298 0.564162 0.674951 0.949371
P8    P     P_3+3 0.383926 0.253434 0.577171 0.977332
N1    N     N_3   0.302270 0.304871 0.732199 -0.512015
H57   H     H_    0.223135 0.301919 0.772546 0.120439
H58   H     H_    0.413518 0.338990 0.754373 0.212098
N2    N     N_3   0.537897 0.220385 0.806580 -0.437690
H59   H     H_    0.582119 0.181063 0.837804 0.168247
H60   H     H_    0.511822 0.267562 0.842398 0.174583

loop_
_geom_bond_atom_site_label_1
_geom_bond_atom_site_label_2
_ccdc_geom_bond_type
C12   O3    S    
C44   H2    S    
C15   P1    S    
C48   H14   S    
C5    O11   S    
Ba1   O22   S    
C36   H48   S    
Ba1   P2    S    
C38   H49   S    
C35   H47   S    
Ba2   O12   S    
C46   H7    S    
O10   P5    D    
C19   H39   S    
C4    H22   S    
O17   P8    S    
Ba2   O6    S    
C16   H36   S    
C47   H10   S    
C18   C24   A    
C46   H9    S    
C26   C27   A    
C33   C35   A    
C35   C36   A    
C23   H24   S    
Ba1   O23   S    
C8    N2    S    
C28   C29   A    
C13   C14   S    
O22   P2    D    
C8    H33   S    
C44   H3    S    
C32   C33   A    
Ba1   O13   S    
O8    P7    S    
O15   P7    S    
C17   C24   A    
C3    H19   S    
O12   P1    S    
Ba2   O4    S    
C45   C46   S    
C14   C15   D    
C6    H29   S    
C21   C22   D    
C34   C44   S    
C7    C8    S    
C12   H43   S    
C13   C21   S    
C34   H55   S    
C21   H37   S    
C19   C20   A    
C40   P7    S    
C6    H28   S    
C48   H13   S    
C3    H18   S    
C34   O7    S    
C31   H45   S    
C31   C32   A    
C47   O2    S    
C4    H21   S    
N1    H57   S    
C1    H17   S    
Ba2   O5    S    
C47   H11   S    
O18   P6    S    
C2    H1    S    
O3    P3    S    
O6    P8    S    
C5    C6    S    
C36   C37   A    
O21   P6    S    
O16   P8    D    
O1    P1    D    
Ba2   O14   S    
C16   C17   A    
C5    H25   S    
C6    H27   S    
C24   H41   S    
C34   H56   S    
C26   P2    S    
C40   C43   A    
C41   C42   A    
C27   C28   A    
Ba2   O9    S    
C29   C30   A    
C9    C10   S    
C44   H4    S    
O13   P2    S    
O5    P4    S    
C31   C37   A    
C29   H50   S    
N1    H58   S    
C33   C42   S    
Ba2   O8    S    
C43   H51   S    
Ba1   O1    S    
O23   P3    S    
O19   P6    D    
C38   C39   A    
O7    P4    S    
C11   C13   D    
C10   P6    S    
C14   H35   S    
N2    H60   S    
O4    P4    D    
O24   P3    D    
Ba1   O8    S    
C12   H32   S    
C1    C2    S    
O11   P5    S    
C39   P5    S    
C45   O20   S    
C45   H5    S    
C1    H12   S    
C4    H20   S    
C9    C15   D    
C3    O15   S    
C25   H52   S    
C2    O21   S    
C25   C30   A    
C16   C20   A    
C23   H53   S    
C32   H44   S    
Ba1   P1    S    
C27   H46   S    
Ba2   O13   S    
Ba2   P4    S    
C23   H54   S    
C46   H8    S    
C5    H26   S    
C30   P3    S    
C8    H31   S    
C41   H42   S    
C22   H34   S    
Ba1   O18   S    
Ba1   O5    S    
C2    H16   S    
C7    N1    S    
C9    H40   S    
C3    C4    S    
O9    P5    S    
O20   P1    S    
C17   P8    S    
Ba1   Ba2   S    
C11   H38   S    
C7    O17   S    
C28   C37   S    
C20   C22   S    
Ba1   O12   S    
C12   C23   S    
C1    H23   S    
C48   H15   S    
O2    P2    S    
C38   C42   A    
C10   C11   S    
C18   C19   A    
C47   C48   S    
C40   C41   A    
C25   C26   A    
C39   C43   A    
N2    H59   S    
O14   P7    D    
C18   P4    S    
C7    H30   S    
C45   H6    S    
