data_mof_unit_34585.cif
_audit_creation_date              2012-12-10T17:52:16-0500
_audit_creation_method            fapswitch 2.2
_symmetry_space_group_name_H-M    P1
_symmetry_Int_Tables_number       1
_space_group_crystal_system       triclinic
_cell_length_a                    18.942531
_cell_length_b                    10.626161
_cell_length_c                    9.912975
_cell_angle_alpha                 89.858588
_cell_angle_beta                  90.339345
_cell_angle_gamma                 91.729
_cell_volume                      1994.3982335

loop_
_atom_site_label
_atom_site_type_symbol
_atom_type_description
_atom_site_fract_x
_atom_site_fract_y
_atom_site_fract_z
_atom_type_partial_charge
C1    C     C_R   0.499876 0.260730 0.500268 0.830947
C2    C     C_R   0.852177 0.404623 0.503929 0.031970
C3    C     C_R   0.629453 0.138958 0.555469 -0.154292
C4    C     C_R   0.365045 0.495933 0.499674 0.833922
C5    C     C_R   0.692268 0.077544 0.580369 -0.132100
C6    C     C_R   0.693022 0.946636 0.578602 -0.139568
C7    C     C_R   0.630952 0.876998 0.551999 -0.180452
C8    C     C_R   0.566845 0.938153 0.527116 0.094624
C9    C     C_R   0.565918 0.069684 0.528333 0.102270
C10   C     C_R   0.501348 0.128160 0.501076 -0.175895
C11   C     C_R   0.438222 0.059690 0.473022 -0.034634
C12   C     C_R   0.289011 0.469180 0.499030 -0.036392
C13   C     C_R   0.440434 0.930163 0.471464 -0.169469
C14   C     C_R   0.503375 0.871487 0.499196 -0.146229
C15   C     C_R   0.407125 0.335431 0.139428 -0.160238
C16   C     C_R   0.500636 0.739230 0.499762 0.887879
C17   C     C_R   0.361321 0.254280 0.069076 -0.182739
C18   C     C_R   0.361503 0.253776 0.929449 -0.197490
C19   C     C_R   0.407433 0.334518 0.859419 -0.160064
C20   C     C_R   0.454386 0.418518 0.927388 0.172816
C21   C     C_R   0.454308 0.418769 0.071971 0.168111
C22   C     C_R   0.543719 0.577787 0.071783 -0.106628
C23   C     C_R   0.927194 0.376928 0.501948 0.299862
C24   C     C_R   0.543640 0.577869 0.928674 -0.118582
C25   C     C_R   0.635131 0.499056 0.500693 0.836805
C26   C     C_R   0.253553 0.448756 0.621222 -0.194995
C27   C     C_R   0.182806 0.411194 0.620997 -0.148413
C28   C     C_R   0.146190 0.394347 0.498559 0.089828
C29   C     C_R   0.181917 0.413211 0.376230 -0.136515
C30   C     C_R   0.252826 0.450537 0.376472 -0.184548
C31   C     C_3   0.727615 0.564571 0.743137 -0.901805
C32   C     C_2   0.369756 0.121791 0.448590 0.387592
C33   C     C_R   0.069610 0.371591 0.499182 0.291849
C34   C     C_R   0.823836 0.461733 0.617856 -0.161372
C35   C     C_R   0.753920 0.499580 0.618634 0.193697
C36   C     C_R   0.711245 0.477241 0.502439 -0.064923
C37   C     C_R   0.740607 0.421296 0.388189 -0.239392
C38   C     C_R   0.810391 0.385558 0.388824 -0.170433
H1    H     H_    0.280491 0.460597 0.717230 0.162744
H2    H     H_    0.325834 0.190445 0.874831 0.163560
H3    H     H_    0.404415 0.328281 0.752446 0.199043
H4    H     H_    0.156622 0.397757 0.716992 0.152342
H5    H     H_    0.579212 0.641661 0.875124 0.151325
H6    H     H_    0.154930 0.401409 0.280288 0.150824
H7    H     H_    0.279304 0.463749 0.280719 0.160551
H8    H     H_    0.856808 0.479477 0.705876 0.154826
H9    H     H_    0.709095 0.402055 0.298632 0.175416
H10   H     H_    0.831563 0.342565 0.299361 0.159701
H11   H     H_    0.771420 0.590050 0.813871 0.231043
H12   H     H_    0.631222 0.240535 0.557545 0.140725
H13   H     H_    0.701646 0.653114 0.714861 0.233732
H14   H     H_    0.690146 0.501197 0.798397 0.261587
H15   H     H_    0.365453 0.222530 0.460755 0.036538
H16   H     H_    0.740463 0.131749 0.600702 0.149882
H17   H     H_    0.741805 0.898906 0.597484 0.145057
H18   H     H_    0.633626 0.775518 0.550058 0.122450
H19   H     H_    0.392824 0.873818 0.451041 0.184253
H20   H     H_    0.579433 0.641380 0.125736 0.150787
H21   H     H_    0.403905 0.330242 0.246266 0.196297
H22   H     H_    0.325505 0.191378 0.123434 0.182781
N1    N     N_R   0.032291 0.370320 0.381945 -0.174045
N2    N     N_R   0.962240 0.372798 0.383278 -0.169534
N3    N     N_R   0.964307 0.372208 0.619008 -0.178224
N4    N     N_R   0.034240 0.369491 0.617632 -0.176415
N5    N     N_R   0.499340 0.498800 0.142780 -0.120129
N6    N     N_R   0.499320 0.498720 0.857170 -0.118977
O1    O     O_R   0.500000 0.316780 0.614690 -0.630170
O2    O     O_R   0.499990 0.316750 0.385360 -0.628843
O3    O     O_R   0.398140 0.500000 0.614700 -0.633501
O4    O     O_R   0.398130 0.499970 0.385370 -0.636280
O5    O     O_R   0.500010 0.683250 0.614640 -0.605218
O6    O     O_R   0.500000 0.683220 0.385310 -0.604227
O7    O     O_R   0.601870 0.500030 0.614630 -0.609838
O8    O     O_R   0.601860 0.500000 0.385300 -0.614578
O9    O     O_2   0.316917 0.060753 0.414942 -0.569200
Zn1   Zn    Zn3+2 0.500000 0.500020 0.653130 0.937388
Zn2   Zn    Zn3+2 0.500000 0.499980 0.346870 0.941317

loop_
_geom_bond_atom_site_label_1
_geom_bond_atom_site_label_2
_ccdc_geom_bond_type
C30   H7    S    
C35   C36   A    
C16   O6    A    
C6    H17   S    
C32   O9    D    
C4    O4    A    
C7    C8    A    
C26   C27   A    
C37   C38   A    
C22   C24   A    
C20   N6    A    
C28   C29   A    
C34   C35   A    
O5    Zn1   S    
C26   H1    S    
C13   H19   S    
C28   C33   S    
C1    O2    A    
O3    Zn1   S    
C25   O8    A    
C18   H2    S    
O6    Zn2   S    
C23   N2    A    
C19   C20   A    
C8    C9    A    
O8    Zn2   S    
C34   H8    S    
C14   C16   S    
C37   H9    S    
C9    C10   A    
C31   H14   S    
C38   H10   S    
C24   N6    A    
C12   C30   A    
C2    C34   A    
C23   N3    A    
C13   C14   A    
O4    Zn2   S    
C16   O5    A    
C7    H18   S    
C31   H11   S    
C4    O3    A    
C3    H12   S    
N5    Zn2   S    
C5    H16   S    
C18   C19   A    
C17   H22   S    
C12   C26   A    
C22   N5    A    
C29   C30   A    
C3    C9    A    
C2    C38   A    
N6    Zn1   S    
C17   C18   A    
C11   C32   S    
C29   H6    S    
O7    Zn1   S    
C31   C35   S    
C4    C12   S    
C32   H15   S    
C2    C23   S    
O2    Zn2   S    
C15   C17   A    
C36   C37   A    
C8    C14   A    
C21   N5    A    
C15   H21   S    
C1    C10   S    
C31   H13   S    
C3    C5    A    
C22   H20   S    
C6    C7    A    
C11   C13   A    
C27   H4    S    
C5    C6    A    
C33   N4    A    
C1    O1    A    
C25   O7    A    
N1    N2    A    
C10   C11   A    
C25   C36   S    
N3    N4    A    
C15   C21   A    
C20   C21   A    
C33   N1    A    
C27   C28   A    
C24   H5    S    
O1    Zn1   S    
C19   H3    S    
