data_mof_unit_41080.cif
_audit_creation_date              2012-12-10T17:46:21-0500
_audit_creation_method            fapswitch 2.2
_symmetry_space_group_name_H-M    P1
_symmetry_Int_Tables_number       1
_space_group_crystal_system       triclinic
_cell_length_a                    14.14825
_cell_length_b                    10.641667
_cell_length_c                    9.927965
_cell_angle_alpha                 89.984652
_cell_angle_beta                  89.910682
_cell_angle_gamma                 91.699998
_cell_volume                      1494.10419928

loop_
_atom_site_label
_atom_site_type_symbol
_atom_type_description
_atom_site_fract_x
_atom_site_fract_y
_atom_site_fract_z
_atom_type_partial_charge
C1    C     C_R   0.501756 0.260728 0.500024 0.877584
C2    C     C_R   0.434845 0.062573 0.434975 -0.313980
C3    C     C_R   0.432838 0.933605 0.437103 0.526316
C4    C     C_R   0.329294 0.499779 0.500123 0.883234
C5    C     C_R   0.506871 0.872107 0.500022 -0.214661
C6    C     C_R   0.376721 0.334147 0.140161 -0.146220
C7    C     C_R   0.316431 0.251941 0.070202 -0.180751
C8    C     C_R   0.316383 0.251973 0.930822 -0.185122
C9    C     C_R   0.376678 0.334147 0.860483 -0.147097
C10   C     C_R   0.439388 0.418198 0.927888 0.163746
C11   C     C_R   0.439402 0.418230 0.072408 0.168836
C12   C     C_1   0.772196 0.500175 0.499872 -0.217509
C13   C     C_R   0.558110 0.578213 0.071269 -0.098052
C14   C     C_R   0.558104 0.578167 0.928269 -0.115737
C15   C     C_R   0.502345 0.739409 0.499969 0.923435
C16   C     C_R   0.670716 0.500385 0.499901 0.858561
C17   C     C_1   0.227811 0.499722 0.500344 -0.210913
C18   C     C_1   0.142544 0.499721 0.500467 -0.016903
C19   C     C_1   0.042632 0.499727 0.500507 0.010972
C20   C     C_1   0.957359 0.499777 0.500406 0.017575
C21   C     C_1   0.857456 0.499953 0.500122 -0.005233
C22   C     C_3   0.786432 0.243079 0.816701 -0.300330
C23   C     C_R   0.660219 0.137185 0.621693 -0.283420
C24   C     C_3   0.282907 0.855498 0.461490 -0.312828
C25   C     C_R   0.734671 0.074673 0.684833 0.595800
C26   C     C_R   0.734594 0.943713 0.680520 -0.201061
C27   C     C_R   0.660339 0.875595 0.620392 -0.259725
C28   C     C_R   0.583211 0.937579 0.562541 0.034434
C29   C     C_R   0.583372 0.069075 0.562897 0.044746
C30   C     C_R   0.507594 0.128762 0.499837 -0.136275
H1    H     H_    0.378156 0.111185 0.385518 0.152178
H2    H     H_    0.269196 0.188094 0.124694 0.157051
H3    H     H_    0.720999 0.224919 0.877194 0.159514
H4    H     H_    0.778489 0.325669 0.749727 0.175901
H5    H     H_    0.844129 0.267135 0.888559 0.197245
H6    H     H_    0.302135 0.805195 0.555477 0.155111
H7    H     H_    0.225978 0.798965 0.411403 0.202108
H8    H     H_    0.254033 0.948939 0.485997 0.157954
H9    H     H_    0.269077 0.188181 0.876640 0.153632
H10   H     H_    0.371707 0.329037 0.753695 0.199573
H11   H     H_    0.605523 0.642165 0.874485 0.147398
H12   H     H_    0.663989 0.238401 0.615781 0.152767
H13   H     H_    0.792872 0.894049 0.724057 0.160118
H14   H     H_    0.664925 0.774383 0.618375 0.161447
H15   H     H_    0.605543 0.642231 0.124711 0.147635
H16   H     H_    0.371754 0.329009 0.246941 0.192626
N1    N     N_R   0.499190 0.498800 0.142780 -0.113897
N2    N     N_R   0.499160 0.498720 0.857170 -0.115251
O1    O     O_R   0.500000 0.316780 0.614690 -0.636177
O2    O     O_3   0.360505 0.867188 0.372618 -0.589736
O3    O     O_R   0.499990 0.316750 0.385360 -0.626050
O4    O     O_R   0.373720 0.500010 0.614690 -0.615261
O5    O     O_R   0.373710 0.499990 0.385360 -0.600774
O6    O     O_R   0.500010 0.683250 0.614640 -0.620328
O7    O     O_R   0.500000 0.683220 0.385310 -0.569203
O8    O     O_R   0.626290 0.500010 0.614640 -0.615767
O9    O     O_R   0.626280 0.499990 0.385310 -0.592347
O10   O     O_3   0.812727 0.136992 0.741445 -0.612545
Zn1   Zn    Zn3+2 0.500010 0.500020 0.653130 0.918918
Zn2   Zn    Zn3+2 0.499990 0.499980 0.346870 0.956739

loop_
_geom_bond_atom_site_label_1
_geom_bond_atom_site_label_2
_ccdc_geom_bond_type
C22   O10   S    
C24   H8    S    
C16   O8    A    
C8    C9    A    
C6    C7    A    
O3    Zn2   S    
O4    Zn1   S    
C4    O5    A    
C5    C28   A    
C9    C10   A    
C11   N1    A    
C19   C20   T    
O1    Zn1   S    
O8    Zn1   S    
C2    C30   A    
C16   O9    A    
C17   C18   T    
C25   C26   A    
C7    C8    A    
C13   C14   A    
C13   H15   S    
C22   H5    S    
C1    O3    A    
C26   C27   A    
C24   H6    S    
C23   H12   S    
C4    O4    A    
C14   H11   S    
C4    C17   S    
C23   C29   A    
C28   C29   A    
C8    H9    S    
C3    O2    S    
C26   H13   S    
C24   H7    S    
C10   N2    A    
C2    C3    A    
O6    Zn1   S    
C23   C25   A    
C24   O2    S    
C27   H14   S    
C22   H4    S    
C5    C15   S    
C10   C11   A    
C29   C30   A    
C15   O6    A    
C6    C11   A    
C20   C21   S    
N2    Zn1   S    
C18   C19   S    
C25   O10   S    
C27   C28   A    
C13   N1    A    
C22   H3    S    
C1    C30   S    
O9    Zn2   S    
C14   N2    A    
C7    H2    S    
C6    H16   S    
N1    Zn2   S    
O7    Zn2   S    
C1    O1    A    
C12   C21   T    
O5    Zn2   S    
C9    H10   S    
C12   C16   S    
C2    H1    S    
C3    C5    A    
C15   O7    A    
