data_mof_unit_37602.cif
_audit_creation_date              2012-12-11T17:01:35-0500
_audit_creation_method            fapswitch 2.2
_symmetry_space_group_name_H-M    P1
_symmetry_Int_Tables_number       1
_space_group_crystal_system       triclinic
_cell_length_a                    15.157081
_cell_length_b                    14.917077
_cell_length_c                    14.998684
_cell_angle_alpha                 109.936981
_cell_angle_beta                  108.485593
_cell_angle_gamma                 110.036737
_cell_volume                      2608.62216532

loop_
_atom_site_label
_atom_site_type_symbol
_atom_type_description
_atom_site_fract_x
_atom_site_fract_y
_atom_site_fract_z
_atom_type_partial_charge
C1    C     C_R   0.003790 0.803386 0.097946 -0.063926
C2    C     C_R   0.681159 0.231731 0.676666 0.037885
C3    C     C_R   0.072609 0.500567 0.703177 0.094434
C4    C     C_R   0.690104 0.508660 0.039778 0.040839
C5    C     C_R   0.022555 0.594792 0.310505 0.414543
C6    C     C_R   0.207929 0.413049 0.899008 -0.047624
C7    C     C_R   0.304410 0.797231 0.212319 -0.038589
C8    C     C_R   0.928324 0.211043 0.021619 0.324290
C9    C     C_R   0.026776 0.213293 0.937455 0.431182
C10   C     C_R   0.213870 0.800253 0.304784 -0.115558
C11   C     C_R   0.940295 0.409573 0.222469 -0.109441
C12   C     C_R   0.782177 0.257965 0.688536 -0.045216
C13   C     C_R   0.292066 0.593504 0.987032 -0.103021
C14   C     C_R   0.994486 0.503859 0.325095 0.019686
C15   C     C_R   0.299890 0.506782 0.928509 0.108698
C16   C     C_R   0.309785 0.858827 0.308533 0.051767
C17   C     C_R   0.988287 0.167057 0.993194 -0.065787
C18   C     C_3   0.517650 0.443728 0.884011 0.227358
C19   C     C_3   0.399365 0.422747 0.848493 -0.429267
C20   C     C_3   0.526517 0.461057 0.060444 0.387300
C21   C     C_3   0.614082 0.637847 0.049693 -0.439745
C22   C     C_3   0.590505 0.514738 0.012319 -0.108613
C23   C     C_R   0.103371 0.590834 0.797423 0.011032
C24   C     C_3   0.407075 0.514256 0.952869 -0.014841
C25   C     C_3   0.437371 0.489362 0.049397 -0.523942
C26   C     C_3   0.505933 0.637341 0.998995 0.255735
C27   C     C_R   0.589470 0.096116 0.485937 -0.053022
C28   C     C_R   0.583292 0.163249 0.572479 0.074129
C29   C     C_R   0.482574 0.133654 0.567830 -0.060826
C30   C     C_R   0.390598 0.036021 0.479132 -0.141911
C31   C     C_R   0.398603 0.968333 0.393818 0.081508
C32   C     C_R   0.498503 0.000534 0.398709 0.092796
C33   C     C_3   0.530065 0.016150 0.318400 -0.613636
C34   C     C_R   0.695894 0.413145 0.996018 0.404045
C35   C     C_3   0.629347 0.122495 0.413037 0.807897
C36   C     C_R   0.124169 0.604073 0.526097 0.064970
C37   C     C_R   0.047699 0.506378 0.426824 0.103408
C38   C     C_R   0.030507 0.407270 0.426649 -0.191740
C39   C     C_R   0.063744 0.405289 0.524378 -0.120481
C40   C     C_R   0.104606 0.503958 0.621986 0.105167
C41   C     C_R   0.147371 0.603657 0.621697 0.027824
C42   C     C_3   0.179342 0.723961 0.684430 0.128816
C43   C     C_3   0.157566 0.723976 0.577385 -0.400735
C44   C     C_R   0.013376 0.000801 0.124455 0.166012
C45   C     C_R   0.003770 0.408923 0.700100 -0.087195
C46   C     C_R   0.091350 0.982076 0.107122 -0.037235
C47   C     C_R   0.162573 0.054649 0.089750 -0.160210
C48   C     C_R   0.139268 0.132645 0.070754 -0.131229
C49   C     C_R   0.036150 0.120214 0.050862 -0.027876
C50   C     C_R   0.978659 0.062678 0.089062 0.214447
C51   C     C_3   0.973087 0.113869 0.191987 -0.415325
C52   C     C_3   0.020944 0.053307 0.232529 -0.514228
C53   C     C_R   0.788713 0.596915 0.079934 -0.042814
C54   C     C_R   0.688414 0.254306 0.777292 -0.027784
C55   C     C_R   0.094507 0.806019 0.006474 -0.025741
C56   C     C_R   0.067179 0.869213 0.072253 0.057661
H1    H     H_    0.979602 0.829498 0.158083 0.124718
H2    H     H_    0.172894 0.331773 0.831897 0.190745
H3    H     H_    0.358107 0.822075 0.181533 0.117255
H4    H     H_    0.186954 0.829406 0.361345 0.157803
H5    H     H_    0.901523 0.324129 0.200950 0.186643
H6    H     H_    0.321986 0.671833 0.990201 0.124126
H7    H     H_    0.512769 0.362059 0.855484 0.113345
H8    H     H_    0.805212 0.251632 0.627318 0.155091
H9    H     H_    0.488045 0.370149 0.011487 0.173707
H10   H     H_    0.368562 0.421962 0.040922 0.235743
H11   H     H_    0.662062 0.670180 0.013897 0.240917
H12   H     H_    0.463920 0.560961 0.127135 0.260150
H13   H     H_    0.475766 0.182227 0.635095 0.171572
H14   H     H_    0.172335 0.672180 0.837703 0.106555
H15   H     H_    0.314662 0.012985 0.478990 0.162093
H16   H     H_    0.548081 0.951541 0.281427 0.235354
H17   H     H_    0.473674 0.026558 0.260143 0.251678
H18   H     H_    0.989123 0.330823 0.351248 0.174056
H19   H     H_    0.090730 0.739476 0.550517 0.271748
H20   H     H_    0.026033 0.205308 0.241969 0.152493
H21   H     H_    0.105852 0.108728 0.300010 0.221657
H22   H     H_    0.968973 0.992442 0.246646 0.232984
H23   H     H_    0.969868 0.323155 0.643407 0.154721
H24   H     H_    0.819723 0.684021 0.124396 0.140931
H25   H     H_    0.623510 0.240411 0.795489 0.153402
H26   H     H_    0.150734 0.833855 0.978957 0.130474
N1    N     N_R   0.995640 0.706130 0.053910 -0.050036
N2    N     N_R   0.153680 0.443190 0.946090 -0.059871
N3    N     N_R   0.208920 0.706140 0.152110 -0.061423
N4    N     N_R   0.947120 0.293870 0.002870 -0.098294
N5    N     N_R   0.004360 0.293870 0.946090 -0.111197
N6    N     N_R   0.151690 0.706140 0.208890 -0.051649
N7    N     N_R   0.945990 0.443210 0.152110 -0.068346
N8    N     N_R   0.210060 0.556810 0.002870 -0.062349
N9    N     N_R   0.848310 0.293860 0.791110 -0.057987
N10   N     N_R   0.054010 0.556790 0.847890 -0.057596
N11   N     N_R   0.789940 0.443190 0.997130 -0.083505
N12   N     N_R   0.997630 0.443170 0.791110 -0.063539
N13   N     N_R   0.846320 0.556810 0.053910 -0.071959
N14   N     N_R   0.791080 0.293860 0.847890 -0.036724
N15   N     N_R   0.052880 0.706130 0.997130 -0.055489
N16   N     N_R   0.002370 0.556830 0.208890 -0.086575
Ni1   Ni    Ni4+2 0.999010 0.630300 0.130220 0.274574
Ni2   Ni    Ni4+2 0.000990 0.369700 0.869780 0.278959
Ni3   Ni    Ni4+2 0.130280 0.630280 0.000000 0.225265
Ni4   Ni    Ni4+2 0.869720 0.369720 0.000000 0.346791
Cl1   Cl    Cl    0.798916 0.131184 0.998353 -0.569816
Cl2   Cl    Cl    0.063565 0.153220 0.843572 -0.545992
Cl3   Cl    Cl    0.583524 0.497337 0.817164 -0.526900
C57   C     C_2   0.350871 0.427684 0.744453 1.280562
O1    O     O_2   0.302743 0.478332 0.738069 -0.605943
O2    O     O_R   0.356232 0.368636 0.652912 -0.705070
H27   H     H_    0.319477 0.376419 0.588841 0.334739
C58   C     C_2   0.328518 0.299945 0.812265 0.928643
O3    O     O_2   0.299021 0.272241 0.870126 -0.561445
O4    O     O_R   0.304175 0.216833 0.713171 -0.747602
H28   H     H_    0.259931 0.139641 0.698485 0.378858
C59   C     C_2   0.688454 0.721633 0.172203 1.079165
O5    O     O_2   0.669608 0.705411 0.240245 -0.495390
O6    O     O_R   0.775730 0.822311 0.205877 -0.798056
H29   H     H_    0.817988 0.872642 0.287883 0.362954
Cl4   Cl    Cl    0.502839 0.667814 0.891084 -0.438783
C60   C     C_2   0.510867 0.738028 0.081573 0.936184
O7    O     O_2   0.507810 0.743036 0.163572 -0.649234
O8    O     O_R   0.515446 0.824094 0.061067 -0.716160
H30   H     H_    0.506269 0.879747 0.112648 0.320366
Cl5   Cl    Cl    0.603402 0.488980 0.195404 -0.416270
Cl6   Cl    Cl    0.749210 0.117603 0.427612 -0.579741
Cl7   Cl    Cl    0.634093 0.243385 0.411573 -0.485165
C61   C     C_2   0.050981 0.299769 0.519840 1.050344
O9    O     O_2   0.990491 0.212197 0.433725 -0.588860
O10   O     O_R   0.109501 0.299798 0.612912 -0.824890
H31   H     H_    0.093965 0.223060 0.598682 0.347177
Cl8   Cl    Cl    0.085719 0.749727 0.723305 -0.535010
C62   C     C_2   0.294588 0.798273 0.776648 1.012309
O11   O     O_2   0.348779 0.758820 0.806166 -0.557326
O12   O     O_R   0.338419 0.912796 0.829274 -0.684276
H32   H     H_    0.415888 0.954134 0.889670 0.363321
Cl9   Cl    Cl    0.615275 0.284184 0.978158 -0.567175
C63   C     C_2   0.253614 0.793371 0.572374 1.058415
O13   O     O_2   0.291041 0.893335 0.615047 -0.572313
O14   O     O_R   0.297668 0.743745 0.516898 -0.778047
H33   H     H_    0.360319 0.799315 0.518137 0.339335
C64   C     C_2   0.261976 0.052488 0.099772 1.054669
O15   O     O_2   0.318363 0.052041 0.178433 -0.658566
O16   O     O_R   0.288525 0.045584 0.017467 -0.670784
H34   H     H_    0.357691 0.043302 0.033723 0.354490
C65   C     C_2   0.225399 0.235841 0.090780 1.082300
O17   O     O_2   0.291570 0.234259 0.061325 -0.518269
O18   O     O_R   0.230930 0.336268 0.145633 -0.819869
H35   H     H_    0.292952 0.401340 0.156190 0.337273
C66   C     C_2   0.858743 0.071421 0.172227 1.283756
O19   O     O_2   0.833713 0.134810 0.218999 -0.571265
O20   O     O_R   0.781339 0.959496 0.099675 -0.720218
H36   H     H_    0.707851 0.941602 0.092603 0.384818
Cl10  Cl    Cl    0.998685 0.703004 0.363389 -0.646129

loop_
_geom_bond_atom_site_label_1
_geom_bond_atom_site_label_2
_ccdc_geom_bond_type
C21   C26   S    
C61   O9    D    
N14   Ni4   S    
C13   N8    A    
C53   N13   A    
C41   C42   S    
C6    H2    S    
C12   N9    A    
C3    C23   A    
C34   N11   A    
C55   C56   A    
C2    C12   A    
O10   H31   S    
C59   O5    D    
C7    N3    A    
O2    H27   S    
C16   C31   S    
C28   C29   A    
C29   C30   A    
C5    Cl10  S    
C51   H20   S    
C34   Cl9   S    
C35   Cl6   S    
C1    C56   A    
C24   C26   S    
N5    Ni2   S    
C38   C39   A    
C4    C53   A    
C11   C14   A    
N13   Ni1   S    
C18   H7    S    
N3    N6    A    
C20   C25   S    
C44   C50   A    
O6    H29   S    
C48   C65   S    
C18   C19   S    
C35   Cl7   S    
C58   O3    D    
C20   Cl5   S    
C33   H16   S    
N9    N14   A    
C13   H6    S    
C31   C32   A    
C47   C64   S    
C42   C62   S    
N9    Ni2   S    
C54   N14   A    
C23   N10   A    
C44   C52   S    
C6    C15   A    
N11   N13   A    
C39   C61   S    
N1    Ni1   S    
C21   C22   S    
C21   H11   S    
C23   H14   S    
C36   C41   A    
C25   H12   S    
N2    N8    A    
C52   H22   S    
C45   N12   A    
C7    H3    S    
O4    H28   S    
C44   C46   A    
C30   H15   S    
C29   H13   S    
C60   O8    S    
C43   H19   S    
C4    C34   A    
C6    N2    A    
C51   C52   S    
N2    Ni2   S    
C20   H9    S    
C53   H24   S    
C24   C25   S    
C65   O18   S    
C2    C54   A    
C17   C49   S    
C39   C40   A    
N4    N5    A    
C65   O17   D    
C62   O12   S    
C3    C45   A    
C10   H4    S    
C26   C60   S    
N8    Ni3   S    
C37   C38   A    
C1    H1    S    
C4    C22   S    
C11   N7    A    
C47   C48   A    
N12   Ni2   S    
C10   N6    A    
C55   N15   A    
N7    Ni4   S    
N10   N12   A    
C50   C51   S    
C5    C14   A    
C45   H23   S    
C15   C24   S    
C64   O15   D    
C55   H26   S    
O8    H30   S    
N10   Ni3   S    
C33   H17   S    
C40   C41   A    
C20   C22   S    
C3    C40   S    
C49   C50   A    
C13   C15   A    
N1    N15   A    
O12   H32   S    
C42   C43   S    
C52   H21   S    
N4    Ni4   S    
N3    Ni3   S    
C63   O14   S    
O18   H35   S    
C38   H18   S    
C19   C58   S    
C9    C17   A    
C12   H8    S    
C46   C47   A    
C36   C37   A    
C61   O10   S    
C27   C32   A    
C18   C22   S    
C7    C16   A    
C25   H10   S    
C26   Cl4   S    
C66   O20   S    
C21   C59   S    
C11   H5    S    
N11   Ni4   S    
C59   O6    S    
C60   O7    D    
C64   O16   S    
C1    N1    A    
C8    C17   A    
C42   Cl8   S    
N7    N16   A    
C27   C35   S    
C32   C33   S    
C19   C24   S    
C18   Cl3   S    
C10   C16   A    
C9    N5    A    
C14   C37   S    
C30   C31   A    
C57   O2    S    
C51   C66   S    
C9    Cl2   S    
C48   C49   A    
C33   C35   S    
C8    N4    A    
C66   O19   D    
C43   C63   S    
C8    Cl1   S    
C58   O4    S    
N6    Ni1   S    
O14   H33   S    
C19   C57   S    
C5    N16   A    
N16   Ni1   S    
C57   O1    D    
C46   C56   S    
C27   C28   A    
O16   H34   S    
O20   H36   S    
C63   O13   D    
C36   C43   S    
C2    C28   S    
C54   H25   S    
N15   Ni3   S    
C62   O11   D    
