data_mof_unit_23953.cif
_audit_creation_date              2012-12-10T19:46:54-0500
_audit_creation_method            fapswitch 2.2
_symmetry_space_group_name_H-M    P1
_symmetry_Int_Tables_number       1
_space_group_crystal_system       triclinic
_cell_length_a                    10.897338
_cell_length_b                    10.908754
_cell_length_c                    13.093178
_cell_angle_alpha                 90.904951
_cell_angle_beta                  91.04929
_cell_angle_gamma                 90.353569
_cell_volume                      1555.98200274

loop_
_atom_site_label
_atom_site_type_symbol
_atom_type_description
_atom_site_fract_x
_atom_site_fract_y
_atom_site_fract_z
_atom_type_partial_charge
C1    C     C_R   0.497324 0.259434 0.498858 0.816366
C2    C     C_R   0.496503 0.740565 0.501036 0.849350
C3    C     C_R   0.872812 0.490275 0.502587 -0.072297
C4    C     C_R   0.126960 0.502293 0.496663 -0.081156
C5    C     C_R   0.942129 0.473222 0.593414 0.059146
C6    C     C_R   0.057670 0.517081 0.405422 0.061586
C7    C     C_R   0.369025 0.191208 0.161997 -0.139871
C8    C     C_R   0.550210 0.844203 0.865931 -0.136689
C9    C     C_R   0.379717 0.149829 0.262114 -0.183099
C10   C     C_R   0.565841 0.889771 0.767886 -0.212383
C11   C     C_R   0.494218 0.113799 0.302038 0.101703
C12   C     C_R   0.468229 0.886580 0.696347 0.099945
C13   C     C_R   0.599231 0.120968 0.240579 0.292536
C14   C     C_R   0.353469 0.837565 0.724382 0.322915
C15   C     C_R   0.586843 0.161692 0.139603 -0.213396
C16   C     C_R   0.339646 0.790192 0.822725 -0.207086
C17   C     C_R   0.472195 0.196001 0.100536 -0.148542
C18   C     C_R   0.437217 0.794918 0.893399 -0.151482
C19   C     C_R   0.501108 0.932080 0.409058 -0.237095
C20   C     C_R   0.489628 0.068089 0.590641 -0.280134
C21   C     C_R   0.494184 0.872988 0.502803 -0.079675
C22   C     C_R   0.495752 0.127083 0.496910 -0.104146
C23   C     C_R   0.259426 0.503750 0.498807 0.857100
C24   C     C_R   0.740350 0.493074 0.501042 0.850445
C25   C     C_R   0.485500 0.941576 0.594775 0.049112
C26   C     C_R   0.499663 0.058603 0.404655 0.046275
C27   C     C_1   0.500216 0.500106 0.173514 0.157964
C28   C     C_1   0.500140 0.499719 0.826489 0.156771
C29   C     C_1   0.500345 0.500005 0.050696 -0.112107
C30   C     C_1   0.500350 0.499685 0.949310 -0.114703
C31   C     C_R   0.218452 0.677100 0.188135 -0.278106
C32   C     C_R   0.779343 0.311749 0.808815 -0.283625
C33   C     C_R   0.173531 0.655028 0.285930 0.323296
C34   C     C_R   0.824115 0.335224 0.711153 0.330860
C35   C     C_R   0.111180 0.543682 0.304308 0.067198
C36   C     C_R   0.888383 0.445729 0.694167 0.070403
C37   C     C_R   0.090359 0.459841 0.223110 -0.308466
C38   C     C_R   0.910472 0.527895 0.776339 -0.310574
C39   C     C_R   0.131725 0.483652 0.124356 0.361570
C40   C     C_R   0.868048 0.503133 0.874579 0.362482
C41   C     C_R   0.196643 0.593409 0.107903 -0.164245
C42   C     C_R   0.802290 0.393838 0.889969 -0.154053
C43   C     C_R   0.931089 0.509831 0.409923 -0.273780
C44   C     C_R   0.068738 0.480988 0.589050 -0.296744
Cu1   Cu    Cu3+1 0.499990 0.499990 0.592680 0.973866
Cu2   Cu    Cu3+1 0.500010 0.500010 0.407320 0.975253
H1    H     H_    0.666262 0.166888 0.091291 0.123341
H2    H     H_    0.252353 0.752075 0.845145 0.116043
H3    H     H_    0.505033 0.879503 0.338151 0.150620
H4    H     H_    0.484389 0.120778 0.661413 0.156488
H5    H     H_    0.039351 0.376204 0.236649 0.131409
H6    H     H_    0.962669 0.611071 0.763864 0.130241
H7    H     H_    0.877571 0.523318 0.340336 0.161581
H8    H     H_    0.122334 0.467410 0.658588 0.162464
H9    H     H_    0.280359 0.218137 0.131696 0.143285
H10   H     H_    0.625599 0.847806 0.920878 0.131629
H11   H     H_    0.298380 0.143888 0.308196 0.126847
H12   H     H_    0.653761 0.928589 0.747826 0.135110
N1    N     N_1   0.500030 0.500030 0.268070 -0.136895
N2    N     N_1   0.499970 0.499970 0.731930 -0.139646
O1    O     O_R   0.499980 0.319630 0.578260 -0.590113
O2    O     O_R   0.500020 0.680370 0.421740 -0.590237
O3    O     O_R   0.500000 0.319650 0.421740 -0.572423
O4    O     O_R   0.500000 0.680350 0.578260 -0.573485
O5    O     O_R   0.319630 0.500000 0.578260 -0.594810
O6    O     O_R   0.680370 0.500000 0.421740 -0.592010
O7    O     O_R   0.319650 0.500020 0.421740 -0.572850
O8    O     O_R   0.680350 0.499980 0.578260 -0.572371
H13   H     H_    0.229348 0.616472 0.033169 0.140920
H14   H     H_    0.770759 0.369872 0.964909 0.143567
N3    N     N_2   0.716379 0.084781 0.278785 -0.450530
H15   H     H_    0.770913 0.045678 0.223686 0.238184
C45   C     C_3   0.781304 0.179572 0.336812 -0.661367
H16   H     H_    0.871681 0.144343 0.363098 0.216516
H17   H     H_    0.728779 0.207074 0.405092 0.247327
H18   H     H_    0.797040 0.261022 0.288630 0.216437
N4    N     N_2   0.251611 0.837758 0.654873 -0.432543
H19   H     H_    0.196236 0.761108 0.660052 0.246447
C46   C     C_3   0.181277 0.949806 0.658225 -0.733219
H20   H     H_    0.105878 0.945030 0.600243 0.230325
H21   H     H_    0.240103 0.030041 0.641130 0.245764
H22   H     H_    0.140479 0.962870 0.734805 0.218683
H23   H     H_    0.267383 0.761482 0.173227 0.140035
H24   H     H_    0.729731 0.227480 0.822731 0.139091
N5    N     N_2   0.190507 0.745310 0.364861 -0.430995
H25   H     H_    0.263182 0.804668 0.354761 0.250423
C47   C     C_3   0.080187 0.805836 0.399237 -0.691499
H26   H     H_    0.092247 0.906998 0.396935 0.214378
H27   H     H_    0.062295 0.779226 0.479019 0.244471
H28   H     H_    0.998517 0.780665 0.350929 0.224941
N6    N     N_2   0.805881 0.246767 0.631164 -0.440604
H29   H     H_    0.725012 0.197964 0.636790 0.253451
C48   C     C_3   0.909351 0.166566 0.615721 -0.750899
H30   H     H_    0.888244 0.101498 0.551680 0.234144
H31   H     H_    0.928323 0.113008 0.685735 0.226430
H32   H     H_    0.992387 0.220125 0.596203 0.247863
N7    N     N_2   0.099969 0.399741 0.042823 -0.414489
H33   H     H_    0.064737 0.316397 0.064772 0.234637
C49   C     C_3   0.177158 0.392795 0.954118 -0.700456
H34   H     H_    0.142836 0.318817 0.901569 0.223936
H35   H     H_    0.272876 0.371417 0.977550 0.224682
H36   H     H_    0.173686 0.479678 0.911251 0.229449
N8    N     N_2   0.899956 0.584468 0.957637 -0.409739
H37   H     H_    0.952282 0.659522 0.938425 0.238381
C50   C     C_3   0.805629 0.613174 0.030478 -0.689679
H38   H     H_    0.841142 0.682760 0.086578 0.219023
H39   H     H_    0.779951 0.530798 0.074004 0.231528
H40   H     H_    0.723815 0.651114 0.990616 0.225622
H41   H     H_    0.463447 0.226700 0.022559 0.142170
H42   H     H_    0.425141 0.760458 0.969650 0.140291

loop_
_geom_bond_atom_site_label_1
_geom_bond_atom_site_label_2
_ccdc_geom_bond_type
C47   H26   S    
Cu1   N2    S    
C48   H30   S    
Cu2   N1    S    
C27   C29   S    
C45   H16   S    
C7    H9    S    
C16   H2    S    
N7    H33   S    
C39   C41   A    
N4    H19   S    
C50   H39   S    
C3    C43   A    
Cu2   O2    S    
C41   H13   S    
C10   H12   S    
Cu2   O6    S    
C37   H5    S    
C39   N7    S    
C38   H6    S    
C20   C25   A    
C5    C36   S    
C42   H14   S    
C31   H23   S    
C6    C35   S    
C7    C9    A    
C14   N4    S    
C23   O7    A    
C19   C26   A    
C33   N5    S    
C34   N6    S    
C20   H4    S    
C43   H7    S    
C7    C17   A    
C31   C33   A    
C15   H1    S    
C34   C36   A    
C24   O6    A    
Cu1   O1    S    
C40   C42   A    
C1    C22   S    
C48   H31   S    
C45   H17   S    
C8    H10   S    
C3    C24   S    
C2    C21   S    
C1    O3    A    
N7    C49   S    
C2    O4    A    
C28   N2    T    
C32   H24   S    
C50   H40   S    
N5    C47   S    
C4    C6    A    
N6    H29   S    
C46   H21   S    
C4    C23   S    
C13   N3    S    
C11   C26   S    
N5    H25   S    
C8    C18   A    
C17   H41   S    
C32   C34   A    
C29   C30   T    
C44   H8    S    
N6    C48   S    
C19   H3    S    
C49   H34   S    
Cu1   O8    S    
N4    C46   S    
N8    C50   S    
C9    C11   A    
C10   C12   A    
C16   C18   A    
C49   H35   S    
C5    C44   A    
C20   C22   A    
C48   H32   S    
C6    C43   A    
C13   C15   A    
Cu1   O5    S    
C45   H18   S    
C14   C16   A    
N3    C45   S    
C15   C17   A    
C21   C25   A    
C31   C41   A    
C35   C37   A    
C18   H42   S    
C12   C14   A    
C3    C5    A    
C1    O1    A    
C46   H22   S    
C4    C44   A    
C50   H38   S    
C12   C25   S    
Cu1   O4    S    
Cu2   O3    S    
C23   O5    A    
C36   C38   A    
N3    H15   S    
C37   C39   A    
C27   N1    T    
C40   N8    S    
C38   C40   A    
C11   C13   A    
C28   C30   S    
C33   C35   A    
C9    H11   S    
C24   O8    A    
C46   H20   S    
Cu1   Cu2   S    
Cu2   O7    S    
C49   H36   S    
C8    C10   A    
C22   C26   A    
C47   H28   S    
N8    H37   S    
C47   H27   S    
C32   C42   A    
C2    O2    A    
C19   C21   A    
