data_mof_unit_50478.cif
_audit_creation_date              2012-10-26T21:05:42-0400
_audit_creation_method            fapswitch 2.2
_symmetry_space_group_name_H-M    P1
_symmetry_Int_Tables_number       1
_space_group_crystal_system       triclinic
_cell_length_a                    13.072981
_cell_length_b                    9.089334
_cell_length_c                    7.781139
_cell_angle_alpha                 90.000438
_cell_angle_beta                  95.301821
_cell_angle_gamma                 90.000261
_cell_volume                      920.635812523

loop_
_atom_site_label
_atom_site_type_symbol
_atom_type_description
_atom_site_fract_x
_atom_site_fract_y
_atom_site_fract_z
_atom_type_partial_charge
C1    C     C_R   0.500000 0.220027 0.500000 0.532182
C2    C     C_R   0.865139 0.493505 0.710036 -0.209301
C3    C     C_R   0.133746 0.469468 0.602111 0.262450
C4    C     C_R   0.866251 0.469372 0.397916 0.262427
C5    C     C_R   0.026451 0.477591 0.583352 0.018942
C6    C     C_R   0.973548 0.477488 0.416657 0.018965
C7    C     C_1   0.500001 0.065397 0.499999 -0.064207
C8    C     C_1   0.500001 0.934639 0.500001 -0.055997
C9    C     C_3   0.786406 0.304319 0.205655 0.032144
C10   C     C_3   0.869498 0.218301 0.121443 -0.298418
C11   C     C_3   0.832357 0.064517 0.067520 -0.468481
C12   C     C_R   0.500000 0.779982 0.500000 0.554650
C13   C     C_3   0.213589 0.304602 0.794602 0.032155
C14   C     C_3   0.130312 0.218476 0.878243 -0.298454
C15   C     C_3   0.167462 0.064784 0.932529 -0.468484
C16   C     C_R   0.300289 0.495539 0.469724 0.548501
C17   C     C_R   0.699711 0.495552 0.530276 0.548523
C18   C     C_R   0.811707 0.485611 0.545762 -0.002527
C19   C     C_R   0.188293 0.485555 0.454245 -0.002533
C20   C     C_R   0.028683 0.486409 0.271310 -0.154403
C21   C     C_R   0.971318 0.486711 0.728686 -0.154411
C22   C     C_R   0.134861 0.493242 0.289954 -0.209244
Cu1   Cu    Cu3+1 0.500010 0.500000 0.669080 1.017706
Cu2   Cu    Cu3+1 0.499990 0.500000 0.330920 1.017669
H1    H     H_    0.824894 0.504826 0.824937 0.169342
H2    H     H_    0.894473 0.005000 0.008345 0.152550
H3    H     H_    0.764303 0.071530 0.971191 0.158030
H4    H     H_    0.284628 0.304577 0.884853 0.176753
H5    H     H_    0.233488 0.247013 0.675344 0.115786
H6    H     H_    0.108758 0.278372 0.993933 0.162831
H7    H     H_    0.061024 0.207538 0.785198 0.158638
H8    H     H_    0.188512 0.001741 0.818658 0.160596
H9    H     H_    0.105179 0.005119 0.991086 0.152571
H10   H     H_    0.235209 0.071968 0.029469 0.157982
H11   H     H_    0.175107 0.504419 0.175036 0.169335
H12   H     H_    0.989654 0.492191 0.143085 0.154260
H13   H     H_    0.010347 0.492687 0.856897 0.154345
H14   H     H_    0.715195 0.304225 0.115833 0.176847
H15   H     H_    0.766815 0.246689 0.325062 0.115600
H16   H     H_    0.890691 0.278193 0.005517 0.162960
H17   H     H_    0.939005 0.207521 0.214019 0.158647
H18   H     H_    0.811786 0.001428 0.181672 0.160570
N1    N     N_1   0.499980 0.500000 0.076820 -0.084686
N2    N     N_1   0.500020 0.500000 0.923180 -0.084661
O1    O     O_R   0.500000 0.288400 0.642760 -0.513092
O2    O     O_3   0.184242 0.453621 0.766042 -0.567100
O3    O     O_R   0.500000 0.711600 0.357240 -0.492583
O4    O     O_R   0.500000 0.288400 0.357240 -0.513125
O5    O     O_R   0.500000 0.711600 0.642760 -0.492586
O6    O     O_R   0.349000 0.500000 0.619590 -0.464885
O7    O     O_R   0.651000 0.500000 0.380410 -0.464875
O8    O     O_R   0.348990 0.500000 0.334020 -0.516412
O9    O     O_R   0.651010 0.500000 0.665980 -0.516394
O10   O     O_3   0.815745 0.453365 0.234017 -0.567097

loop_
_geom_bond_atom_site_label_1
_geom_bond_atom_site_label_2
_ccdc_geom_bond_type
Cu2   O8    S    
N1    N2    T    
C13   H4    S    
C3    C19   A    
Cu1   O1    S    
C2    C18   A    
C6    C20   A    
C9    C10   S    
C15   H10   S    
C11   H3    S    
C14   H7    S    
C8    C12   S    
C4    C18   A    
C17   O7    A    
C2    C21   A    
C17   C18   S    
C5    C21   A    
C15   H8    S    
C1    O4    A    
C13   C14   S    
C10   H17   S    
C22   H11   S    
C1    O1    A    
C5    C6    A    
C14   H6    S    
C16   C19   S    
Cu1   O9    S    
C4    C6    A    
C9    H14   S    
C16   O6    A    
C12   O5    A    
C2    H1    S    
C12   O3    A    
C13   O2    S    
Cu1   O5    S    
Cu2   O7    S    
C10   C11   S    
Cu1   Cu2   S    
Cu2   O4    S    
C17   O9    A    
C7    C8    T    
C19   C22   A    
C21   H13   S    
C11   H18   S    
C10   H16   S    
C13   H5    S    
Cu2   N1    S    
C14   C15   S    
Cu1   O6    S    
C9    O10   S    
C3    O2    S    
C11   H2    S    
C4    O10   S    
C1    C7    S    
Cu2   O3    S    
C15   H9    S    
C9    H15   S    
Cu1   N2    S    
C16   O8    A    
C20   C22   A    
C3    C5    A    
C20   H12   S    
