data_mof_unit_56325.cif
_audit_creation_date              2012-12-11T15:45:03-0500
_audit_creation_method            fapswitch 2.2
_symmetry_space_group_name_H-M    P1
_symmetry_Int_Tables_number       1
_space_group_crystal_system       triclinic
_cell_length_a                    6.920144
_cell_length_b                    16.856127
_cell_length_c                    17.065659
_cell_angle_alpha                 100.318588
_cell_angle_beta                  90.690761
_cell_angle_gamma                 89.762973
_cell_volume                      1958.31376912

loop_
_atom_site_label
_atom_site_type_symbol
_atom_type_description
_atom_site_fract_x
_atom_site_fract_y
_atom_site_fract_z
_atom_type_partial_charge
O1    O     O_R   0.494370 0.415690 0.413450 -0.511463
O2    O     O_R   0.819420 0.429360 0.578420 -0.552569
O3    O     O_R   0.994280 0.584310 0.586550 -0.570313
C1    C     C_R   0.652523 0.412674 0.604483 0.741676
O4    O     O_R   0.823790 0.406230 0.413570 -0.525498
O5    O     O_R   0.998670 0.561000 0.420530 -0.525779
C2    C     C_R   0.653978 0.384180 0.383892 0.828672
O6    O     O_R   0.489970 0.439000 0.579470 -0.519163
O7    O     O_3   0.662300 0.550810 0.502470 -0.390871
V1    V     V_3+5 0.935380 0.490570 0.499540 1.584950
O8    O     O_R   0.328650 0.570640 0.421580 -0.528753
C3    C     C_R   0.157830 0.585901 0.394556 0.878349
O9    O     O_R   0.324290 0.593770 0.586430 -0.542332
C4    C     C_R   0.155175 0.614980 0.616811 0.703053
V2    V     V_3+5 0.435930 0.509430 0.500460 1.596335
O10   O     O_3   0.159140 0.449190 0.497530 -0.343013
C5    C     C_R   0.286790 0.739365 0.702967 -0.095564
H1    H     H_    0.408377 0.737017 0.663214 0.149013
C6    C     C_R   0.275972 0.802980 0.767733 -0.140812
H2    H     H_    0.390203 0.847469 0.775905 0.140083
C7    C     C_R   0.119153 0.810458 0.820215 -0.136717
C8    C     C_R   0.975868 0.749522 0.808743 0.375832
C9    C     C_R   0.986393 0.684882 0.743233 -0.082820
C10   C     C_R   0.141486 0.680593 0.688307 -0.160430
C11   C     C_R   0.137355 0.637181 0.331857 -0.167756
C12   C     C_R   0.127865 0.863708 0.167541 -0.085333
C13   C     C_R   0.304348 0.834516 0.282878 -0.145702
C14   C     C_R   0.268506 0.884049 0.227187 -0.109941
C15   C     C_R   0.023689 0.792099 0.164027 -0.155635
C16   C     C_R   0.065533 0.738214 0.217338 0.069511
C17   C     C_R   0.205789 0.760644 0.279031 0.063460
C18   C     C_R   0.240389 0.710563 0.336759 -0.130080
C19   C     C_R   0.005134 0.613575 0.267954 0.289359
C20   C     C_R   0.969321 0.663179 0.210906 -0.118170
H3    H     H_    0.411364 0.855066 0.328553 0.120486
H4    H     H_    0.350958 0.939169 0.231033 0.141037
H5    H     H_    0.913762 0.778580 0.118137 0.171158
C21   C     C_R   0.654850 0.359276 0.665473 -0.122470
C22   C     C_R   0.606072 0.131695 0.827054 -0.128133
C23   C     C_R   0.434729 0.170619 0.713282 -0.088334
C24   C     C_R   0.460948 0.116542 0.766524 -0.044777
C25   C     C_R   0.729043 0.198184 0.828986 -0.159703
C26   C     C_R   0.703790 0.251375 0.774430 0.094180
C27   C     C_R   0.552966 0.238765 0.716672 0.035657
C28   C     C_R   0.526816 0.293483 0.662616 0.311538
C29   C     C_R   0.804075 0.369924 0.723118 -0.138069
C30   C     C_R   0.827037 0.317455 0.777250 -0.126456
H6    H     H_    0.905566 0.419124 0.725848 0.171254
H7    H     H_    0.322078 0.158206 0.668337 0.217040
H8    H     H_    0.943739 0.328006 0.820755 0.146167
H9    H     H_    0.840265 0.210149 0.874850 0.126867
C31   C     C_R   0.794566 0.261177 0.300246 -0.158891
H10   H     H_    0.920451 0.268275 0.339231 0.199527
C32   C     C_R   0.787844 0.195487 0.237067 0.401983
C33   C     C_R   0.624270 0.183661 0.185376 -0.197835
C34   C     C_R   0.470539 0.238756 0.199872 -0.184773
H11   H     H_    0.344664 0.231694 0.160880 0.195688
C35   C     C_R   0.477289 0.304418 0.263048 0.416832
C36   C     C_R   0.640731 0.316234 0.314763 -0.181342
O11   O     O_R   0.774880 0.061150 0.920630 -0.536594
O12   O     O_R   0.440980 0.093710 0.086500 -0.539082
O13   O     O_R   0.266190 0.938890 0.079390 -0.541809
C37   C     C_R   0.610815 0.115714 0.116244 0.764099
O14   O     O_R   0.445420 0.070740 0.921670 -0.556235
O15   O     O_R   0.270660 0.915760 0.913380 -0.548576
C38   C     C_R   0.611481 0.084405 0.893178 0.663675
O16   O     O_R   0.770400 0.084270 0.086640 -0.512035
O17   O     O_3   0.602590 0.949210 0.997500 -0.358262
V3    V     V_3+5 0.329470 0.009420 0.000470 1.515547
O18   O     O_R   0.940650 0.906250 0.913470 -0.516916
C39   C     C_R   0.109456 0.881551 0.886403 0.745391
O19   O     O_R   0.936210 0.929220 0.078300 -0.530358
C40   C     C_R   0.106941 0.914021 0.105096 0.764544
V4    V     V_3+5 0.828930 0.990510 0.999490 1.573497
O20   O     O_3   0.105680 0.050790 0.002500 -0.366895
Cl1   Cl    Cl    0.342576 0.277324 0.588532 -0.645099
C41   C     C_2   0.338791 0.042887 0.756212 0.404436
H12   H     H_    0.378342 0.992952 0.785204 0.027172
O21   O     O_2   0.193211 0.036653 0.714394 -0.522670
Cl2   Cl    Cl    0.985933 0.128351 0.228692 -0.650147
Cl3   Cl    Cl    0.279338 0.371520 0.271422 -0.570378
Cl4   Cl    Cl    0.783347 0.751567 0.876976 -0.576199
C42   C     C_2   0.836716 0.621128 0.734912 0.474050
H13   H     H_    0.739778 0.611236 0.683715 0.027055
O22   O     O_2   0.819356 0.579779 0.786255 -0.490963
C43   C     C_2   0.378752 0.736684 0.403706 0.389617
H14   H     H_    0.522325 0.757035 0.391997 0.046983
O23   O     O_2   0.331556 0.737510 0.472566 -0.537007
Cl5   Cl    Cl    0.891866 0.517600 0.255273 -0.603035
C44   C     C_2   0.831952 0.634034 0.144422 0.488861
H15   H     H_    0.695284 0.607519 0.156490 0.098189
O24   O     O_2   0.874362 0.635465 0.075447 -0.481070

loop_
_geom_bond_atom_site_label_1
_geom_bond_atom_site_label_2
_ccdc_geom_bond_type
C33   C34   A    
C6    H2    S    
C1    O6    A    
C22   C24   A    
C41   H12   S    
C31   H10   S    
C9    C42   S    
C7    C39   S    
C28   Cl1   S    
C8    Cl4   S    
C6    C7    A    
O5    C3    A    
C16   C17   A    
C43   O23   D    
O17   V4    S    
V2    O10   S    
C12   C40   S    
C34   H11   S    
C4    C10   S    
O12   C37   A    
C21   C28   A    
C29   C30   A    
O8    V2    S    
C42   H13   S    
O17   V3    S    
C33   C37   S    
O18   V4    S    
C9    C10   A    
O13   C40   A    
O18   C39   A    
O1    V2    S    
C22   C25   A    
O7    V1    S    
C25   H9    S    
C11   C18   A    
O11   C38   A    
O9    C4    A    
C2    C36   S    
C31   C32   A    
C5    H1    S    
C30   H8    S    
C32   Cl2   S    
C41   O21   D    
C37   O16   A    
C5    C10   A    
V4    O20   S    
C16   C20   A    
C13   C17   A    
O19   V4    S    
C35   Cl3   S    
O4    C2    A    
C43   H14   S    
C13   H3    S    
C35   C36   A    
O15   C39   A    
O13   V3    S    
O14   C38   A    
O2    C1    A    
C26   C27   A    
C20   C44   S    
C15   C16   A    
C31   C36   A    
C19   Cl5   S    
C44   O24   D    
C17   C18   A    
C18   C43   S    
C19   C20   A    
O16   V4    S    
O14   V3    S    
O3    C4    A    
C23   C24   A    
C42   O22   D    
C1    C21   S    
O6    V2    S    
O9    V2    S    
C22   C38   S    
C25   C26   A    
O2    V1    S    
C27   C28   A    
O12   V3    S    
C32   C33   A    
O1    C2    A    
O19   C40   A    
O5    V1    S    
O8    C3    A    
C12   C14   A    
C3    C11   S    
O7    V2    S    
O4    V1    S    
O3    V1    S    
V1    O10   S    
C24   C41   S    
C44   H15   S    
O15   V3    S    
O11   V4    S    
C5    C6    A    
C34   C35   A    
V3    O20   S    
C21   C29   A    
C29   H6    S    
C23   C27   A    
C14   H4    S    
C12   C15   A    
C15   H5    S    
C13   C14   A    
C8    C9    A    
C7    C8    A    
C26   C30   A    
C23   H7    S    
C11   C19   A    
