data_mof_unit_40060.cif
_audit_creation_date              2012-12-10T17:53:20-0500
_audit_creation_method            fapswitch 2.2
_symmetry_space_group_name_H-M    P1
_symmetry_Int_Tables_number       1
_space_group_crystal_system       triclinic
_cell_length_a                    23.415801
_cell_length_b                    10.62494
_cell_length_c                    9.915058
_cell_angle_alpha                 89.938767
_cell_angle_beta                  89.902504
_cell_angle_gamma                 91.688601
_cell_volume                      2465.70562764

loop_
_atom_site_label
_atom_site_type_symbol
_atom_type_description
_atom_site_fract_x
_atom_site_fract_y
_atom_site_fract_z
_atom_type_partial_charge
C1    C     C_R   0.501471 0.260735 0.500085 0.854739
C2    C     C_R   0.966422 0.266169 0.560008 -0.150436
C3    C     C_R   0.025867 0.265057 0.559993 -0.141744
C4    C     C_R   0.057979 0.375084 0.529510 -0.018479
C5    C     C_R   0.029974 0.487102 0.498546 -0.017698
C6    C     C_R   0.061798 0.598074 0.467689 -0.019498
C7    C     C_R   0.033540 0.709185 0.437067 -0.139222
C8    C     C_R   0.974127 0.710295 0.437188 -0.151617
C9    C     C_R   0.117636 0.376536 0.529283 0.565135
C10   C     C_R   0.121326 0.594741 0.468662 0.565673
C11   C     C_R   0.237881 0.514707 0.619778 0.196817
C12   C     C_R   0.389426 0.498799 0.500135 0.889864
C13   C     C_R   0.297202 0.518525 0.619513 -0.239044
C14   C     C_R   0.327201 0.494147 0.500367 -0.114485
C15   C     C_R   0.297412 0.463863 0.381677 -0.247745
C16   C     C_R   0.238115 0.458676 0.381534 0.201381
C17   C     C_R   0.208335 0.485008 0.500526 0.205380
C18   C     C_R   0.761853 0.485934 0.621592 -0.104217
C19   C     C_R   0.702638 0.488888 0.622002 -0.241438
C20   C     C_R   0.672848 0.497910 0.499733 -0.039133
C21   C     C_R   0.702999 0.503857 0.377266 -0.207056
C22   C     C_R   0.762207 0.501003 0.377262 -0.100342
C23   C     C_R   0.501652 0.739443 0.499889 0.877083
C24   C     C_R   0.791538 0.492092 0.499318 0.321861
C25   C     C_R   0.597442 0.137412 0.623159 -0.175537
C26   C     C_R   0.642374 0.074581 0.682776 -0.111692
C27   C     C_R   0.642419 0.943608 0.682642 -0.119271
C28   C     C_R   0.597555 0.875013 0.622797 -0.189909
C29   C     C_R   0.551304 0.937308 0.563177 0.093833
C30   C     C_R   0.551233 0.069247 0.563389 0.097558
C31   C     C_R   0.505372 0.128697 0.499851 -0.088321
C32   C     C_R   0.462079 0.061869 0.432936 -0.207599
C33   C     C_R   0.462160 0.933301 0.432724 -0.185838
C34   C     C_R   0.610610 0.500007 0.499882 0.841796
C35   C     C_R   0.505528 0.872003 0.499422 -0.102840
C36   C     C_R   0.424777 0.335590 0.140475 -0.167654
C37   C     C_R   0.387455 0.255184 0.070539 -0.180506
C38   C     C_R   0.387407 0.255264 0.930936 -0.156567
C39   C     C_R   0.424694 0.335725 0.860447 -0.154606
C40   C     C_R   0.462894 0.419051 0.927927 0.165777
C41   C     C_R   0.462919 0.419046 0.072511 0.177815
C42   C     C_R   0.535533 0.577356 0.071249 -0.110066
C43   C     C_R   0.535525 0.577319 0.928140 -0.110157
C44   C     C_R   0.882397 0.599188 0.468977 0.504862
C45   C     C_R   0.878553 0.380895 0.529051 0.506259
C46   C     C_R   0.938135 0.377346 0.529591 -0.015066
C47   C     C_R   0.969999 0.488223 0.498610 -0.016771
C48   C     C_R   0.942026 0.600286 0.467848 -0.015132
H1    H     H_    0.942774 0.179855 0.583981 0.195416
H2    H     H_    0.680969 0.510851 0.281712 0.161816
H3    H     H_    0.599837 0.239122 0.622709 0.153922
H4    H     H_    0.677529 0.127731 0.728006 0.154605
H5    H     H_    0.677603 0.894992 0.727802 0.149723
H6    H     H_    0.600031 0.773561 0.621984 0.143717
H7    H     H_    0.564572 0.640580 0.124772 0.148241
H8    H     H_    0.046516 0.177939 0.583977 0.196545
H9    H     H_    0.422434 0.329466 0.247407 0.197228
H10   H     H_    0.358471 0.192260 0.125205 0.165411
H11   H     H_    0.358391 0.192365 0.876722 0.169353
H12   H     H_    0.422343 0.329671 0.753503 0.204961
H13   H     H_    0.057183 0.795513 0.413120 0.198543
H14   H     H_    0.953494 0.797454 0.413299 0.194758
H15   H     H_    0.319669 0.541970 0.711951 0.191090
H16   H     H_    0.320010 0.443476 0.289229 0.184268
H17   H     H_    0.784780 0.479365 0.715984 0.141560
N1    N     N_R   0.852253 0.490631 0.499127 -0.360219
N2    N     N_R   0.147631 0.485252 0.499314 -0.348012
N3    N     N_R   0.499460 0.498800 0.142780 -0.121116
N4    N     N_R   0.499440 0.498720 0.857170 -0.121395
O1    O     O_R   0.500000 0.316780 0.614690 -0.640695
O2    O     O_2   0.847012 0.275746 0.557316 -0.552879
O3    O     O_2   0.145629 0.270751 0.558755 -0.528177
O4    O     O_2   0.152880 0.699670 0.439524 -0.525306
O5    O     O_R   0.500000 0.316750 0.385360 -0.628775
O6    O     O_R   0.416160 0.499970 0.614690 -0.634684
O7    O     O_R   0.416150 0.499950 0.385360 -0.635495
O8    O     O_R   0.500000 0.683250 0.614640 -0.612185
O9    O     O_R   0.500000 0.683220 0.385310 -0.608872
O10   O     O_R   0.583850 0.500050 0.614640 -0.635439
O11   O     O_R   0.583840 0.500030 0.385310 -0.614977
O12   O     O_2   0.854591 0.705622 0.441107 -0.550591
Zn1   Zn    Zn3+2 0.500000 0.500020 0.653130 0.936548
Zn2   Zn    Zn3+2 0.500000 0.499980 0.346870 0.947341
H18   H     H_    0.680313 0.483861 0.717702 0.162433
H19   H     H_    0.785404 0.505703 0.282720 0.141127
H20   H     H_    0.427555 0.109518 0.383296 0.144602
H21   H     H_    0.427684 0.881198 0.382995 0.163546
H22   H     H_    0.564547 0.640548 0.874160 0.144449
I1    I     I_    0.194488 0.556362 0.801248 -0.245161
I2    I     I_    0.195167 0.411365 0.199862 -0.253372

loop_
_geom_bond_atom_site_label_1
_geom_bond_atom_site_label_2
_ccdc_geom_bond_type
C16   I2    S    
C45   O2    S    
C44   N1    A    
C19   C20   A    
C9    O3    S    
O5    Zn2   S    
C8    C48   A    
C7    C8    A    
C10   N2    A    
C2    C46   A    
C18   H17   S    
C5    C47   A    
C26   C27   A    
C29   C30   A    
C9    N2    A    
C18   C24   A    
C1    O5    A    
C28   C29   A    
C5    C6    A    
C34   O10   A    
C10   O4    S    
C15   C16   A    
C1    C31   S    
C18   C19   A    
C22   H19   S    
C7    H13   S    
N4    Zn1   S    
C34   O11   A    
O9    Zn2   S    
C11   C17   A    
C31   C32   A    
C16   C17   A    
C15   H16   S    
C37   H10   S    
C24   N1    S    
C20   C34   S    
C43   N4    A    
C21   C22   A    
C42   N3    A    
C36   C41   A    
O11   Zn2   S    
O7    Zn2   S    
C21   H2    S    
C41   N3    A    
C38   C39   A    
C17   N2    S    
C40   N4    A    
C44   O12   S    
C39   C40   A    
C28   H6    S    
C25   C26   A    
C45   C46   A    
C25   H3    S    
C37   C38   A    
C2    H1    S    
C26   H4    S    
C42   H7    S    
C3    H8    S    
C11   I1    S    
C47   C48   A    
C13   H15   S    
C32   H20   S    
C23   O8    A    
C40   C41   A    
C12   C14   S    
C36   H9    S    
C23   C35   S    
C12   O7    A    
C22   C24   A    
C42   C43   A    
C43   H22   S    
C3    C4    A    
C45   N1    A    
C25   C30   A    
C46   C47   A    
C36   C37   A    
N3    Zn2   S    
C4    C5    A    
C6    C10   A    
O10   Zn1   S    
C27   H5    S    
O6    Zn1   S    
C6    C7    A    
C29   C35   A    
C1    O1    A    
C32   C33   A    
C2    C3    A    
C33   H21   S    
C11   C13   A    
C30   C31   A    
O8    Zn1   S    
C39   H12   S    
C33   C35   A    
C23   O9    A    
O1    Zn1   S    
C38   H11   S    
C44   C48   A    
C20   C21   A    
C12   O6    A    
C27   C28   A    
C14   C15   A    
C4    C9    A    
C13   C14   A    
C19   H18   S    
C8    H14   S    
