data_mof_unit_27102.cif
_audit_creation_date              2012-12-10T18:47:41-0500
_audit_creation_method            fapswitch 2.2
_symmetry_space_group_name_H-M    P1
_symmetry_Int_Tables_number       1
_space_group_crystal_system       triclinic
_cell_length_a                    9.865259
_cell_length_b                    10.721122
_cell_length_c                    15.51143
_cell_angle_alpha                 90.277906
_cell_angle_beta                  67.693697
_cell_angle_gamma                 89.79783
_cell_volume                      1517.77967253

loop_
_atom_site_label
_atom_site_type_symbol
_atom_type_description
_atom_site_fract_x
_atom_site_fract_y
_atom_site_fract_z
_atom_type_partial_charge
C1    C     C_R   0.499806 0.740068 0.500154 0.873633
C2    C     C_R   0.500225 0.259928 0.499798 0.876283
C3    C     C_R   0.319286 0.503740 0.107891 -0.318789
C4    C     C_R   0.635852 0.633572 0.912096 -0.321495
C5    C     C_R   0.215288 0.486687 0.067692 0.407968
C6    C     C_R   0.738584 0.652838 0.953213 0.414062
C7    C     C_R   0.615302 0.935831 0.511860 -0.191575
C8    C     C_R   0.384827 0.064150 0.487956 -0.189954
C9    C     C_R   0.615682 0.063581 0.511520 -0.173939
C10   C     C_R   0.384449 0.936397 0.488293 -0.173495
C11   C     C_R   0.500385 0.127434 0.499653 -0.017011
C12   C     C_R   0.499715 0.872551 0.500200 -0.015338
C13   C     C_R   0.963770 0.422518 0.441531 0.047308
C14   C     C_R   0.036205 0.577291 0.558598 0.053037
C15   C     C_R   0.107452 0.422786 0.441642 -0.139138
C16   C     C_R   0.892576 0.577241 0.558357 -0.134050
C17   C     C_R   0.408310 0.501900 0.676033 0.879904
C18   C     C_R   0.591557 0.501234 0.324034 0.875800
C19   C     C_R   0.350041 0.509617 0.777523 -0.065184
C20   C     C_R   0.646909 0.520980 0.223820 -0.065103
C21   C     C_R   0.158388 0.476290 0.928119 -0.121951
C22   C     C_R   0.810583 0.624577 0.086022 -0.126444
C23   C     C_R   0.204555 0.480250 0.831478 -0.187052
C24   C     C_R   0.777359 0.584774 0.177177 -0.158694
C25   C     C_R   0.445381 0.543927 0.820461 -0.226771
C26   C     C_R   0.552335 0.495254 0.178815 -0.217839
C27   C     C_R   0.401187 0.543536 0.917306 0.044701
C28   C     C_R   0.574114 0.547305 0.092300 0.042297
C29   C     C_R   0.257092 0.503060 0.971635 0.105905
C30   C     C_R   0.709026 0.607787 0.043061 0.092040
C31   C     C_R   0.501203 0.572518 0.960144 0.025784
C32   C     C_R   0.464870 0.539705 0.054083 0.028168
H1    H     H_    0.459168 0.436785 0.214414 0.149850
H2    H     H_    0.557412 0.563329 0.776515 0.156492
H3    H     H_    0.850620 0.607576 0.212096 0.172999
H4    H     H_    0.128582 0.455382 0.799001 0.167580
H5    H     H_    0.046909 0.448019 0.968170 0.197079
H6    H     H_    0.913017 0.672749 0.050914 0.199949
H7    H     H_    0.282086 0.492108 0.182315 0.141264
H8    H     H_    0.660962 0.672374 0.843776 0.137619
H9    H     H_    0.704826 0.887097 0.521579 0.156764
H10   H     H_    0.295299 0.112885 0.478244 0.157688
H11   H     H_    0.705404 0.111871 0.520989 0.161838
H12   H     H_    0.294728 0.888102 0.478826 0.161225
H13   H     H_    0.190732 0.361166 0.395184 0.135427
H14   H     H_    0.809306 0.638845 0.604847 0.130702
N1    N     N_R   0.142780 0.500030 0.500020 -0.097796
N2    N     N_R   0.857220 0.499970 0.499980 -0.097197
O1    O     O_R   0.385370 0.683250 0.500010 -0.615852
O2    O     O_R   0.614630 0.316750 0.499990 -0.614604
O3    O     O_R   0.614700 0.683220 0.500000 -0.630527
O4    O     O_R   0.385300 0.316780 0.500000 -0.628137
O5    O     O_R   0.319830 0.500020 0.632250 -0.605299
O6    O     O_R   0.680170 0.499980 0.367750 -0.606547
O7    O     O_R   0.549160 0.499990 0.632240 -0.622168
O8    O     O_R   0.450840 0.500010 0.367760 -0.620370
Zn1   Zn    Zn3+2 0.346870 0.500020 0.500000 0.957497
Zn2   Zn    Zn3+2 0.653130 0.499980 0.500000 0.955182
O9    O     O_3   0.074641 0.448208 0.120332 -0.787743
H15   H     H_    0.062877 0.441750 0.186498 0.336802
O10   O     O_3   0.868542 0.714580 0.906532 -0.775417
H16   H     H_    0.871116 0.742008 0.845016 0.343922
C33   C     C_1   0.930414 0.339157 0.379520 0.173470
N3    N     N_1   0.903922 0.271735 0.329611 -0.193725
C34   C     C_1   0.069569 0.659794 0.621073 0.181612
N4    N     N_1   0.096451 0.726416 0.671261 -0.202649

loop_
_geom_bond_atom_site_label_1
_geom_bond_atom_site_label_2
_ccdc_geom_bond_type
C21   C29   A    
C13   N2    A    
C19   C23   A    
N2    Zn2   S    
C14   N1    A    
C14   C16   A    
C18   O8    A    
N1    Zn1   S    
C1    O3    A    
C17   O7    A    
C26   H1    S    
C26   C28   A    
C31   C32   A    
C13   C33   S    
C15   N1    A    
C25   H2    S    
C3    C5    A    
C16   N2    A    
C28   C30   A    
O2    Zn2   S    
C3    H7    S    
O9    H15   S    
O3    Zn2   S    
C9    C11   A    
O10   H16   S    
C1    C12   S    
C2    O4    A    
C8    C11   A    
C2    C11   S    
C10   C12   A    
C6    O10   S    
C4    C6    A    
C21   H5    S    
C17   C19   S    
C14   C34   S    
C8    H10   S    
C23   H4    S    
C5    C29   A    
C13   C15   A    
C21   C23   A    
C3    C32   A    
C19   C25   A    
C22   C24   A    
C7    C12   A    
C9    H11   S    
C24   H3    S    
C27   C29   A    
O4    Zn1   S    
C18   O6    A    
C25   C27   A    
C10   H12   S    
C33   N3    T    
C4    C31   A    
C17   O5    A    
C28   C32   A    
O1    Zn1   S    
O8    Zn1   S    
C27   C31   A    
C18   C20   S    
C8    C10   A    
C34   N4    T    
O6    Zn2   S    
O7    Zn2   S    
C16   H14   S    
C2    O2    A    
C7    C9    A    
C5    O9    S    
O5    Zn1   S    
C22   C30   A    
C6    C30   A    
C1    O1    A    
C20   C24   A    
C4    H8    S    
C7    H9    S    
C20   C26   A    
C15   H13   S    
C22   H6    S    
