data_mof_unit_18789.cif
_audit_creation_date              2013-03-05T16:30:58-0500
_audit_creation_method            fapswitch 2.2
_symmetry_space_group_name_H-M    P1
_symmetry_Int_Tables_number       1
_space_group_crystal_system       triclinic
_cell_length_a                    13.068165
_cell_length_b                    10.787369
_cell_length_c                    9.591271
_cell_angle_alpha                 90.187221
_cell_angle_beta                  97.015887
_cell_angle_gamma                 91.172755
_cell_volume                      1341.66439772

loop_
_atom_site_label
_atom_site_type_symbol
_atom_site_description
_atom_site_fract_x
_atom_site_fract_y
_atom_site_fract_z
_atom_type_partial_charge
O1    O     O_R   0.500000 0.319640 0.618810 -0.541250
O2    O     O_R   0.500010 0.319680 0.381230 -0.570194
C1    C     C_R   0.498507 0.262703 0.499733 0.833902
O3    O     O_R   0.348990 0.499960 0.599490 -0.511104
O4    O     O_R   0.349000 0.500000 0.361910 -0.528834
C2    C     C_R   0.300930 0.509907 0.472491 0.886684
Cu1   Cu    Cu3+1 0.499990 0.499980 0.640670 1.079508
Cu2   Cu    Cu3+1 0.500010 0.500020 0.359330 1.042563
O5    O     O_R   0.499990 0.680320 0.618770 -0.582692
O6    O     O_R   0.500000 0.680360 0.381190 -0.553518
O7    O     O_R   0.651000 0.500000 0.638090 -0.538745
O8    O     O_R   0.651010 0.500040 0.400510 -0.626660
C3    C     C_R   0.499247 0.737371 0.500348 0.789758
C4    C     C_R   0.699596 0.500096 0.526920 0.812406
C5    C     C_R   0.813134 0.507707 0.542203 -0.055310
C6    C     C_R   0.187861 0.526090 0.453567 -0.310661
C7    C     C_R   0.022341 0.492698 0.310927 0.311361
C8    C     C_R   0.129549 0.508429 0.320405 0.164989
C9    C     C_R   0.136775 0.557498 0.570110 0.289557
C10   C     C_R   0.028812 0.542763 0.560415 -0.067979
C11   C     C_R   0.972555 0.499593 0.433426 -0.042279
C12   C     C_R   0.866580 0.471294 0.429275 0.142844
C13   C     C_R   0.868857 0.558903 0.664623 0.098800
C14   C     C_R   0.975602 0.573053 0.673975 -0.085138
H1    H     H_    0.015152 0.612183 0.770099 0.217514
C15   C     C_R   0.548995 0.066162 0.610710 0.072735
C16   C     C_R   0.493470 0.129484 0.501092 -0.050724
C17   C     C_R   0.427547 0.062476 0.400102 -0.142757
H2    H     H_    0.378140 0.109887 0.319414 0.169601
C18   C     C_R   0.427077 0.932802 0.401836 -0.070975
H3    H     H_    0.376894 0.881527 0.322751 0.210065
C19   C     C_R   0.494040 0.870520 0.502574 -0.029646
C20   C     C_R   0.549592 0.938389 0.611757 0.036267
C21   C     C_3   0.660886 0.934455 0.673743 -0.202435
C22   C     C_3   0.660493 0.076814 0.670690 0.404643
H4    H     H_    0.672333 0.895536 0.781084 0.134811
C23   C     C_R   0.569098 0.571580 0.084036 0.085530
N1    N     N_R   0.500660 0.500930 0.148010 -0.177993
C24   C     C_R   0.442738 0.414995 0.065533 0.222570
C25   C     C_R   0.442307 0.414947 0.916008 0.409707
N2    N     N_R   0.500660 0.500890 0.852110 -0.232409
C26   C     C_R   0.571610 0.568228 0.938508 0.161429
C27   C     C_3   0.596702 0.702689 0.931566 -0.484906
C28   C     C_3   0.589488 0.709278 0.088520 0.149312
H5    H     H_    0.676537 0.718650 0.907041 0.175159
H6    H     H_    0.536462 0.755435 0.866465 0.250863
H7    H     H_    0.662977 0.736637 0.153356 0.130861
N3    N     N_3   0.816754 0.396362 0.315298 -0.489361
H8    H     H_    0.769442 0.451103 0.245911 0.259895
H9    H     H_    0.773674 0.324752 0.354413 0.283638
N4    N     N_3   0.726404 0.878557 0.578560 -0.484760
H10   H     H_    0.713455 0.782664 0.579354 0.206972
H11   H     H_    0.803015 0.893420 0.622119 0.256764
N5    N     N_3   0.674275 0.134526 0.810759 -0.534918
H12   H     H_    0.747928 0.113506 0.859184 0.253575
H13   H     H_    0.621761 0.095237 0.872959 0.238373
N6    N     N_R   0.726813 0.134772 0.574646 0.137499
O9    O     O_R   0.715250 0.106336 0.441467 -0.339888
O10   O     O_R   0.798989 0.214313 0.622287 -0.345353
N7    N     N_3   0.384596 0.322891 0.130678 -0.497733
H14   H     H_    0.309245 0.320393 0.080476 0.285865
H15   H     H_    0.416494 0.236814 0.114163 0.237644
N8    N     N_R   0.384525 0.320065 0.834656 0.126204
O11   O     O_R   0.419053 0.207707 0.839891 -0.371932
O12   O     O_R   0.287532 0.336254 0.791808 -0.284738
N9    N     N_R   0.502180 0.784501 0.115799 0.153762
O13   O     O_R   0.408036 0.742062 0.086217 -0.268563
O14   O     O_R   0.517552 0.903344 0.133003 -0.352342
N10   N     N_3   0.817568 0.597922 0.780351 -0.565219
H16   H     H_    0.838134 0.690686 0.802984 0.214627
H17   H     H_    0.844579 0.544747 0.867459 0.305615
N11   N     N_R   0.963431 0.491116 0.174590 0.161002
O15   O     O_R   0.913786 0.589325 0.129624 -0.394485
O16   O     O_R   0.952965 0.389485 0.100282 -0.279379
N12   N     N_R   0.176639 0.521349 0.193351 0.168431
O17   O     O_R   0.155571 0.441784 0.091296 -0.272417
O18   O     O_R   0.223626 0.625115 0.169171 -0.260087
N13   N     N_R   0.193734 0.613671 0.692989 0.145034
O19   O     O_R   0.248683 0.714175 0.680934 -0.326603
O20   O     O_R   0.195024 0.561973 0.815493 -0.244351

loop_
_geom_bond_atom_site_label_1
_geom_bond_atom_site_label_2
_geom_bond_distance
_ccdc_geom_bond_type
N9    O14   1.300417 A    
N8    O12   1.299340 A    
C8    N12   1.436635 S    
N2    C26   1.361923 A    
C13   N10   1.431337 S    
C3    C19   1.439538 S    
C28   N9    1.462235 S    
C9    C10   1.408249 A    
N12   O17   1.299849 A    
Cu1   Cu2   2.698442 S    
Cu1   O7    1.976596 S    
C15   C16   1.391803 A    
C25   N8    1.430325 S    
C17   H2    1.082314 S    
N1    C24   1.370503 A    
O7    C4    1.305989 A    
N13   O20   1.300647 A    
N6    O10   1.301415 A    
N7    H15   1.045014 S    
C21   C22   1.536161 S    
C23   C26   1.400547 A    
N10   H17   1.044531 S    
O5    C3    1.292691 A    
C5    C12   1.417227 A    
C10   C14   1.403066 A    
C13   C14   1.392075 A    
C28   H7    1.112394 S    
C5    C13   1.408672 A    
N9    O13   1.301738 A    
C11   C12   1.407785 A    
C22   N5    1.468223 S    
Cu2   N1    2.027937 S    
O3    Cu1   1.964554 S    
C20   C21   1.504005 S    
N5    H13   1.047014 S    
N4    H10   1.044965 S    
C14   H1    1.080477 S    
N11   O16   1.301356 A    
C24   C25   1.433460 A    
N13   O19   1.301410 A    
C7    C11   1.413301 A    
N7    H14   1.041734 S    
N4    H11   1.045653 S    
C9    N13   1.439732 S    
C27   C28   1.521313 S    
C23   N1    1.366174 A    
C27   H5    1.107383 S    
C15   C20   1.378578 A    
C18   H3    1.082716 S    
Cu2   O8    1.964554 S    
C7    C8    1.399622 A    
C21   N4    1.462405 S    
C6    C8    1.415243 A    
N12   O18   1.300815 A    
O3    C2    1.306300 A    
C25   N2    1.380422 A    
O8    C4    1.298095 A    
C12   N3    1.439170 S    
C26   C27   1.484028 S    
Cu1   O5    1.957383 S    
N5    H12   1.045929 S    
N3    H8    1.044444 S    
O1    Cu1   1.955984 S    
O2    Cu2   1.957383 S    
N11   O15   1.300782 A    
O6    C3    1.297263 A    
O4    Cu2   1.976593 S    
C22   N6    1.472154 S    
C19   C20   1.395416 A    
C23   C28   1.503282 S    
C1    C16   1.437416 S    
O2    C1    1.295966 A    
C17   C18   1.398888 A    
C18   C19   1.404451 A    
N6    O9    1.302677 A    
O4    C2    1.302188 A    
C6    C9    1.413879 A    
C24   N7    1.429681 S    
N3    H9    1.044079 S    
C21   H4    1.107403 S    
Cu1   N2    2.026919 S    
N10   H16   1.045963 S    
C27   H6    1.110831 S    
C2    C6    1.480536 S    
N8    O11   1.300926 A    
C15   C22   1.501711 S    
C10   C11   1.415756 A    
C7    N11   1.433978 S    
Cu2   O6    1.955982 S    
C16   C17   1.403209 A    
C4    C5    1.473606 S    
O1    C1    1.292863 A    
