data_mof_unit_13682.cif
_audit_creation_date              2012-12-11T14:08:23-0500
_audit_creation_method            fapswitch 2.2
_symmetry_space_group_name_H-M    P1
_symmetry_Int_Tables_number       1
_space_group_crystal_system       triclinic
_cell_length_a                    10.987093
_cell_length_b                    11.049337
_cell_length_c                    18.772416
_cell_angle_alpha                 90.433201
_cell_angle_beta                  90.428999
_cell_angle_gamma                 59.82903
_cell_volume                      1970.16532272

loop_
_atom_site_label
_atom_site_type_symbol
_atom_type_description
_atom_site_fract_x
_atom_site_fract_y
_atom_site_fract_z
_atom_type_partial_charge
C1    C     C_R   0.241895 0.643146 0.609847 0.628781
C2    C     C_3   0.722035 0.497813 0.808738 0.173337
C3    C     C_3   0.684082 0.656337 0.819312 0.079080
C4    C     C_3   0.642550 0.616713 0.685314 0.096107
C5    C     C_3   0.764530 0.651395 0.690408 0.469394
C6    C     C_3   0.686260 0.481029 0.729308 0.055274
C7    C     C_2   0.687765 0.139832 0.665814 0.145389
C8    C     C_2   0.697359 0.151965 0.824013 0.008082
C9    C     C_2   0.812844 0.103293 0.782000 0.217262
C10   C     C_2   0.797015 0.133699 0.703170 0.304453
C11   C     C_2   0.186882 0.659662 0.682259 0.211827
C12   C     C_R   0.626368 0.587060 0.609327 0.634794
C13   C     C_2   0.204817 0.657847 0.843500 -0.070444
C14   C     C_2   0.211068 0.552875 0.804470 0.197346
C15   C     C_2   0.236681 0.544973 0.726144 0.005234
C16   C     C_2   0.651275 0.669439 0.325314 0.006580
C17   C     C_2   0.709249 0.713649 0.177677 0.280230
C18   C     C_2   0.653297 0.634988 0.196891 0.127124
C19   C     C_2   0.668035 0.584665 0.270210 0.088318
C20   C     C_2   0.636057 0.184921 0.321942 0.258201
C21   C     C_2   0.636313 0.200889 0.164182 -0.093258
C22   C     C_2   0.521675 0.232075 0.202160 0.047147
C23   C     C_R   0.630561 0.225405 0.600973 0.613631
C24   C     C_2   0.523200 0.257282 0.278119 -0.145909
C25   C     C_2   0.117671 0.684038 0.345903 0.276915
C26   C     C_2   0.120620 0.689440 0.189484 -0.128443
C27   C     C_2   0.048297 0.802125 0.232031 -0.152509
C28   C     C_2   0.076159 0.801363 0.308005 0.242674
C29   C     C_R   0.704986 0.098280 0.896324 0.567979
C30   C     C_R   0.715677 0.682118 0.892719 0.581183
C31   C     C_R   0.121609 0.704899 0.908915 0.592749
C32   C     C_R   0.672704 0.114096 0.101201 0.547238
C33   C     C_R   0.736093 0.720111 0.103460 0.588781
C34   C     C_R   0.215723 0.651645 0.404395 0.611675
C35   C     C_R   0.089334 0.712085 0.114516 0.522854
C36   C     C_R   0.643323 0.625830 0.395854 0.575598
C37   C     C_R   0.615467 0.230702 0.394805 0.620750
C38   C     C_3   0.526089 0.756778 0.799111 -0.292438
C39   C     C_3   0.501680 0.737943 0.719235 -0.065401
C40   C     C_3   0.774280 0.693908 0.768808 0.434836
Cr1   Cr    Cr6+3 0.393010 0.398050 0.501480 1.064040
Cr2   Cr    Cr6+3 0.398820 0.707980 0.501630 1.097682
Cr3   Cr    Cr6+3 0.708140 0.393940 0.496850 1.127043
Cr4   Cr    Cr6+3 0.937950 0.938450 0.008940 1.050587
Cr5   Cr    Cr6+3 0.626180 0.937030 0.994750 1.049715
Cr6   Cr    Cr6+3 0.937790 0.625760 0.001410 1.085030
H1    H     H_    0.495301 0.867466 0.810391 0.192171
H2    H     H_    0.782335 0.397706 0.704252 0.224035
H3    H     H_    0.593313 0.216587 0.801857 0.095666
H4    H     H_    0.235857 0.727935 0.820209 0.082918
H5    H     H_    0.453145 0.740864 0.832717 0.084597
H6    H     H_    0.612515 0.780211 0.317460 0.137779
H7    H     H_    0.424547 0.341588 0.299206 0.138920
H8    H     H_    0.719877 0.213718 0.187744 0.101977
H9    H     H_    0.974133 0.903418 0.209414 0.156486
H10   H     H_    0.419541 0.707883 0.715697 0.150440
H11   H     H_    0.196617 0.586322 0.209227 0.118963
O1    O     O_R   0.507110 0.256280 0.580300 -0.509069
O2    O     O_R   0.524640 0.695370 0.425100 -0.510288
O3    O     O_R   0.735890 0.504390 0.415980 -0.458420
O4    O     O_R   0.690560 0.277820 0.422350 -0.465391
O5    O     O_3   0.499990 0.499990 0.499980 -0.335324
O6    O     O_R   0.089190 0.825870 0.932320 -0.491223
O7    O     O_R   0.819070 0.053960 0.931440 -0.435961
O8    O     O_R   0.607070 0.076440 0.916460 -0.518114
O9    O     O_R   0.647110 0.806550 0.917690 -0.521677
O10   O     O_R   0.837080 0.593860 0.915300 -0.419787
O11   O     O_R   0.064770 0.636080 0.932550 -0.409639
O12   O     O_R   0.280830 0.527190 0.577940 -0.492094
O13   O     O_R   0.068250 0.829200 0.092940 -0.512400
O14   O     O_R   0.799650 0.057040 0.080330 -0.527869
O15   O     O_R   0.586130 0.079760 0.077080 -0.468449
O16   O     O_R   0.627700 0.809630 0.066580 -0.490561
O17   O     O_R   0.816140 0.597180 0.075920 -0.511357
O18   O     O_R   0.045360 0.639170 0.081440 -0.519466
O19   O     O_3   0.833980 0.833750 0.001700 -0.316371
O20   O     O_R   0.261360 0.738990 0.584270 -0.476890
O21   O     O_R   0.532590 0.694780 0.574370 -0.449498
O22   O     O_R   0.744470 0.503750 0.577000 -0.450901
O23   O     O_R   0.698520 0.277230 0.571620 -0.455619
O24   O     O_R   0.498530 0.256920 0.419280 -0.538716
O25   O     O_R   0.272880 0.527780 0.428680 -0.482894
O26   O     O_R   0.252780 0.739630 0.423250 -0.471436
O27   O     O_3   0.915485 0.622969 0.790754 -0.658917
H12   H     H_    0.963231 0.656128 0.759091 0.315608
O28   O     O_3   0.893257 0.530375 0.671074 -0.720531
H13   H     H_    0.959797 0.558124 0.652240 0.334840
O29   O     O_3   0.944546 0.028866 0.813392 -0.700913
H14   H     H_    0.018073 0.005897 0.777424 0.346696
O30   O     O_3   0.892062 0.158752 0.667593 -0.672759
H15   H     H_    0.953578 0.169625 0.702661 0.306374
N1    N     N_3   0.621055 0.065229 0.689880 -0.624903
H16   H     H_    0.616067 0.010638 0.645515 0.279532
H17   H     H_    0.517011 0.135296 0.703163 0.218281
O31   O     O_3   0.194968 0.450508 0.838065 -0.633883
H18   H     H_    0.184714 0.390893 0.801767 0.337717
N2    N     N_3   0.323563 0.407548 0.697212 -0.585039
H19   H     H_    0.403363 0.351278 0.733972 0.240110
H20   H     H_    0.263220 0.359170 0.691369 0.229864
O32   O     O_3   0.096638 0.795618 0.703721 -0.731110
H21   H     H_    0.037960 0.795760 0.743113 0.322890
N3    N     N_3   0.592196 0.586388 0.143815 -0.615476
H22   H     H_    0.653809 0.477520 0.139672 0.228274
H23   H     H_    0.491829 0.611559 0.161004 0.223265
N4    N     N_3   0.692193 0.446087 0.282045 -0.588176
H24   H     H_    0.782703 0.375359 0.254237 0.244339
H25   H     H_    0.606521 0.441796 0.260801 0.202784
O33   O     O_3   0.767972 0.762919 0.226921 -0.779987
H26   H     H_    0.801549 0.818286 0.201040 0.295038
N5    N     N_3   0.398663 0.239126 0.170234 -0.557869
H27   H     H_    0.324229 0.257475 0.209518 0.244831
H28   H     H_    0.353170 0.326245 0.136696 0.232944
O34   O     O_3   0.762605 0.070513 0.302520 -0.704756
H29   H     H_    0.744026 0.021186 0.263615 0.326306
O35   O     O_3   0.074542 0.916561 0.338771 -0.639395
H30   H     H_    0.049852 0.989056 0.301810 0.346367
O36   O     O_3   0.087729 0.580871 0.325497 -0.725295
H31   H     H_    0.000071 0.624069 0.296744 0.361076
N6    N     N_3   0.444051 0.870993 0.680867 -0.547345
H32   H     H_    0.495288 0.923981 0.696947 0.289546
H33   H     H_    0.338574 0.934610 0.695460 0.233911
O37   O     O_3   0.723267 0.839233 0.772604 -0.707777
H34   H     H_    0.767960 0.857966 0.814071 0.352585
O38   O     O_3   0.736431 0.760205 0.642399 -0.654255
H35   H     H_    0.814287 0.781073 0.646159 0.338754
N7    N     N_3   0.873465 0.400046 0.822253 -0.537112
H36   H     H_    0.936978 0.396017 0.780307 0.270702
H37   H     H_    0.890823 0.298415 0.827106 0.256167
N8    N     N_3   0.644109 0.459906 0.859360 -0.603538
H38   H     H_    0.681287 0.457041 0.911131 0.254140
H39   H     H_    0.536428 0.530541 0.860264 0.204580
O39   O     O_3   0.587910 0.435575 0.722461 -0.756208
H40   H     H_    0.502282 0.499447 0.749214 0.326663

loop_
_geom_bond_atom_site_label_1
_geom_bond_atom_site_label_2
_ccdc_geom_bond_type
C7    C10   D    
N7    H36   S    
C23   O1    A    
C1    O20   A    
C40   O27   S    
O31   H18   S    
C1    C11   S    
C36   O2    A    
Cr6   O19   S    
N2    H19   S    
C32   O15   A    
Cr4   O7    S    
C25   C28   D    
N4    H25   S    
C5    O38   S    
C35   O18   A    
C26   C27   D    
C6    H2    S    
Cr5   O19   S    
C8    C29   S    
Cr1   O1    S    
O34   H29   S    
C9    O29   S    
C38   C39   S    
C27   H9    S    
C7    N1    S    
Cr3   O22   S    
O35   H30   S    
C12   O22   A    
C2    N8    S    
O33   H26   S    
Cr4   O14   S    
Cr5   O16   S    
C18   C19   S    
C18   N3    S    
Cr4   O19   S    
N5    H27   S    
N1    H16   S    
C11   C15   D    
C20   C24   D    
C3    C38   S    
O39   H40   S    
C22   N5    S    
C12   O21   A    
Cr4   O13   S    
C23   O23   A    
C4    C12   S    
C9    C10   S    
Cr2   O5    S    
C30   O10   A    
C25   C34   S    
C29   O7    A    
C21   C22   D    
Cr5   O15   S    
C37   O24   A    
C2    C6    S    
C17   C33   S    
Cr1   O5    S    
C15   N2    S    
Cr6   O18   S    
N2    H20   S    
C32   O14   A    
N6    H33   S    
Cr4   O6    S    
C31   O11   A    
C21   C32   S    
N3    H22   S    
C31   O6    A    
O27   H12   S    
C35   O13   A    
C4    C6    S    
C17   O33   S    
O28   H13   S    
C8    C9    D    
C38   H5    S    
C24   H7    S    
C1    O12   A    
C11   O32   S    
C3    C30   S    
Cr6   O11   S    
C28   O35   S    
C33   O17   A    
C39   H10   S    
C4    C39   S    
Cr1   O24   S    
N1    H17   S    
C17   C18   D    
N3    H23   S    
C38   H1    S    
C30   O9    A    
Cr3   O3    S    
C29   O8    A    
C5    O28   S    
C19   N4    S    
C6    O39   S    
C3    C40   S    
Cr2   O21   S    
Cr5   O8    S    
C22   C24   S    
C34   O26   A    
C39   N6    S    
C2    N7    S    
C14   O31   S    
Cr6   O17   S    
Cr3   O4    S    
Cr1   O12   S    
N8    H38   S    
C33   O16   A    
N7    H37   S    
C13   C31   S    
Cr2   O26   S    
C16   H6    S    
C4    C5    S    
C36   O3    A    
C25   O36   S    
Cr2   O2    S    
C37   O4    A    
N6    H32   S    
C40   O37   S    
N4    H24   S    
C2    C3    S    
Cr3   O23   S    
Cr6   O10   S    
O36   H31   S    
C16   C36   S    
C20   C37   S    
O30   H15   S    
C21   H8    S    
C16   C19   D    
C7    C23   S    
Cr1   O25   S    
O32   H21   S    
C20   O34   S    
C26   H11   S    
N5    H28   S    
C13   H4    S    
C26   C35   S    
O29   H14   S    
C10   O30   S    
Cr2   O20   S    
C5    C40   S    
Cr5   O9    S    
C14   C15   S    
C34   O25   A    
N8    H39   S    
O37   H34   S    
C13   C14   D    
C8    H3    S    
Cr3   O5    S    
O38   H35   S    
C27   C28   S    
