data_mof_unit_42102.cif
_audit_creation_date              2013-03-05T16:48:18-0500
_audit_creation_method            fapswitch 2.2
_symmetry_space_group_name_H-M    P1
_symmetry_Int_Tables_number       1
_space_group_crystal_system       triclinic
_cell_length_a                    23.284281
_cell_length_b                    9.018365
_cell_length_c                    8.076596
_cell_angle_alpha                 89.788366
_cell_angle_beta                  91.048324
_cell_angle_gamma                 90.449802
_cell_volume                      1695.62644285

loop_
_atom_site_label
_atom_site_type_symbol
_atom_site_description
_atom_site_fract_x
_atom_site_fract_y
_atom_site_fract_z
_atom_type_partial_charge
O1    O     O_R   0.500000 0.285350 0.636850 -0.614972
O2    O     O_R   0.500000 0.714650 0.363150 -0.615793
O3    O     O_R   0.500000 0.714650 0.636850 -0.609460
O4    O     O_R   0.500000 0.285350 0.363150 -0.617310
C1    C     C_R   0.499944 0.217697 0.500199 0.933280
C2    C     C_R   0.501965 0.782250 0.499922 0.904589
O5    O     O_R   0.416160 0.500000 0.636910 -0.610568
O6    O     O_R   0.583840 0.500000 0.363090 -0.628668
O7    O     O_R   0.583840 0.500000 0.636910 -0.620545
O8    O     O_R   0.416160 0.500000 0.363090 -0.621863
C3    C     C_R   0.210639 0.580398 0.429576 0.144297
C4    C     C_R   0.792085 0.551658 0.475626 0.155929
C5    C     C_R   0.388973 0.501902 0.498298 0.893877
C6    C     C_R   0.611116 0.501120 0.501743 0.899716
Zn1   Zn    Zn3+2 0.500000 0.500000 0.682780 0.972764
Zn2   Zn    Zn3+2 0.500000 0.500000 0.317220 0.974406
C7    C     C_R   0.306905 0.674356 0.490916 0.089914
C8    C     C_R   0.706332 0.398632 0.432607 0.084579
C9    C     C_R   0.289685 0.406065 0.458794 0.090098
C10   C     C_R   0.700407 0.642291 0.571884 0.064196
C11   C     C_R   0.327084 0.526776 0.490286 -0.147630
C12   C     C_R   0.673803 0.512760 0.505145 -0.153535
C13   C     C_R   0.877788 0.624674 0.331774 0.579903
C14   C     C_R   0.124828 0.570647 0.587589 0.583781
C15   C     C_R   0.884762 0.527184 0.607279 0.598216
C16   C     C_R   0.118374 0.641981 0.302478 0.609186
N1    N     N_R   0.853138 0.568023 0.470777 -0.361495
N2    N     N_R   0.149942 0.602558 0.439810 -0.373379
C17   C     C_R   0.944603 0.541727 0.607752 -0.188841
C18   C     C_R   0.058371 0.649690 0.310290 -0.191206
C19   C     C_R   0.937664 0.638295 0.323963 -0.186786
C20   C     C_R   0.064994 0.564223 0.598088 -0.196865
C21   C     C_R   0.971209 0.595553 0.463425 -0.176545
C22   C     C_R   0.031554 0.604162 0.457624 -0.184814
C23   C     C_R   0.978435 0.501600 0.746762 0.613579
C24   C     C_R   0.024526 0.697541 0.174399 0.625143
C25   C     C_R   0.964829 0.692721 0.181476 0.618674
C26   C     C_R   0.037931 0.513876 0.742452 0.636209
C27   C     C_1   0.500766 0.064965 0.500368 -0.196229
C28   C     C_1   0.501523 0.935035 0.499869 -0.208636
C29   C     C_R   0.248388 0.701425 0.454515 0.158829
C30   C     C_R   0.766527 0.416870 0.422199 0.151627
C31   C     C_R   0.231075 0.433633 0.423459 0.171766
C32   C     C_R   0.759619 0.666352 0.545961 0.154909
N3    N     N_1   0.500000 0.500000 0.073640 -0.037811
N4    N     N_1   0.500000 0.500000 0.926360 -0.040473
O9    O     O_2   0.844116 0.668140 0.203052 -0.505316
O10   O     O_2   0.158134 0.540222 0.721905 -0.463698
O11   O     O_2   0.857972 0.470934 0.740650 -0.489508
O12   O     O_2   0.145004 0.670845 0.159086 -0.460854
F1    F     F_    0.954438 0.448284 0.887225 -0.584297
F2    F     F_    0.048809 0.750943 0.034448 -0.575206
F3    F     F_    0.934024 0.739691 0.047036 -0.585732
F4    F     F_    0.068754 0.470436 0.878363 -0.572481
C33   C     C_3   0.226508 0.857691 0.425885 -0.388341
C34   C     C_3   0.242967 0.910424 0.252482 -0.825128
H1    H     H_    0.288882 0.943124 0.247637 0.227826
H2    H     H_    0.235378 0.822262 0.159098 0.308957
H3    H     H_    0.216415 0.006211 0.216063 0.260926
H4    H     H_    0.179199 0.864007 0.435442 0.218595
H5    H     H_    0.242630 0.934971 0.522700 0.206350
C35   C     C_3   0.804338 0.292722 0.358208 -0.428521
C36   C     C_3   0.806947 0.293195 0.169064 -0.727351
H6    H     H_    0.763453 0.298364 0.111035 0.238936
H7    H     H_    0.832334 0.389653 0.125353 0.319192
H8    H     H_    0.828256 0.190660 0.126889 0.260175
H9    H     H_    0.848916 0.301009 0.407986 0.219210
H10   H     H_    0.789267 0.183223 0.403940 0.209371
C37   C     C_3   0.189965 0.310364 0.367935 -0.433874
C38   C     C_3   0.190910 0.294790 0.179747 -0.760005
H11   H     H_    0.179585 0.401088 0.118503 0.325888
H12   H     H_    0.234293 0.261644 0.139323 0.238049
H13   H     H_    0.158949 0.209891 0.138990 0.268839
H14   H     H_    0.199608 0.202950 0.428401 0.217042
H15   H     H_    0.145162 0.332394 0.403803 0.217766
C39   C     C_3   0.788763 0.815679 0.583537 -0.439555
C40   C     C_3   0.803759 0.837484 0.767118 -0.697442
H16   H     H_    0.766682 0.881684 0.834620 0.236163
H17   H     H_    0.839168 0.920113 0.780069 0.263735
H18   H     H_    0.818020 0.732243 0.825624 0.322597
H19   H     H_    0.829090 0.828850 0.514287 0.219743
H20   H     H_    0.762213 0.908609 0.535878 0.190359
C41   C     C_3   0.347649 0.799964 0.541209 -0.402656
C42   C     C_3   0.353191 0.810448 0.729717 -0.818899
H21   H     H_    0.311081 0.839090 0.783046 0.255791
H22   H     H_    0.367546 0.704238 0.785276 0.284351
H23   H     H_    0.385180 0.897606 0.763758 0.245913
H24   H     H_    0.390181 0.783354 0.486996 0.201220
H25   H     H_    0.334720 0.908935 0.491664 0.208037
C43   C     C_3   0.676584 0.254584 0.377478 -0.399790
C44   C     C_3   0.661685 0.157542 0.526045 -0.896801
H26   H     H_    0.630953 0.213972 0.607559 0.268706
H27   H     H_    0.641527 0.052612 0.481832 0.242456
H28   H     H_    0.701208 0.131299 0.599029 0.259865
H29   H     H_    0.637157 0.277482 0.303302 0.224952
H30   H     H_    0.702679 0.187905 0.293040 0.215922
C45   C     C_3   0.311015 0.249257 0.488127 -0.431533
C46   C     C_3   0.299508 0.204644 0.667147 -0.842356
H31   H     H_    0.320252 0.284910 0.753959 0.274739
H32   H     H_    0.252661 0.200758 0.690268 0.270798
H33   H     H_    0.317625 0.094341 0.693210 0.249370
H34   H     H_    0.290916 0.169892 0.400527 0.214455
H35   H     H_    0.357663 0.238625 0.465876 0.195418
C47   C     C_3   0.665605 0.752086 0.672204 -0.380832
C48   C     C_3   0.662468 0.704454 0.854151 -0.763493
H36   H     H_    0.639420 0.597511 0.868362 0.272795
H37   H     H_    0.706085 0.690888 0.909216 0.263114
H38   H     H_    0.639467 0.789985 0.925292 0.233914
H39   H     H_    0.683640 0.865303 0.668505 0.202627
H40   H     H_    0.621694 0.765417 0.619299 0.193458

loop_
_geom_bond_atom_site_label_1
_geom_bond_atom_site_label_2
_geom_bond_distance
_ccdc_geom_bond_type
C33   C34   1.531766 S    
C36   H7    1.108184 S    
C42   H23   1.110465 S    
O3    C2    1.262232 A    
C45   C46   1.527213 S    
C9    C45   1.518836 S    
C43   H29   1.107373 S    
C40   H16   1.107103 S    
C48   H37   1.108691 S    
C35   H9    1.108303 S    
O1    C1    1.263031 A    
C24   C25   1.392541 A    
C9    C11   1.409673 A    
C42   H22   1.107650 S    
C16   O12   1.347216 S    
C47   H39   1.101480 S    
C17   C21   1.412694 A    
C34   H1    1.108125 S    
C32   C39   1.532085 S    
C29   C33   1.517767 S    
C4    C30   1.414599 A    
C20   C22   1.411413 A    
C19   C21   1.413050 A    
C3    C31   1.411367 A    
C38   H11   1.108553 S    
O1    Zn1   1.972361 S    
C20   C26   1.407546 A    
O2    Zn2   1.972360 S    
C30   C35   1.527143 S    
C45   H34   1.103745 S    
C24   F2    1.358068 S    
C25   F3    1.358599 S    
O5    Zn1   1.980329 S    
C41   H24   1.101634 S    
C36   H8    1.110394 S    
C31   C37   1.524617 S    
C33   H4    1.107594 S    
O2    C2    1.263603 A    
C47   C48   1.532352 S    
C10   C32   1.413250 A    
C9    C31   1.412868 A    
C15   O11   1.349946 S    
C40   H17   1.110747 S    
C15   C17   1.398421 A    
C41   H25   1.101747 S    
C48   H38   1.110390 S    
C13   O9    1.349511 S    
C18   C22   1.412106 A    
C4    N1    1.429295 S    
C14   O10   1.350513 S    
C23   C26   1.389944 A    
C39   C40   1.530085 S    
C39   H20   1.108936 S    
C44   H26   1.109017 S    
N3    N4    1.189520 T    
C7    C11   1.414960 A    
C19   C25   1.408175 A    
C7    C41   1.523357 S    
C8    C43   1.531169 S    
O4    Zn2   1.969669 S    
O7    C6    1.272959 A    
C14   C20   1.398050 A    
C35   C36   1.529951 S    
C44   H27   1.110265 S    
C41   C42   1.528825 S    
C26   F4    1.358638 S    
C38   H13   1.110116 S    
C21   C22   1.408246 A    
C5    C11   1.460346 S    
C37   H14   1.105982 S    
C42   H21   1.110799 S    
C45   H35   1.109113 S    
C10   C12   1.421242 A    
C16   C18   1.401977 A    
C13   N1    1.365857 A    
C1    C27   1.377672 S    
C23   F1    1.358436 S    
C2    C28   1.377991 S    
C27   C28   1.172053 T    
O3    Zn1   1.969668 S    
C40   H18   1.109161 S    
O6    C6    1.277290 A    
C8    C12   1.417449 A    
C16   N2    1.366859 A    
C14   N2    1.367370 A    
O4    C1    1.261944 A    
O8    C5    1.272459 A    
C39   H19   1.107069 S    
C43   H30   1.104437 S    
C10   C47   1.528452 S    
C35   H10   1.109655 S    
C15   N1    1.365590 A    
C46   H33   1.101625 S    
C48   H36   1.106631 S    
C17   C23   1.407536 A    
C46   H32   1.110291 S    
C34   H3    1.102197 S    
C18   C24   1.407852 A    
C6    C12   1.462342 S    
C8    C30   1.413920 A    
O7    Zn1   1.993645 S    
C4    C32   1.412935 A    
O8    Zn2   1.993647 S    
C44   H28   1.110366 S    
C47   H40   1.108132 S    
C43   C44   1.526033 S    
C3    N2    1.432831 S    
C33   H5    1.107812 S    
C34   H2    1.108871 S    
C37   H15   1.107436 S    
C37   C38   1.527485 S    
C7    C29   1.411576 A    
Zn2   N3    1.967297 S    
C36   H6    1.109361 S    
O5    C5    1.276098 A    
O6    Zn2   1.980327 S    
C46   H31   1.111195 S    
C3    C29   1.408722 A    
C38   H12   1.110787 S    
Zn1   N4    1.967297 S    
C13   C19   1.401165 A    
