data_mof_unit_17162.cif
_audit_creation_date              2012-12-11T15:41:23-0500
_audit_creation_method            fapswitch 2.2
_symmetry_space_group_name_H-M    P1
_symmetry_Int_Tables_number       1
_space_group_crystal_system       triclinic
_cell_length_a                    14.959689
_cell_length_b                    14.80522
_cell_length_c                    14.959924
_cell_angle_alpha                 108.796279
_cell_angle_beta                  110.13788
_cell_angle_gamma                 108.908851
_cell_volume                      2568.09414831

loop_
_atom_site_label
_atom_site_type_symbol
_atom_type_description
_atom_site_fract_x
_atom_site_fract_y
_atom_site_fract_z
_atom_type_partial_charge
C1    C     C_R   0.193053 0.988360 0.896943 -0.041448
C2    C     C_R   0.800610 0.905318 0.438523 -0.233529
C3    C     C_R   0.263361 0.307682 0.828332 0.540855
C4    C     C_R   0.700174 0.809193 0.363436 0.500713
C5    C     C_R   0.282139 0.338525 0.936016 -0.157071
C6    C     C_R   0.691427 0.728181 0.273185 -0.153730
C7    C     C_R   0.196008 0.286857 0.951538 -0.258593
C8    C     C_R   0.784526 0.744807 0.262509 -0.204223
C9    C     C_R   0.091024 0.209235 0.862190 0.071942
C10   C     C_R   0.885123 0.840570 0.339300 0.021749
C11   C     C_R   0.073378 0.179609 0.756402 -0.216077
C12   C     C_R   0.756718 0.940630 0.033642 -0.043620
C13   C     C_R   0.892146 0.920788 0.426809 -0.269911
C14   C     C_R   0.391862 0.533536 0.074774 -0.104001
C15   C     C_R   0.577886 0.522827 0.174635 -0.119491
C16   C     C_R   0.774564 0.223319 0.314589 -0.158440
C17   C     C_R   0.198258 0.793034 0.699979 -0.111744
C18   C     C_R   0.493213 0.626430 0.123559 0.181364
C19   C     C_R   0.484516 0.426300 0.081335 0.086628
C20   C     C_R   0.587018 0.625263 0.188673 0.019889
C21   C     C_R   0.386888 0.431600 0.033314 0.015966
C22   C     C_R   0.902829 0.527826 0.423947 -0.125028
C23   C     C_R   0.809813 0.326657 0.325124 0.073848
C24   C     C_R   0.972376 0.525460 0.621261 -0.156068
C25   C     C_R   0.977853 0.624101 0.519846 -0.152652
C26   C     C_R   0.895265 0.429124 0.525260 -0.151594
C27   C     C_R   0.022836 0.620271 0.616540 0.125606
C28   C     C_R   0.869241 0.428873 0.425814 0.164723
C29   C     C_R   0.594819 0.154508 0.619830 -0.111574
C30   C     C_R   0.396953 0.045677 0.425481 -0.128660
C31   C     C_R   0.594596 0.148743 0.525730 -0.119891
C32   C     C_R   0.397090 0.051835 0.519606 -0.133450
C33   C     C_R   0.496144 0.083450 0.426134 0.137527
C34   C     C_R   0.134533 0.701531 0.699739 0.048969
C35   C     C_R   0.496420 0.095822 0.614082 0.152285
C36   C     C_R   0.058428 0.007290 0.026196 -0.156186
C37   C     C_R   0.846923 0.866878 0.845894 -0.163378
C38   C     C_R   0.972558 0.015304 0.033696 -0.049536
C39   C     C_R   0.933856 0.858134 0.838587 -0.086219
C40   C     C_R   0.406919 0.969275 0.221474 -0.036606
C41   C     C_R   0.589685 0.094371 0.790260 -0.111067
C42   C     C_R   0.867616 0.945074 0.943901 0.156533
C43   C     C_R   0.038642 0.928888 0.929119 0.137453
C44   C     C_R   0.585718 0.316032 0.050193 -0.007383
C45   C     C_R   0.497541 0.040872 0.324592 0.060815
C46   C     C_R   0.408639 0.701146 0.005575 0.006301
C47   C     C_R   0.589586 0.055126 0.314894 -0.051404
C48   C     C_R   0.407650 0.001876 0.698941 -0.082675
C49   C     C_R   0.405026 0.220259 0.970913 -0.123663
C50   C     C_R   0.588465 0.794357 0.104596 -0.096275
C51   C     C_R   0.773283 0.314797 0.221776 -0.058440
C52   C     C_R   0.197377 0.700851 0.791912 -0.091454
C53   C     C_R   0.196292 0.902593 0.993986 -0.194973
C54   C     C_R   0.750754 0.028508 0.936577 -0.103838
C55   C     C_R   0.131175 0.925970 0.926165 0.044666
C56   C     C_R   0.497876 0.064158 0.696946 0.079193
C57   C     C_R   0.781392 0.955666 0.956590 0.013943
C58   C     C_2   0.149616 0.999866 0.798927 0.449580
C59   C     C_2   0.804242 0.898645 0.103093 0.513467
C60   C     C_2   0.998559 0.160154 0.877987 0.518148
C61   C     C_2   0.983463 0.858357 0.329130 0.551267
C62   C     C_2   0.294219 0.543794 0.068031 0.524552
C63   C     C_2   0.659798 0.517566 0.261151 0.500908
C64   C     C_R   0.491640 0.325148 0.035898 0.165534
C65   C     C_R   0.497824 0.703534 0.079026 0.102295
C66   C     C_R   0.158972 0.227033 0.739722 -0.275292
H1    H     H_    0.142777 0.201482 0.656853 0.154929
H2    H     H_    0.319033 0.001726 0.351241 0.119323
H3    H     H_    0.672296 0.186694 0.530304 0.099020
H4    H     H_    0.319267 0.012055 0.514093 0.108506
H5    H     H_    0.140406 0.062364 0.095598 0.131825
H6    H     H_    0.764696 0.813138 0.776920 0.144851
H7    H     H_    0.801738 0.202799 0.377946 0.090027
H8    H     H_    0.172989 0.826410 0.647674 0.089558
H9    H     H_    0.987490 0.076297 0.109052 0.115864
H10   H     H_    0.920164 0.797625 0.763787 0.148453
H11   H     H_    0.322006 0.937362 0.198442 0.093375
H12   H     H_    0.808624 0.968694 0.507186 0.160040
H13   H     H_    0.672864 0.154280 0.822144 0.093371
H14   H     H_    0.666963 0.383302 0.090460 0.074687
H15   H     H_    0.323260 0.647676 0.971903 0.078959
H16   H     H_    0.672001 0.095407 0.380300 0.081065
H17   H     H_    0.323210 0.976022 0.646779 0.079992
H18   H     H_    0.321688 0.193873 0.949751 0.101615
H19   H     H_    0.668627 0.831497 0.172088 0.099346
H20   H     H_    0.796985 0.376981 0.199377 0.081148
H21   H     H_    0.170904 0.648317 0.824101 0.088028
H22   H     H_    0.170556 0.848187 0.024792 0.135089
H23   H     H_    0.210458 0.310652 0.033853 0.192190
H24   H     H_    0.766877 0.065216 0.888131 0.127654
H25   H     H_    0.993081 0.119342 0.686380 0.142622
H26   H     H_    0.968845 0.995538 0.486598 0.137175
H27   H     H_    0.204682 0.038797 0.774640 0.016766
H28   H     H_    0.822851 0.933733 0.187174 -0.027088
H29   H     H_    0.302238 0.271441 0.626847 0.341782
H30   H     H_    0.675763 0.852024 0.560546 0.337471
H31   H     H_    0.920275 0.093465 0.808387 0.011968
H32   H     H_    0.060248 0.933320 0.389178 -0.031354
H33   H     H_    0.212214 0.477847 0.006936 0.019199
H34   H     H_    0.777903 0.682808 0.193651 0.193013
H35   H     H_    0.740645 0.587299 0.318862 0.027931
H36   H     H_    0.878857 0.531546 0.348995 0.106524
H37   H     H_    0.000038 0.522057 0.696436 0.115852
H38   H     H_    0.009388 0.697907 0.514728 0.121889
H39   H     H_    0.863308 0.354783 0.529504 0.106782
H40   H     H_    0.672846 0.195801 0.693400 0.106643
N1    N     N_R   0.293810 0.002730 0.945950 -0.078954
N2    N     N_R   0.443210 0.997250 0.791090 -0.046047
N3    N     N_R   0.443180 0.152110 0.945950 -0.057692
N4    N     N_R   0.556820 0.847890 0.054050 -0.058685
N5    N     N_R   0.706170 0.208950 0.152090 -0.045666
N6    N     N_R   0.293830 0.791050 0.847910 -0.040460
N7    N     N_R   0.293800 0.945910 0.002760 -0.047787
N8    N     N_R   0.706200 0.054090 0.997240 -0.052008
N9    N     N_R   0.706190 0.997270 0.054050 -0.082616
N10   N     N_R   0.706160 0.152130 0.208910 -0.046227
N11   N     N_R   0.293840 0.847870 0.791090 -0.047451
N12   N     N_R   0.443140 0.945920 0.152090 -0.044207
N13   N     N_R   0.556860 0.054080 0.847910 -0.044008
N14   N     N_R   0.556830 0.208940 0.002760 -0.054401
N15   N     N_R   0.443170 0.791060 0.997240 -0.054127
N16   N     N_R   0.556790 0.002750 0.208910 -0.051270
Ni1   Ni    Ni4+2 0.369690 0.999990 0.869700 0.216618
Ni2   Ni    Ni4+2 0.630310 0.000010 0.130300 0.216808
Ni3   Ni    Ni4+2 0.369670 0.869670 0.000000 0.242503
Ni4   Ni    Ni4+2 0.630330 0.130330 0.000000 0.237648
O1    O     O_2   0.051767 0.962628 0.741914 -0.612387
O2    O     O_2   0.980223 0.789820 0.253988 -0.551069
O3    O     O_2   0.305023 0.627517 0.132908 -0.511009
O4    O     O_2   0.635309 0.437040 0.273304 -0.581540
O5    O     O_2   0.825659 0.826714 0.067930 -0.533447
O6    O     O_2   0.434060 0.488281 0.875719 -0.271784
O7    O     O_2   0.440586 0.317515 0.816294 -0.324913
O8    O     O_3   0.311243 0.343413 0.670975 -0.504759
O9    O     O_2   0.516400 0.820374 0.315473 -0.246863
O10   O     O_2   0.524466 0.677208 0.360389 -0.263914
O11   O     O_3   0.634349 0.878144 0.517957 -0.526279
O12   O     O_2   0.008060 0.194658 0.968526 -0.607153
S1    S     S_3+6 0.366916 0.366884 0.800429 -0.045280
S2    S     S_3+6 0.589257 0.793119 0.386935 -0.025199

loop_
_geom_bond_atom_site_label_1
_geom_bond_atom_site_label_2
_ccdc_geom_bond_type
C40   N12   A    
C8    C10   A    
C33   C45   S    
C14   C18   A    
C61   H32   S    
N2    N13   A    
C24   C27   A    
N1    Ni1   S    
O10   S2    D    
N8    N9    A    
C44   C64   A    
O6    S1    D    
C15   C19   A    
C59   O5    D    
C14   C21   A    
C19   C21   A    
C58   H27   S    
C24   C26   A    
C54   H24   S    
N4    N15   A    
N6    N11   A    
N8    Ni4   S    
N14   Ni4   S    
C63   O4    D    
N7    Ni3   S    
C44   N14   A    
C7    H23   S    
C50   N4    A    
C26   H39   S    
C48   C56   A    
N12   N16   A    
C47   H16   S    
C37   C42   A    
C2    C13   A    
N1    N7    A    
C50   H19   S    
N4    Ni2   S    
C12   C59   S    
C51   H20   S    
C22   C25   A    
C31   C33   A    
C46   N15   A    
N5    N10   A    
N12   Ni3   S    
C53   H22   S    
C11   C66   A    
C17   N11   A    
C12   N9    A    
C45   C47   A    
C66   H1    S    
C58   O1    D    
C49   C64   A    
C22   C28   A    
C62   O3    D    
C40   C45   A    
C16   N10   A    
C42   C57   S    
C53   N7    A    
C38   H9    S    
C53   C55   A    
C27   C34   S    
O9    S2    D    
O11   S2    S    
C16   H7    S    
C32   C35   A    
C44   H14   S    
C46   C65   A    
C4    C6    A    
C60   H31   S    
O8    S1    S    
C5    C7    A    
C32   H4    S    
N3    Ni1   S    
C47   N16   A    
C39   C43   A    
C23   C28   S    
H29   O8    S    
C15   C20   A    
C18   C65   S    
C2    C4    A    
C41   C56   A    
N15   Ni3   S    
C2    H12   S    
C4    S2    S    
C46   H15   S    
C23   C51   A    
C19   C64   S    
N5    Ni4   S    
C39   H10   S    
C41   N13   A    
C9    C11   A    
N6    Ni3   S    
C1    N1    A    
C12   C57   A    
C43   C55   S    
C59   H28   S    
O7    S1    D    
C16   C23   A    
C13   H26   S    
C17   H8    S    
C29   H40   S    
C10   C61   S    
C3    S1    S    
C17   C34   A    
N2    Ni1   S    
N16   Ni2   S    
H30   O11   S    
C49   H18   S    
C49   N3    A    
C7    C9    A    
C51   N5    A    
N9    Ni2   S    
N10   Ni2   S    
C30   C33   A    
C35   C56   S    
C34   C52   A    
C52   H21   S    
C3    C5    A    
C10   C13   A    
C41   H13   S    
C6    C8    A    
C36   H5    S    
C25   H38   S    
C38   C42   A    
C25   C27   A    
C6    C20   S    
C29   C35   A    
C26   C28   A    
C22   H36   S    
C48   H17   S    
C15   C63   S    
C24   H37   S    
C9    C60   S    
C36   C38   A    
N11   Ni1   S    
C63   H35   S    
C29   C31   A    
C1    C58   S    
C30   C32   A    
C8    H34   S    
C48   N2    A    
C54   N8    A    
C61   O2    D    
C18   C20   A    
C1    C55   A    
C50   C65   A    
C62   H33   S    
C3    C66   A    
N13   Ni4   S    
C11   H25   S    
C31   H3    S    
C5    C21   S    
C37   C39   A    
C37   H6    S    
C52   N6    A    
C40   H11   S    
C36   C43   A    
C30   H2    S    
N3    N14   A    
C60   O12   D    
C54   C57   A    
C14   C62   S    
