data_mof_unit_43914.cif
_audit_creation_date              2013-03-05T15:46:32-0500
_audit_creation_method            fapswitch 2.2
_symmetry_space_group_name_H-M    P1
_symmetry_Int_Tables_number       1
_space_group_crystal_system       triclinic
_cell_length_a                    10.196318
_cell_length_b                    10.568264
_cell_length_c                    10.665078
_cell_angle_alpha                 90.434195
_cell_angle_beta                  93.916303
_cell_angle_gamma                 80.206601
_cell_volume                      1129.83951791

loop_
_atom_site_label
_atom_site_type_symbol
_atom_site_description
_atom_site_fract_x
_atom_site_fract_y
_atom_site_fract_z
_atom_type_partial_charge
O1    O     O_R   0.568940 0.489660 0.307530 -0.622462
O2    O     O_R   0.431060 0.510340 0.692470 -0.589343
O3    O     O_R   0.348880 0.522640 0.340350 -0.532141
O4    O     O_R   0.651120 0.477360 0.659650 -0.537640
C1    C     C_R   0.446252 0.500848 0.266841 0.966018
C2    C     C_R   0.553879 0.485053 0.733536 0.952557
O5    O     O_R   0.610030 0.300280 0.483580 -0.565651
O6    O     O_R   0.389970 0.699720 0.516420 -0.605885
O7    O     O_R   0.389970 0.333270 0.516400 -0.601613
O8    O     O_R   0.610030 0.666730 0.483600 -0.587335
C3    C     C_R   0.504839 0.257613 0.511771 0.915568
C4    C     C_R   0.492312 0.738932 0.476910 0.878198
Zn1   Zn    Zn3+2 0.646940 0.477980 0.478080 1.093343
Zn2   Zn    Zn3+2 0.353060 0.522020 0.521920 1.092333
C5    C     C_R   0.750627 0.059764 0.461296 0.325281
C6    C     C_R   0.237095 0.930938 0.492347 0.296458
C7    C     C_R   0.832867 0.996689 0.371720 -0.106898
C8    C     C_R   0.151230 0.991867 0.579890 -0.136458
C9    C     C_R   0.793508 0.896819 0.300186 0.156530
C10   C     C_R   0.187680 0.091179 0.653716 0.134137
C11   C     C_R   0.675064 0.854674 0.325118 -0.130269
C12   C     C_R   0.306171 0.135157 0.633477 -0.115576
C13   C     C_R   0.589435 0.921455 0.410807 0.037797
C14   C     C_R   0.395743 0.072278 0.548904 0.016633
C15   C     C_R   0.618006 0.035121 0.465614 -0.000600
C16   C     C_R   0.368646 0.959427 0.491986 -0.011541
C17   C     C_R   0.476647 0.875072 0.445050 -0.127728
C18   C     C_R   0.512702 0.118201 0.521349 -0.120406
H1    H     H_    0.930526 0.021068 0.361611 0.202337
H2    H     H_    0.054974 0.963995 0.588925 0.211507
H3    H     H_    0.647836 0.771976 0.275622 0.137874
H4    H     H_    0.329159 0.216557 0.686172 0.206130
C19   C     C_2   0.421692 0.481088 0.133853 -0.372558
C20   C     C_2   0.579674 0.461783 0.867516 -0.405573
C21   C     C_2   0.513711 0.405297 0.069317 0.250517
C22   C     C_2   0.494882 0.408669 0.934184 0.269026
H5    H     H_    0.667444 0.491791 0.914110 0.192931
H6    H     H_    0.332985 0.536433 0.085952 0.198615
N1    N     N_2   0.157300 0.551390 0.551120 -0.189082
N2    N     N_2   0.842700 0.448610 0.448880 -0.196566
C23   C     C_2   0.072635 0.493305 0.485277 0.271185
C24   C     C_2   0.926722 0.509035 0.512761 0.258144
H7    H     H_    0.877838 0.391434 0.375746 0.227708
H8    H     H_    0.122419 0.607502 0.625036 0.218110
N3    N     N_3   0.101127 0.150737 0.745210 -0.332728
H9    H     H_    0.153563 0.139387 0.833187 0.248781
H10   H     H_    0.078530 0.249131 0.725422 0.257717
N4    N     N_3   0.879337 0.833538 0.209344 -0.338405
H11   H     H_    0.882972 0.899964 0.138064 0.229942
H12   H     H_    0.838437 0.758015 0.167383 0.201704
N5    N     N_R   0.808815 0.133342 0.557149 0.209300
O9    O     O_R   0.905059 0.193432 0.532231 -0.422915
O10   O     O_R   0.769638 0.136515 0.670941 -0.360494
N6    N     N_R   0.187975 0.847233 0.399935 0.218737
O11   O     O_R   0.238590 0.831975 0.290950 -0.377203
O12   O     O_R   0.087220 0.791776 0.421317 -0.405809
N7    N     N_R   0.384000 0.355230 0.879525 0.190513
O13   O     O_R   0.274109 0.432031 0.844217 -0.381657
O14   O     O_R   0.375823 0.238439 0.911629 -0.393141
N8    N     N_R   0.621138 0.314056 0.128255 0.235814
O15   O     O_R   0.597227 0.240627 0.218341 -0.382255
O16   O     O_R   0.733409 0.285187 0.074991 -0.349673
N9    N     N_R   0.880175 0.592848 0.612186 0.218577
O17   O     O_R   0.856833 0.716204 0.592592 -0.375646
O18   O     O_R   0.897336 0.550037 0.727179 -0.358342
N10   N     N_R   0.117902 0.414104 0.382202 0.219550
O19   O     O_R   0.144443 0.290186 0.397153 -0.367669
O20   O     O_R   0.096835 0.461212 0.268892 -0.338312

loop_
_geom_bond_atom_site_label_1
_geom_bond_atom_site_label_2
_geom_bond_distance
_ccdc_geom_bond_type
N10   O20   1.300634 A    
O7    Zn2   1.967238 S    
N9    O18   1.300596 A    
N6    O12   1.299902 A    
C23   N10   1.430401 S    
C8    H2    1.082126 S    
C5    N5    1.436586 S    
C20   H5    1.087118 S    
C7    H1    1.082555 S    
C23   C24   1.517146 S    
C20   C22   1.350266 D    
C10   N3    1.430575 S    
O6    C4    1.283761 A    
O3    C1    1.295834 A    
N2    C24   1.306030 D    
N10   O19   1.300157 A    
C16   C17   1.411582 A    
N1    C23   1.306178 D    
C6    C8    1.401290 A    
N3    H9    1.044974 S    
C15   C18   1.426769 A    
O5    C3    1.286368 A    
C11   H3    1.084009 S    
O7    C3    1.304704 A    
N7    O13   1.301411 A    
O2    C2    1.282382 A    
O3    Zn2   1.934050 S    
C12   H4    1.074286 S    
C3    C18   1.465800 S    
N8    O15   1.300917 A    
O1    C1    1.281999 A    
O8    C4    1.305978 A    
C12   C14   1.409346 A    
N4    H12   1.045727 S    
N4    H11   1.045414 S    
C9    C11   1.398668 A    
C10   C12   1.396586 A    
C8    C10   1.392780 A    
C13   C17   1.395729 A    
C11   C13   1.408964 A    
C6    C16   1.424063 A    
O2    Zn2   1.930975 S    
C6    N6    1.440436 S    
C5    C15   1.423725 A    
O4    C2    1.299598 A    
N7    O14   1.301127 A    
N1    H8    1.029112 S    
N5    O9    1.298896 A    
C2    C20   1.450317 S    
O5    Zn1   1.979144 S    
C13   C15   1.398108 A    
O1    Zn1   1.930973 S    
N5    O10   1.301754 A    
C14   C18   1.411027 A    
N8    O16   1.301386 A    
C22   N7    1.434993 S    
N3    H10   1.045994 S    
O4    Zn1   1.934051 S    
C5    C7    1.403487 A    
C9    N4    1.434807 S    
C7    C9    1.395398 A    
C19   H6    1.087480 S    
O6    Zn2   1.979145 S    
C21   C22   1.440782 S    
C4    C17   1.460412 S    
C19   C21   1.349002 D    
Zn2   N1    2.012498 S    
N6    O11   1.301604 A    
C24   N9    1.430287 S    
N2    H7    1.029192 S    
N9    O17   1.300625 A    
C14   C16   1.394789 A    
C21   N8    1.442410 S    
Zn1   N2    2.012496 S    
O8    Zn1   1.967239 S    
C1    C19   1.443176 S    
