data_mof_unit_37329.cif
_audit_creation_date              2012-12-10T17:27:49-0500
_audit_creation_method            fapswitch 2.2
_symmetry_space_group_name_H-M    P1
_symmetry_Int_Tables_number       1
_space_group_crystal_system       triclinic
_cell_length_a                    10.65283
_cell_length_b                    11.994079
_cell_length_c                    12.867323
_cell_angle_alpha                 93.33762
_cell_angle_beta                  91.607954
_cell_angle_gamma                 84.607632
_cell_volume                      1633.59498335

loop_
_atom_site_label
_atom_site_type_symbol
_atom_type_description
_atom_site_fract_x
_atom_site_fract_y
_atom_site_fract_z
_atom_type_partial_charge
Br1   Br    Br    0.224077 0.589048 0.259672 -0.562642
Br2   Br    Br    0.155586 0.559285 0.712908 -0.513171
C1    C     C_R   0.498973 0.521944 0.700580 0.925606
C2    C     C_R   0.524898 0.637526 0.863208 -0.181403
C3    C     C_R   0.490489 0.439998 0.867712 -0.242308
C4    C     C_R   0.739705 0.498669 0.503395 0.865764
C5    C     C_R   0.501970 0.446611 0.974406 0.177564
C6    C     C_R   0.524972 0.549936 0.026399 0.181448
C7    C     C_R   0.533286 0.557052 0.133384 -0.226952
C8    C     C_R   0.495792 0.360089 0.137362 -0.197781
C9    C     C_R   0.489756 0.351578 0.029792 -0.210472
C10   C     C_R   0.384453 0.957204 0.399160 -0.321960
C11   C     C_R   0.395339 0.840628 0.409244 0.046534
C12   C     C_R   0.930402 0.465518 0.402152 0.080742
C13   C     C_R   0.549671 0.856844 0.544151 -0.035582
C14   C     C_R   0.541972 0.974671 0.536835 0.090386
C15   C     C_R   0.458147 0.025358 0.463223 0.086048
C16   C     C_R   0.507527 0.477709 0.299816 0.908710
C17   C     C_R   0.450392 0.143133 0.455861 -0.036824
C18   C     C_R   0.604719 0.159524 0.590821 0.030038
C19   C     C_R   0.615661 0.042897 0.600919 -0.317315
C20   C     C_R   0.260007 0.500797 0.491058 0.986281
C21   C     C_R   0.864036 0.423818 0.313679 -0.169000
C22   C     C_R   0.921172 0.408794 0.217468 -0.195129
C23   C     C_R   0.871871 0.492887 0.497729 -0.115269
C24   C     C_R   0.040265 0.444063 0.206370 -0.123220
C25   C     C_R   0.105766 0.487843 0.292767 0.223100
C26   C     C_R   0.057105 0.485822 0.394280 -0.013434
C27   C     C_R   0.937987 0.523898 0.587498 -0.244396
C28   C     C_R   0.066276 0.526590 0.584333 0.259015
C29   C     C_R   0.126001 0.507108 0.488403 -0.163612
C30   C     C_R   0.514641 0.463522 0.188696 -0.034721
C31   C     C_R   0.502910 0.534674 0.812101 -0.033223
C32   C     C_R   0.536244 0.645088 0.970789 -0.193325
H1    H     H_    0.889836 0.543798 0.660351 0.163787
H2    H     H_    0.613732 0.816600 0.600335 0.124856
H3    H     H_    0.768105 0.402581 0.318055 0.145263
H4    H     H_    0.869518 0.377243 0.150068 0.159365
H5    H     H_    0.077737 0.444902 0.129073 0.177982
H6    H     H_    0.550089 0.636563 0.173510 0.164698
H7    H     H_    0.481936 0.287193 0.180108 0.162704
H8    H     H_    0.553545 0.724676 0.010307 0.144667
H9    H     H_    0.472857 0.271938 0.990169 0.144294
H10   H     H_    0.535265 0.711001 0.820198 0.160004
H11   H     H_    0.472240 0.360553 0.828139 0.166134
H12   H     H_    0.386326 0.183359 0.399664 0.126521
H13   H     H_    0.661620 0.211737 0.640441 0.133427
H14   H     H_    0.319017 0.993593 0.341757 0.156349
H15   H     H_    0.681091 0.006528 0.658333 0.151011
H16   H     H_    0.338391 0.788719 0.359635 0.180518
N1    N     N_R   0.523130 0.207800 0.519340 -0.102778
N2    N     N_R   0.476870 0.792180 0.480660 -0.105221
O1    O     O_R   0.506170 0.421690 0.658830 -0.628975
O2    O     O_R   0.491330 0.609320 0.646410 -0.618719
O3    O     O_R   0.690660 0.406170 0.506210 -0.630229
O4    O     O_R   0.675810 0.593790 0.493790 -0.618258
O5    O     O_R   0.508670 0.390680 0.353590 -0.644340
O6    O     O_R   0.493830 0.578310 0.341170 -0.601098
O7    O     O_R   0.324190 0.406210 0.506210 -0.611943
O8    O     O_R   0.309340 0.593830 0.493790 -0.570589
Zn1   Zn    Zn3+2 0.509910 0.374720 0.508290 0.954817
Zn2   Zn    Zn3+2 0.490090 0.625280 0.491710 0.986256

loop_
_geom_bond_atom_site_label_1
_geom_bond_atom_site_label_2
_ccdc_geom_bond_type
C12   C21   A    
C10   C15   A    
C22   H4    S    
C21   C22   A    
C9    H9    S    
C27   C28   A    
C17   N1    A    
C11   N2    A    
C3    C5    A    
C27   H1    S    
C16   O5    A    
N1    Zn1   S    
C10   H14   S    
C4    O3    A    
Br2   C28   S    
C19   H15   S    
C6    C7    A    
C17   H12   S    
C5    C6    A    
C32   H8    S    
C6    C32   A    
C13   N2    A    
C10   C11   A    
C8    H7    S    
O5    Zn1   S    
C1    O1    A    
C24   C25   A    
C14   C19   A    
O1    Zn1   S    
O6    Zn2   S    
O3    Zn1   S    
C15   C17   A    
C22   C24   A    
C5    C9    A    
C18   N1    A    
C2    C32   A    
C7    H6    S    
C12   C23   A    
C20   O8    A    
C28   C29   A    
C1    O2    A    
O4    Zn2   S    
C24   H5    S    
O7    Zn1   S    
C4    C23   S    
C16   C30   S    
C8    C9    A    
C1    C31   S    
C11   H16   S    
C18   H13   S    
C8    C30   A    
C13   H2    S    
C20   O7    A    
C18   C19   A    
C23   C27   A    
O8    Zn2   S    
C20   C29   S    
C25   C26   A    
Br1   C25   S    
C2    C31   A    
O2    Zn2   S    
N2    Zn2   S    
C2    H10   S    
C7    C30   A    
C12   C26   A    
C21   H3    S    
C3    H11   S    
C16   O6    A    
C26   C29   A    
C13   C14   A    
C4    O4    A    
C14   C15   A    
C3    C31   A    
