data_mof_unit_28673.cif
_audit_creation_date              2013-03-05T16:09:38-0500
_audit_creation_method            fapswitch 2.2
_symmetry_space_group_name_H-M    P1
_symmetry_Int_Tables_number       1
_space_group_crystal_system       triclinic
_cell_length_a                    14.610118
_cell_length_b                    7.230685
_cell_length_c                    13.463168
_cell_angle_alpha                 89.999294
_cell_angle_beta                  99.406485
_cell_angle_gamma                 90.005987
_cell_volume                      1403.14045005

loop_
_atom_site_label
_atom_site_type_symbol
_atom_site_description
_atom_site_fract_x
_atom_site_fract_y
_atom_site_fract_z
_atom_type_partial_charge
O1    O     O_R   0.398210 0.494340 0.401550 -0.578215
O2    O     O_R   0.601790 0.994340 0.598450 -0.575222
O3    O     O_R   0.586310 0.821730 0.403360 -0.598002
O4    O     O_R   0.413690 0.321730 0.596640 -0.587616
C1    C     C_R   0.615164 0.655704 0.381567 0.897591
C2    C     C_R   0.386401 0.155084 0.620191 0.882829
O5    O     O_R   0.397970 0.823900 0.389580 -0.586921
O6    O     O_R   0.602030 0.323900 0.610420 -0.584289
O7    O     O_R   0.412100 0.996500 0.584560 -0.580363
O8    O     O_R   0.587900 0.496500 0.415440 -0.597631
C3    C     C_R   0.365072 0.655222 0.362997 0.983519
C4    C     C_R   0.634945 0.155233 0.636985 0.958376
O9    O     O_3   0.504860 0.661550 0.563990 -0.248381
O10   O     O_3   0.495140 0.161550 0.436010 -0.280652
V1    V     V_3+5 0.499100 0.935510 0.488130 1.208271
V2    V     V_3+5 0.500900 0.435510 0.511870 1.210202
C5    C     C_1   0.716001 0.144652 0.716878 -0.208010
C6    C     C_1   0.284036 0.644632 0.283080 -0.186574
C7    C     C_1   0.783907 0.134128 0.783231 -0.229381
C8    C     C_1   0.216133 0.634125 0.216723 -0.222143
C9    C     C_3   0.267054 0.273931 0.852906 -0.332856
C10   C     C_3   0.783235 0.837268 0.204782 -0.335036
H1    H     H_    0.236681 0.412656 0.862446 0.163774
H2    H     H_    0.845128 0.920978 0.236467 0.150652
H3    H     H_    0.304131 0.230173 0.928048 0.194031
H4    H     H_    0.752498 0.901111 0.131651 0.180013
C11   C     C_3   0.337226 0.290697 0.778285 -0.259259
C12   C     C_3   0.711943 0.845639 0.277505 -0.309009
H5    H     H_    0.409419 0.277169 0.818799 0.202684
H6    H     H_    0.649398 0.922493 0.241648 0.206479
H7    H     H_    0.331850 0.432282 0.745461 0.186411
H8    H     H_    0.742102 0.927297 0.345132 0.140192
H9    H     H_    0.112768 0.328885 0.707365 0.158965
H10   H     H_    0.914915 0.624853 0.326603 0.138908
H11   H     H_    0.217663 0.328999 0.597765 0.166617
H12   H     H_    0.806457 0.639997 0.432263 0.159901
C13   C     C_3   0.144366 0.189065 0.705981 -0.369072
C14   C     C_3   0.851205 0.549274 0.292219 -0.364045
C15   C     C_3   0.236185 0.940103 0.808183 -0.445850
C16   C     C_3   0.723693 0.525871 0.142103 -0.449386
C17   C     C_3   0.189130 0.132249 0.814197 0.065874
C18   C     C_3   0.812592 0.634351 0.187723 0.076401
H13   H     H_    0.183081 0.835455 0.777501 0.143716
H14   H     H_    0.741906 0.379895 0.127710 0.149222
H15   H     H_    0.266396 0.892892 0.885265 0.199345
H16   H     H_    0.694290 0.586272 0.067722 0.198261
C19   C     C_3   0.316076 0.145408 0.692203 -0.070780
C20   C     C_3   0.686264 0.647964 0.310394 -0.044106
C21   C     C_3   0.217644 0.190765 0.634151 -0.426692
C22   C     C_3   0.777995 0.558533 0.364028 -0.429993
C23   C     C_3   0.311371 0.947439 0.738996 0.261667
C24   C     C_3   0.650920 0.527831 0.215101 0.256872
H17   H     H_    0.289414 0.848817 0.675887 0.056755
H18   H     H_    0.644081 0.382815 0.241198 0.077465
H19   H     H_    0.087618 0.091056 0.676668 0.139357
H20   H     H_    0.871222 0.402510 0.283117 0.160007
H21   H     H_    0.197786 0.088014 0.572868 0.146345
H22   H     H_    0.764448 0.416424 0.389909 0.156271
O11   O     O_R   0.912140 0.786650 0.084610 -0.593217
O12   O     O_R   0.087860 0.286650 0.915390 -0.592047
O13   O     O_R   0.102040 0.454810 0.110430 -0.582708
O14   O     O_R   0.897960 0.954810 0.889570 -0.581836
C25   C     C_R   0.135016 0.623563 0.136896 0.957090
C26   C     C_R   0.865006 0.123560 0.863079 0.956832
O15   O     O_R   0.913690 0.457060 0.096650 -0.595384
O16   O     O_R   0.086310 0.957060 0.903350 -0.594491
O17   O     O_R   0.898200 0.284560 0.901540 -0.580001
O18   O     O_R   0.101800 0.784560 0.098460 -0.580091
C27   C     C_R   0.884788 0.625583 0.117885 0.864948
C28   C     C_R   0.116144 0.125122 0.883189 0.871362
O19   O     O_3   0.995160 0.617270 0.936040 -0.284316
O20   O     O_3   0.004840 0.117270 0.063960 -0.286628
V3    V     V_3+5 0.000900 0.343280 0.011870 1.157725
V4    V     V_3+5 0.999100 0.843280 0.988130 1.159418
N1    N     N_R   0.401743 0.885498 0.793319 0.231924
O21   O     O_R   0.437918 0.959278 0.878949 -0.377990
O22   O     O_R   0.442280 0.742808 0.760791 -0.388750
N2    N     N_R   0.559328 0.587280 0.163271 0.229092
O23   O     O_R   0.548964 0.741536 0.112858 -0.370891
O24   O     O_R   0.487844 0.479780 0.162927 -0.397527

loop_
_geom_bond_atom_site_label_1
_geom_bond_atom_site_label_2
_geom_bond_distance
_ccdc_geom_bond_type
C15   C23   1.552927 S    
C3    C6    1.465885 S    
C11   H5    1.109738 S    
O1    C3    1.332292 A    
O2    C4    1.332280 A    
C2    O7    1.320960 A    
C21   H21   1.112929 S    
C15   C17   1.558162 S    
O16   C28   1.333769 A    
C20   C22   1.555482 S    
O5    C3    1.338034 A    
C23   N1    1.470795 S    
C14   C18   1.554516 S    
N2    O24   1.301243 A    
O18   V4    1.977278 S    
O16   V4    2.019468 S    
O12   V3    2.002147 S    
O15   V3    2.019589 S    
O13   C25   1.338559 A    
O14   C26   1.338589 A    
H12   C22   1.113070 S    
C4    C5    1.465906 S    
H11   C21   1.113129 S    
O17   V3    1.977218 S    
C16   H14   1.113270 S    
C15   H15   1.112929 S    
C16   C18   1.555147 S    
C9    C11   1.552971 S    
O6    V2    1.988507 S    
C10   C12   1.542894 S    
C24   N2    1.468768 S    
C24   H18   1.115507 S    
C1    C20   1.525041 S    
C2    C19   1.525159 S    
C11   H7    1.112744 S    
C22   H22   1.113067 S    
C26   O17   1.332798 A    
C12   H8    1.113799 S    
C19   C21   1.555391 S    
N2    O23   1.301562 A    
C15   H13   1.113681 S    
O13   V3    1.988326 S    
C16   C24   1.561416 S    
C18   C27   1.524749 S    
H9    C13   1.112874 S    
C23   H17   1.115437 S    
O4    V2    2.019378 S    
C16   H16   1.112431 S    
N1    O21   1.301467 A    
C13   C21   1.555615 S    
O12   C28   1.334725 A    
C7    C26   1.465968 S    
O6    C4    1.338074 A    
O1    V2    1.977272 S    
O2    V1    1.977212 S    
N1    O22   1.300755 A    
O11   V4    2.002088 S    
O11   C27   1.332348 A    
C9    C17   1.556622 S    
O4    C2    1.323872 A    
C9    H1    1.112790 S    
C10   H2    1.113481 S    
O3    V1    2.019500 S    
C11   C19   1.557286 S    
C9    H3    1.112604 S    
C25   O18   1.332841 A    
C12   C20   1.560121 S    
H10   C14   1.112831 S    
O20   V3    1.775544 S    
O3    C1    1.321168 A    
O19   V4    1.775549 S    
C19   C23   1.569953 S    
C14   C22   1.556038 S    
C8    C25   1.465969 S    
C12   H6    1.110301 S    
O7    V1    2.008763 S    
C1    O8    1.323276 A    
O8    V2    2.008697 S    
C10   C18   1.556216 S    
O15   C27   1.335831 A    
O5    V1    1.988393 S    
C5    C7    1.224089 T    
C6    C8    1.224075 T    
C13   C17   1.551683 S    
C13   H19   1.112786 S    
C20   C24   1.565421 S    
C14   H20   1.112875 S    
C10   H4    1.113398 S    
O9    V2    1.775897 S    
O10   V1    1.775892 S    
O14   V4    1.988438 S    
C17   C28   1.525200 S    
