data_mof_unit_30008.cif
_audit_creation_date              2012-12-10T20:46:51-0500
_audit_creation_method            fapswitch 2.2
_symmetry_space_group_name_H-M    P1
_symmetry_Int_Tables_number       1
_space_group_crystal_system       triclinic
_cell_length_a                    12.984979
_cell_length_b                    8.928215
_cell_length_c                    8.160106
_cell_angle_alpha                 89.999612
_cell_angle_beta                  95.699433
_cell_angle_gamma                 90.000691
_cell_volume                      941.346377796

loop_
_atom_site_label
_atom_site_type_symbol
_atom_type_description
_atom_site_fract_x
_atom_site_fract_y
_atom_site_fract_z
_atom_type_partial_charge
C1    C     C_R   0.500000 0.218221 0.500000 0.949606
C2    C     C_R   0.867340 0.513989 0.697079 -0.299616
C3    C     C_R   0.134669 0.461754 0.595566 0.474619
C4    C     C_R   0.865348 0.461847 0.404324 0.475038
C5    C     C_R   0.027115 0.474464 0.579782 0.022012
C6    C     C_R   0.972919 0.474237 0.420080 0.021872
C7    C     C_1   0.500000 0.065253 0.500000 -0.172585
C8    C     C_1   0.500000 0.934749 0.499999 -0.180262
C9    C     C_3   0.793439 0.484997 0.134705 -0.257059
C10   C     C_3   0.206594 0.483209 0.865370 -0.256351
C11   C     C_R   0.500000 0.781776 0.500000 0.928116
C12   C     C_R   0.298176 0.496608 0.470426 0.916218
C13   C     C_R   0.701831 0.496712 0.529554 0.916246
C14   C     C_R   0.813105 0.490318 0.543715 -0.144257
C15   C     C_R   0.186916 0.490010 0.456162 -0.143739
C16   C     C_R   0.027364 0.491062 0.281639 -0.177961
C17   C     C_R   0.972710 0.492137 0.718139 -0.178117
C18   C     C_R   0.132717 0.513040 0.302648 -0.299920
H1    H     H_    0.827371 0.547135 0.800580 0.170283
H2    H     H_    0.166270 0.436395 0.966479 0.167149
H3    H     H_    0.172711 0.545636 0.198976 0.170370
H4    H     H_    0.989917 0.499801 0.158384 0.153440
H5    H     H_    0.010209 0.501685 0.841283 0.152712
H6    H     H_    0.817144 0.604005 0.157241 0.122552
H7    H     H_    0.709550 0.482684 0.094169 0.211733
H8    H     H_    0.833020 0.437972 0.032923 0.167521
H9    H     H_    0.183894 0.602659 0.843223 0.122687
H10   H     H_    0.290375 0.479467 0.906594 0.211610
N1    N     N_1   0.500020 0.500000 0.073640 -0.058922
N2    N     N_1   0.499980 0.500000 0.926360 -0.058834
O1    O     O_R   0.499990 0.285340 0.636850 -0.607694
O2    O     O_3   0.185454 0.387214 0.729205 -0.592465
O3    O     O_R   0.500010 0.714660 0.363150 -0.619465
O4    O     O_R   0.500010 0.285340 0.363150 -0.607716
O5    O     O_R   0.499990 0.714660 0.636850 -0.619434
O6    O     O_R   0.346350 0.500000 0.614250 -0.593784
O7    O     O_R   0.653650 0.500000 0.385750 -0.593589
O8    O     O_R   0.346360 0.500000 0.340500 -0.639467
O9    O     O_R   0.653640 0.500000 0.659500 -0.639333
O10   O     O_3   0.814400 0.388161 0.270219 -0.592409
Zn1   Zn    Zn3+2 0.499990 0.500000 0.682780 0.989613
Zn2   Zn    Zn3+2 0.500010 0.500000 0.317220 0.989582

loop_
_geom_bond_atom_site_label_1
_geom_bond_atom_site_label_2
_ccdc_geom_bond_type
C10   H9    S    
C1    O4    A    
C15   C18   A    
C9    H6    S    
N1    N2    T    
N1    Zn2   S    
C12   O6    A    
C18   H3    S    
C3    O2    S    
C13   O7    A    
O4    Zn2   S    
C12   C15   S    
C1    O1    A    
C11   O5    A    
C9    H7    S    
C7    C8    T    
N2    Zn1   S    
C13   C14   S    
C2    C17   A    
C4    C14   A    
O6    Zn1   S    
C17   H5    S    
C8    C11   S    
C2    C14   A    
O3    Zn2   S    
C4    C6    A    
C9    H8    S    
O8    Zn2   S    
C12   O8    A    
C5    C6    A    
O5    Zn1   S    
C13   O9    A    
C5    C17   A    
C6    C16   A    
C10   O2    S    
C11   O3    A    
C3    C15   A    
O9    Zn1   S    
C16   C18   A    
C10   H10   S    
O7    Zn2   S    
C16   H4    S    
O1    Zn1   S    
C2    H1    S    
C1    C7    S    
C9    O10   S    
C4    O10   S    
C10   H2    S    
C3    C5    A    
