data_mof_unit_5971.cif
_audit_creation_date              2012-12-11T15:31:36-0500
_audit_creation_method            fapswitch 2.2
_symmetry_space_group_name_H-M    P1
_symmetry_Int_Tables_number       1
_space_group_crystal_system       triclinic
_cell_length_a                    7.007184
_cell_length_b                    14.815494
_cell_length_c                    21.352878
_cell_angle_alpha                 74.18125
_cell_angle_beta                  90.395043
_cell_angle_gamma                 90.479302
_cell_volume                      2132.69680452

loop_
_atom_site_label
_atom_site_type_symbol
_atom_type_description
_atom_site_fract_x
_atom_site_fract_y
_atom_site_fract_z
_atom_type_partial_charge
O1    O     O_R   0.648150 0.130050 0.214300 -0.542602
O2    O     O_R   0.351850 0.869950 0.785700 -0.532119
O3    O     O_R   0.320490 0.006660 0.340150 -0.535404
O4    O     O_R   0.679510 0.993340 0.659850 -0.531850
O5    O     O_R   0.146100 0.869940 0.285700 -0.534288
O6    O     O_R   0.853900 0.130060 0.714300 -0.537259
C1    C     C_R   0.489395 0.001660 0.366890 0.718100
C2    C     C_R   0.510578 0.998323 0.633111 0.727562
O7    O     O_R   0.318690 0.137980 0.218120 -0.543526
O8    O     O_R   0.681310 0.862020 0.781880 -0.546074
O9    O     O_R   0.144280 0.002190 0.162800 -0.543156
O10   O     O_R   0.855720 0.997810 0.837200 -0.557527
C3    C     C_R   0.487785 0.175516 0.206485 0.700960
C4    C     C_R   0.512165 0.824768 0.794709 0.702215
O11   O     O_R   0.649960 0.997790 0.337200 -0.548544
O12   O     O_R   0.350040 0.002210 0.662800 -0.546902
O13   O     O_3   0.479300 0.955290 0.231990 -0.366523
O14   O     O_3   0.520700 0.044710 0.768010 -0.376501
V1    V     V_3+5 0.206040 0.008290 0.253340 1.467680
V2    V     V_3+5 0.793960 0.991710 0.746660 1.444270
O15   O     O_R   0.814320 0.993320 0.159850 -0.520422
O16   O     O_R   0.185680 0.006680 0.840150 -0.517659
C5    C     C_R   0.982038 0.001027 0.132754 0.787420
C6    C     C_R   0.017217 0.000441 0.867197 0.760754
O17   O     O_R   0.816120 0.862000 0.281880 -0.541723
O18   O     O_R   0.183880 0.138000 0.718120 -0.547700
C7    C     C_R   0.984850 0.824434 0.292718 0.739635
C8    C     C_R   0.015529 0.175312 0.705243 0.722273
V3    V     V_3+5 0.705540 0.991700 0.246660 1.480639
V4    V     V_3+5 0.294460 0.008300 0.753340 1.462932
O19   O     O_3   0.982150 0.044700 0.268010 -0.385509
O20   O     O_3   0.017850 0.955300 0.731990 -0.376458
C9    C     C_R   0.992553 0.722554 0.319177 -0.100324
C10   C     C_R   0.006701 0.276779 0.676721 -0.086009
C11   C     C_R   0.947805 0.566208 0.306114 0.403733
C12   C     C_R   0.946514 0.432721 0.687958 0.422750
C13   C     C_R   0.951817 0.663576 0.279747 -0.236298
C14   C     C_R   0.959143 0.335506 0.715202 -0.270513
C15   C     C_R   0.023993 0.684970 0.385679 -0.212341
C16   C     C_R   0.030146 0.313712 0.609680 -0.189837
C17   C     C_R   0.005604 0.587656 0.415008 0.033561
C18   C     C_R   0.006166 0.410564 0.579842 0.024554
C19   C     C_R   0.975763 0.527736 0.373905 0.053026
C20   C     C_R   0.975493 0.470431 0.620574 0.060418
C21   C     C_R   0.005483 0.548781 0.484017 0.088035
C22   C     C_R   0.004982 0.449412 0.510839 0.085385
C23   C     C_R   0.986905 0.392102 0.468065 -0.184568
C24   C     C_R   0.990366 0.606054 0.526891 -0.192014
C25   C     C_R   0.965778 0.430648 0.401444 -0.159812
C26   C     C_R   0.969921 0.567443 0.593376 -0.144960
H1    H     H_    0.940374 0.383205 0.371623 0.155622
H2    H     H_    0.950391 0.614588 0.623687 0.167989
H3    H     H_    0.066975 0.265287 0.582042 0.124073
H4    H     H_    0.058801 0.733839 0.413424 0.144057
H5    H     H_    0.929077 0.305762 0.766235 0.127099
H6    H     H_    0.917673 0.693245 0.228702 0.143926
H7    H     H_    0.974588 0.316818 0.485160 0.138117
H8    H     H_    0.980463 0.681354 0.510265 0.133575
C27   C     C_3   0.852828 0.946149 0.987652 -0.368105
C28   C     C_3   0.140040 0.057053 0.012607 -0.314468
C29   C     C_3   0.014978 0.914833 0.038327 0.370739
C30   C     C_3   0.977230 0.088689 0.961714 0.396326
H9    H     H_    0.736780 0.901038 0.977046 0.172129
H10   H     H_    0.254163 0.102895 0.023512 0.176893
C31   C     C_3   0.989209 0.002934 0.062188 -0.142790
C32   C     C_3   0.006269 0.000251 0.937739 -0.175844
C33   C     C_3   0.829413 0.035265 0.011690 0.274000
C34   C     C_3   0.164537 0.967940 0.989302 0.272180
C35   C     C_3   0.681036 0.993938 0.479632 -0.226087
C36   C     C_3   0.318766 0.005992 0.520374 -0.225623
C37   C     C_3   0.600239 0.071335 0.507439 0.412979
C38   C     C_3   0.399549 0.928592 0.492560 0.413131
H11   H     H_    0.830060 0.991021 0.462980 0.140823
H12   H     H_    0.169750 0.008930 0.537028 0.141636
C39   C     C_3   0.501642 0.998267 0.562754 -0.076783
C40   C     C_3   0.498195 0.001671 0.437252 -0.074620
C41   C     C_3   0.579944 0.919096 0.535520 -0.245777
C42   C     C_3   0.419848 0.080829 0.464483 -0.251993
H13   H     H_    0.641602 0.851826 0.564664 0.135824
H14   H     H_    0.358134 0.148094 0.435356 0.140816
C43   C     C_R   0.495322 0.278030 0.181968 -0.168542
C44   C     C_R   0.498823 0.722943 0.821870 -0.174675
C45   C     C_R   0.460638 0.434031 0.195687 -0.138880
C46   C     C_R   0.418778 0.568266 0.813485 -0.173599
C47   C     C_R   0.467076 0.337056 0.223199 0.299596
C48   C     C_R   0.443834 0.663394 0.783374 0.346286
C49   C     C_R   0.509335 0.317114 0.114683 -0.177914
C50   C     C_R   0.526503 0.686066 0.889029 -0.191131
C51   C     C_R   0.479804 0.413920 0.086109 0.078382
C52   C     C_R   0.478833 0.591724 0.921246 0.088049
C53   C     C_R   0.470717 0.472643 0.127968 -0.020009
C54   C     C_R   0.433272 0.532401 0.881315 -0.002294
C55   C     C_R   0.458863 0.453828 0.017562 -0.024928
C56   C     C_R   0.476941 0.553601 0.990879 -0.033292
C57   C     C_R   0.479552 0.610817 0.035003 0.335336
C58   C     C_R   0.402999 0.398034 0.975893 0.354104
C59   C     C_R   0.472249 0.569315 0.102367 -0.287384
C60   C     C_R   0.397898 0.437516 0.908668 -0.295203
H15   H     H_    0.467302 0.613439 0.135342 0.122193
H16   H     H_    0.355592 0.394412 0.877310 0.124857
H17   H     H_    0.589622 0.733106 0.913832 0.182318
H18   H     H_    0.544155 0.270381 0.085502 0.181952
H19   H     H_    0.449167 0.479425 0.227621 0.156457
H20   H     H_    0.390372 0.521484 0.783323 0.138371
O21   O     O_3   0.418783 0.693681 0.716651 -0.646271
H21   H     H_    0.452107 0.761024 0.700545 0.265572
O22   O     O_3   0.450583 0.304158 0.290061 -0.655279
H22   H     H_    0.469102 0.235448 0.303948 0.262026
O23   O     O_3   0.471272 0.707147 0.012559 -0.676046
H23   H     H_    0.497439 0.735708 0.048727 0.271280
O24   O     O_3   0.330384 0.308594 0.001715 -0.659522
H24   H     H_    0.279767 0.283241 0.966489 0.299221
O25   O     O_3   0.868938 0.512382 0.268962 -0.572513
C61   C     C_3   0.012196 0.473059 0.238582 0.028576
H25   H     H_    0.115638 0.431784 0.274773 0.149167
H26   H     H_    0.088745 0.528995 0.201606 0.124347
C62   C     C_3   0.908875 0.407924 0.205056 -0.304788
H27   H     H_    0.816670 0.361005 0.241959 0.231624
H28   H     H_    0.824334 0.452058 0.164476 0.219045
C63   C     C_3   0.031963 0.345083 0.177237 -0.779334
H29   H     H_    0.127504 0.387825 0.139688 0.246944
H30   H     H_    0.939108 0.303056 0.153339 0.230474
H31   H     H_    0.109922 0.295337 0.217047 0.251366
O26   O     O_3   0.868472 0.488880 0.723325 -0.572132
C64   C     C_3   0.983334 0.491183 0.777483 0.042003
H32   H     H_    0.076645 0.553974 0.762705 0.157385
H33   H     H_    0.073247 0.427821 0.796529 0.111618
C65   C     C_3   0.851723 0.502897 0.831068 -0.283371
H34   H     H_    0.795493 0.575354 0.816467 0.213383
H35   H     H_    0.732675 0.451788 0.835788 0.208451
C66   C     C_3   0.947914 0.487043 0.897190 -0.823670
H36   H     H_    0.013187 0.416482 0.912395 0.246873
H37   H     H_    0.839819 0.490683 0.934077 0.232929
H38   H     H_    0.055600 0.542725 0.895556 0.247419
O27   O     O_3   0.026185 0.826920 0.085121 -0.586187
C67   C     C_3   0.084950 0.755783 0.057268 0.056153
H39   H     H_    0.190866 0.713277 0.091262 0.157881
H40   H     H_    0.151858 0.781922 0.008545 0.184571
C68   C     C_3   0.917726 0.692173 0.051642 -0.327847
H41   H     H_    0.837131 0.672528 0.098101 0.214512
H42   H     H_    0.823630 0.731237 0.011731 0.209075
C69   C     C_3   0.985431 0.603174 0.035838 -0.789323
H43   H     H_    0.065817 0.621289 0.989393 0.243359
H44   H     H_    0.861559 0.558683 0.030951 0.229208
H45   H     H_    0.077463 0.561748 0.075611 0.235299
O28   O     O_3   0.979209 0.180010 0.918310 -0.586666
C70   C     C_3   0.795124 0.219442 0.906976 0.008981
H46   H     H_    0.815365 0.294604 0.881469 0.153464
H47   H     H_    0.720885 0.218743 0.952808 0.174793
C71   C     C_3   0.674304 0.175366 0.862515 -0.303172
H48   H     H_    0.757248 0.175822 0.818576 0.207307
H49   H     H_    0.638113 0.101502 0.887523 0.205688
C72   C     C_3   0.489379 0.228734 0.841453 -0.786090
H50   H     H_    0.399021 0.224834 0.884487 0.232355
H51   H     H_    0.408914 0.196683 0.807962 0.255169
H52   H     H_    0.520442 0.303128 0.815525 0.216131
O29   O     O_3   0.656612 0.068680 0.028570 -0.649234
H53   H     H_    0.564503 0.063546 0.994494 0.300744
O30   O     O_3   0.339962 0.932165 0.976999 -0.648358
H54   H     H_    0.402613 0.909729 0.020155 0.293255
O31   O     O_3   0.706578 0.147081 0.516483 -0.649963
H55   H     H_    0.752206 0.181448 0.472550 0.276983
O32   O     O_3   0.293241 0.852868 0.483435 -0.653794
H56   H     H_    0.246428 0.818711 0.527258 0.281553

loop_
_geom_bond_atom_site_label_1
_geom_bond_atom_site_label_2
_ccdc_geom_bond_type
C32   C34   S    
C55   C56   A    
O11   V3    S    
C36   C42   S    
O13   V3    S    
C35   C41   S    
O32   H56   S    
O4    C2    A    
C66   H38   S    
V1    O19   S    
C65   H34   S    
O31   H55   S    
C54   C60   A    
O27   C67   S    
C23   C25   A    
C21   C22   A    
C7    C9    S    
O9    V1    S    
C9    C15   A    
C45   H19   S    
C30   C33   S    
C10   C16   A    
O16   C6    A    
C70   H47   S    
C40   C42   S    
O25   C61   S    
O3    C1    A    
C62   H28   S    
C27   C32   S    
C68   C69   S    
C42   H14   S    
C15   H4    S    
O12   V4    S    
C3    C43   S    
C35   C40   S    
C28   C30   S    
C18   C22   A    
C35   C37   S    
O7    C3    A    
C27   C33   S    
O5    C7    A    
C13   H6    S    
O7    V1    S    
O29   H53   S    
O6    C8    A    
C14   H5    S    
C70   H46   S    
O8    V2    S    
C25   H1    S    
C71   C72   S    
C58   C60   A    
C36   H12   S    
C64   C65   S    
C26   H2    S    
O22   H22   S    
O3    V1    S    
O14   V4    S    
C51   C53   A    
C34   O30   S    
C11   C19   A    
C63   H31   S    
C6    C32   S    
C16   C18   A    
C8    C10   S    
C2    O12   A    
C17   C19   A    
C69   H45   S    
C18   C20   A    
C67   C68   S    
C59   H15   S    
C63   H30   S    
C52   C56   A    
C41   H13   S    
O17   V3    S    
C58   O24   S    
C27   C29   S    
C69   H43   S    
C30   C32   S    
V4    O20   S    
C70   C71   S    
C67   H40   S    
O8    C4    A    
C62   C63   S    
C19   C25   A    
C1    O11   A    
C31   C33   S    
C44   C48   A    
O15   V3    S    
C2    C39   S    
C9    C13   A    
C38   C41   S    
C23   H7    S    
C49   H18   S    
C52   C54   A    
O30   H54   S    
O10   V2    S    
O1    V3    S    
C38   C40   S    
C33   O29   S    
C53   C59   A    
C72   H52   S    
C35   H11   S    
C24   C26   A    
C39   C41   S    
C28   C34   S    
C43   C49   A    
C45   C47   A    
C50   C52   A    
C28   C31   S    
O18   V4    S    
C55   C58   A    
C60   H16   S    
O15   C5    A    
C57   O23   S    
C64   H32   S    
C46   H20   S    
C71   H49   S    
C12   C20   A    
C48   O21   S    
C72   H51   S    
C4    C44   S    
C12   O26   S    
C66   H36   S    
C65   C66   S    
C69   H44   S    
C45   C53   A    
C63   H29   S    
C29   O27   S    
C47   O22   S    
O28   C70   S    
V2    O20   S    
C21   C24   A    
C20   C26   A    
C22   C23   A    
C37   O31   S    
O24   H24   S    
C11   C13   A    
C10   C14   A    
C27   H9    S    
C50   H17   S    
C46   C48   A    
C67   H39   S    
C66   H37   S    
C65   H35   S    
C61   H26   S    
C68   H41   S    
C57   C59   A    
C24   H8    S    
C1    C40   S    
O5    V1    S    
O17   C7    A    
O6    V2    S    
O21   H21   S    
O10   C6    A    
O18   C8    A    
C28   H10   S    
O2    V4    S    
C5    C31   S    
C12   C14   A    
V3    O19   S    
O16   V4    S    
C62   H27   S    
C37   C39   S    
C68   H42   S    
C29   C34   S    
C44   C50   A    
O9    C5    A    
O13   V1    S    
C38   O32   S    
C11   O25   S    
O14   V2    S    
C61   H25   S    
C51   C55   A    
C56   C57   A    
O2    C4    A    
C61   C62   S    
O4    V2    S    
C29   C31   S    
O1    C3    A    
C15   C17   A    
C16   H3    S    
C30   O28   S    
C36   C39   S    
C64   H33   S    
C49   C51   A    
C17   C21   A    
C71   H48   S    
C36   C38   S    
C46   C54   A    
C72   H50   S    
O23   H23   S    
C37   C42   S    
C43   C47   A    
O26   C64   S    
