data_mof_unit_57725.cif
_audit_creation_date              2012-10-26T19:04:23-0400
_audit_creation_method            fapswitch 2.2
_symmetry_space_group_name_H-M    P1
_symmetry_Int_Tables_number       1
_space_group_crystal_system       triclinic
_cell_length_a                    14.876411
_cell_length_b                    15.809185
_cell_length_c                    9.661225
_cell_angle_alpha                 90.969584
_cell_angle_beta                  91.149871
_cell_angle_gamma                 89.456049
_cell_volume                      2271.28683983

loop_
_atom_site_label
_atom_site_type_symbol
_atom_type_description
_atom_site_fract_x
_atom_site_fract_y
_atom_site_fract_z
_atom_type_partial_charge
C1    C     C_R   0.382281 0.879740 0.499869 0.528049
C2    C     C_R   0.687767 0.242991 0.387915 -0.167881
C3    C     C_R   0.246728 0.307316 0.411493 -0.159945
C4    C     C_R   0.187771 0.742987 0.387912 -0.167880
C5    C     C_R   0.674786 0.804381 0.501380 -0.003413
C6    C     C_R   0.665732 0.203049 0.510423 -0.021593
C7    C     C_R   0.174794 0.304388 0.501382 -0.003390
C8    C     C_R   0.165735 0.703047 0.510422 -0.021593
C9    C     C_R   0.659707 0.967640 0.149660 -0.131258
C10   C     C_R   0.159707 0.467635 0.149657 -0.131252
C11   C     C_R   0.731030 0.926662 0.088114 -0.195532
C12   C     C_R   0.378208 0.115372 0.499600 0.534629
C13   C     C_R   0.231025 0.426648 0.088109 -0.195527
C14   C     C_R   0.729212 0.911129 0.947357 0.135535
C15   C     C_R   0.229200 0.411111 0.947352 0.135534
C16   C     C_R   0.664485 0.955454 0.866177 0.207553
C17   C     C_R   0.164479 0.455445 0.866175 0.207568
C18   C     C_R   0.579484 0.978744 0.928166 0.116163
C19   C     C_R   0.079482 0.478740 0.928166 0.116150
C20   C     C_R   0.578473 0.981532 0.077188 0.119389
C21   C     C_R   0.078472 0.481529 0.077188 0.119387
C22   C     C_R   0.424880 0.017213 0.071657 -0.014153
C23   C     C_R   0.882280 0.379741 0.499869 0.528047
C24   C     C_R   0.924880 0.517216 0.071658 -0.014153
C25   C     C_R   0.610450 0.125425 0.502491 0.540523
C26   C     C_R   0.613349 0.876914 0.500275 0.536088
C27   C     C_R   0.110451 0.625424 0.502491 0.540532
C28   C     C_R   0.113353 0.376917 0.500275 0.536100
C29   C     C_R   0.425068 0.017902 0.924413 -0.021996
C30   C     C_R   0.925068 0.517905 0.924413 -0.021994
C31   C     C_R   0.218804 0.096422 0.668141 -0.156827
C32   C     C_R   0.338149 0.784764 0.755880 -0.135266
C33   C     C_R   0.718813 0.596430 0.668176 -0.156823
C34   C     C_R   0.878205 0.615369 0.499600 0.534631
C35   C     C_R   0.838138 0.284775 0.755889 -0.135278
C36   C     C_R   0.151454 0.094167 0.765443 -0.102435
C37   C     C_R   0.303107 0.764975 0.882501 -0.100035
C38   C     C_R   0.651476 0.594186 0.765500 -0.102433
C39   C     C_R   0.803094 0.264987 0.882508 -0.100039
C40   C     C_R   0.591562 0.661998 0.779499 0.142988
C41   C     C_R   0.716698 0.232611 0.890143 0.138327
C42   C     C_R   0.091537 0.161976 0.779441 0.142976
C43   C     C_R   0.216709 0.732603 0.890140 0.138328
C44   C     C_R   0.597047 0.730502 0.689786 -0.106332
C45   C     C_R   0.311097 0.244215 0.409784 -0.154943
C46   C     C_R   0.666115 0.220635 0.767425 -0.109889
C47   C     C_R   0.097031 0.230490 0.689746 -0.106330
C48   C     C_R   0.166122 0.720633 0.767424 -0.109893
C49   C     C_R   0.666482 0.735287 0.592569 0.004480
C50   C     C_R   0.704793 0.233349 0.636672 0.000224
C51   C     C_R   0.166479 0.235285 0.592551 0.004494
C52   C     C_R   0.204798 0.733346 0.636669 0.000226
C53   C     C_R   0.230650 0.168688 0.586564 0.013890
C54   C     C_R   0.286406 0.777857 0.631798 0.018947
C55   C     C_R   0.730652 0.668689 0.586580 0.013891
C56   C     C_R   0.259476 0.798664 0.384733 -0.158191
C57   C     C_R   0.786399 0.277863 0.631803 0.018944
C58   C     C_R   0.304692 0.176007 0.498242 0.009252
C59   C     C_R   0.312033 0.814389 0.504202 -0.006331
C60   C     C_R   0.804685 0.676000 0.498241 0.009249
C61   C     C_R   0.812029 0.314392 0.504205 -0.006329
C62   C     C_3   0.808233 0.778930 0.912600 -0.299499
C63   C     C_3   0.308176 0.278888 0.912603 -0.299477
C64   C     C_3   0.772061 0.981245 0.673481 -0.251483
C65   C     C_3   0.272082 0.481259 0.673522 -0.251519
C66   C     C_3   0.459730 0.600919 0.879116 -0.315153
C67   C     C_R   0.811077 0.744197 0.409761 -0.154946
C68   C     C_3   0.745259 0.149719 0.094610 -0.326348
C69   C     C_3   0.959675 0.100902 0.878952 -0.315153
C70   C     C_3   0.245274 0.649713 0.094610 -0.326358
C71   C     C_R   0.759473 0.298666 0.384736 -0.158190
C72   C     C_R   0.746706 0.807296 0.411467 -0.159950
Cu1   Cu    Cu3+1 0.499990 0.000000 0.640660 0.922236
Cu2   Cu    Cu3+1 0.999990 0.500000 0.640660 0.922240
Cu3   Cu    Cu3+1 0.500010 0.000000 0.359340 0.920884
Cu4   Cu    Cu3+1 0.000010 0.500000 0.359340 0.920888
H1    H     H_    0.368007 0.250256 0.342382 0.122813
H2    H     H_    0.907475 0.302223 0.759251 0.141534
H3    H     H_    0.147425 0.040123 0.832342 0.121966
H4    H     H_    0.344697 0.774322 0.974473 0.117238
H5    H     H_    0.647457 0.540149 0.832414 0.121952
H6    H     H_    0.844680 0.274338 0.974483 0.117239
H7    H     H_    0.547341 0.779648 0.699099 0.131136
H8    H     H_    0.597703 0.199402 0.776076 0.140556
H9    H     H_    0.047322 0.279633 0.699053 0.131132
H10   H     H_    0.097710 0.699402 0.776077 0.140548
H11   H     H_    0.755999 0.861732 0.348430 0.112242
H12   H     H_    0.273918 0.829124 0.288171 0.147259
H13   H     H_    0.648466 0.231542 0.294501 0.160489
H14   H     H_    0.256032 0.361763 0.348479 0.112210
H15   H     H_    0.148471 0.731536 0.294497 0.160492
H16   H     H_    0.362900 0.031118 0.124442 0.119842
H17   H     H_    0.862901 0.531123 0.124443 0.119842
H18   H     H_    0.671884 0.990649 0.252755 0.181012
H19   H     H_    0.171887 0.490646 0.252751 0.181007
H20   H     H_    0.791355 0.912040 0.147564 0.109337
H21   H     H_    0.291350 0.412019 0.147554 0.109339
H22   H     H_    0.864581 0.897521 0.912807 0.238357
H23   H     H_    0.867978 0.750232 0.342342 0.122824
H24   H     H_    0.861687 0.749404 0.848781 0.150772
H25   H     H_    0.743315 0.749121 0.883668 0.183392
H26   H     H_    0.823814 0.766952 0.023606 0.134973
H27   H     H_    0.364565 0.397463 0.912795 0.238343
H28   H     H_    0.361607 0.249341 0.848760 0.150793
H29   H     H_    0.243239 0.249096 0.883709 0.183381
H30   H     H_    0.323777 0.266911 0.023610 0.134960
H31   H     H_    0.707669 0.068079 0.797843 0.244042
H32   H     H_    0.768698 0.017204 0.575838 0.127410
H33   H     H_    0.768914 0.913215 0.647171 0.187758
H34   H     H_    0.773916 0.329126 0.288174 0.147257
H35   H     H_    0.837406 0.994622 0.725580 0.110395
H36   H     H_    0.207648 0.568077 0.797857 0.244052
H37   H     H_    0.268750 0.517244 0.575904 0.127397
H38   H     H_    0.268932 0.413236 0.647159 0.187754
H39   H     H_    0.337414 0.494619 0.725675 0.110409
H40   H     H_    0.505802 0.722991 0.916511 0.241078
H41   H     H_    0.413818 0.615556 0.790607 0.146795
H42   H     H_    0.488573 0.536361 0.865394 0.144676
H43   H     H_    0.421061 0.601989 0.975907 0.138243
H44   H     H_    0.618842 0.182415 0.014788 0.247870
H45   H     H_    0.363293 0.032435 0.868707 0.115367
H46   H     H_    0.711556 0.123490 0.184478 0.153688
H47   H     H_    0.804202 0.185180 0.135644 0.150652
H48   H     H_    0.767844 0.096426 0.027510 0.137031
H49   H     H_    0.005772 0.222953 0.916461 0.241077
H50   H     H_    0.988506 0.036341 0.865184 0.144677
H51   H     H_    0.920991 0.101949 0.975726 0.138254
H52   H     H_    0.913782 0.115577 0.790439 0.146806
H53   H     H_    0.118856 0.682406 0.014787 0.247868
H54   H     H_    0.211570 0.623483 0.184476 0.153683
H55   H     H_    0.304213 0.685178 0.135648 0.150648
H56   H     H_    0.863294 0.532441 0.868707 0.115365
H57   H     H_    0.267864 0.596422 0.027510 0.137035
H58   H     H_    0.261483 0.041047 0.658733 0.141176
H59   H     H_    0.407486 0.802211 0.759235 0.141526
H60   H     H_    0.761488 0.541053 0.658765 0.141175
N1    N     N_R   0.501200 0.000000 0.147910 -0.238142
N2    N     N_2   0.683870 0.204609 0.018851 -0.530900
N3    N     N_2   0.029558 0.163573 0.889549 -0.517900
N4    N     N_2   0.183883 0.704601 0.018848 -0.530899
N5    N     N_R   0.001200 0.500000 0.147910 -0.238142
N6    N     N_R   0.501270 0.000000 0.852040 -0.246332
N7    N     N_R   0.001270 0.500000 0.852040 -0.246336
N8    N     N_2   0.804239 0.868834 0.887780 -0.527559
N9    N     N_2   0.304211 0.368793 0.887770 -0.527529
N10   N     N_2   0.698412 0.007652 0.760954 -0.434517
N11   N     N_2   0.198409 0.507648 0.760963 -0.434519
N12   N     N_2   0.529599 0.663610 0.889632 -0.517886
O1    O     O_R   0.409820 0.909830 0.618810 -0.526105
O2    O     O_R   0.590170 0.909830 0.618760 -0.482101
O3    O     O_R   0.090170 0.590170 0.618760 -0.483925
O4    O     O_R   0.090170 0.409830 0.618760 -0.482091
O5    O     O_R   0.590190 0.090180 0.381190 -0.528866
O6    O     O_R   0.590190 0.909820 0.381190 -0.509885
O7    O     O_R   0.090190 0.590180 0.381190 -0.528860
O8    O     O_R   0.090190 0.409820 0.381190 -0.509882
O9    O     O_R   0.409820 0.090170 0.618810 -0.518774
O10   O     O_R   0.909820 0.409830 0.618810 -0.526109
O11   O     O_R   0.909820 0.590170 0.618810 -0.518771
O12   O     O_R   0.409840 0.909830 0.381240 -0.497950
O13   O     O_R   0.409840 0.090170 0.381240 -0.506816
O14   O     O_R   0.909840 0.409830 0.381240 -0.497951
O15   O     O_R   0.909840 0.590170 0.381240 -0.506820
O16   O     O_R   0.590170 0.090170 0.618760 -0.483918

loop_
_geom_bond_atom_site_label_1
_geom_bond_atom_site_label_2
_ccdc_geom_bond_type
Cu3   O12   S    
C44   C49   A    
Cu2   N7    S    
C71   H34   S    
C33   C55   A    
C22   C29   A    
Cu1   O2    S    
Cu1   Cu3   S    
C65   H38   S    
C68   N2    S    
C33   H60   S    
C4    C8    A    
C44   H7    S    
C5    C49   A    
C69   N3    S    
C68   H48   S    
C39   C41   A    
H49   N3    S    
C70   N4    S    
C22   N1    A    
Cu2   Cu4   S    
Cu2   O11   S    
C3    H14   S    
C47   H9    S    
C17   N11   S    
C5    C72   A    
C3    C7    A    
C1    C59   S    
C11   C14   A    
C56   H12   S    
C6    C25   S    
C25   O16   A    
C23   O10   A    
Cu1   O9    S    
C70   H54   S    
C18   C20   A    
C16   N10   S    
C67   C72   A    
C11   H20   S    
C12   O13   A    
C36   C42   A    
C60   C67   A    
C66   H41   S    
C29   H45   S    
C70   H57   S    
C19   N7    A    
C41   C46   A    
C10   C13   A    
C1    O1    A    
C12   O9    A    
C63   H29   S    
C43   C48   A    
C8    C52   A    
C40   C44   A    
C66   N12   S    
C62   H25   S    
C67   H23   S    
Cu1   N6    S    
C23   O14   A    
C12   C58   S    
C34   O11   A    
C61   C71   A    
C55   C60   A    
C4    C56   A    
C34   C60   S    
C65   H39   S    
Cu2   O4    S    
C2    C6    A    
C31   H58   S    
C68   H47   S    
C32   C54   A    
C52   C54   A    
C64   H32   S    
C54   C59   A    
C10   C21   A    
C27   O7    A    
C37   H4    S    
C14   N8    S    
C45   C58   A    
Cu2   O10   S    
C25   O5    A    
C26   O2    A    
C69   H52   S    
C34   O15   A    
Cu3   N1    S    
C68   H46   S    
H40   N12   S    
H31   N10   S    
C40   N12   S    
C64   H35   S    
C47   C51   A    
C49   C55   A    
C3    C45   A    
C6    C50   A    
C7    C28   S    
C51   C53   A    
C20   N1    A    
C37   C43   A    
C2    H13   S    
C35   C39   A    
Cu3   O5    S    
C9    C20   A    
C23   C61   S    
C24   N5    A    
C43   N4    S    
C32   C37   A    
C31   C53   A    
C63   H30   S    
C9    C11   A    
C41   N2    S    
Cu1   O1    S    
C62   H24   S    
C69   H50   S    
C28   O4    A    
C66   H43   S    
C13   C15   A    
C38   H5    S    
C14   C16   A    
Cu2   O3    S    
C26   O6    A    
C65   N11   S    
C2    C71   A    
H22   N8    S    
C72   H11   S    
H27   N9    S    
C15   N9    S    
C15   C17   A    
C18   N6    A    
C27   O3    A    
C35   H2    S    
C64   N10   S    
C42   N3    S    
C50   C57   A    
C65   H37   S    
C1    O12   A    
C39   H6    S    
C62   N8    S    
C63   H28   S    
C36   H3    S    
C32   H59   S    
C53   C58   A    
H36   N11   S    
C57   C61   A    
Cu1   O16   S    
C46   C50   A    
Cu4   O7    S    
C33   C38   A    
C56   C59   A    
Cu3   O13   S    
C35   C57   A    
C4    H15   S    
C21   N5    A    
C24   H17   S    
Cu4   N5    S    
C38   C40   A    
Cu3   O6    S    
C64   H33   S    
H53   N4    S    
C10   H19   S    
C30   H56   S    
C29   N6    A    
C70   H55   S    
C17   C19   A    
Cu4   O8    S    
C46   H8    S    
C48   H10   S    
C42   C47   A    
C13   H21   S    
C24   C30   A    
C30   N7    A    
C7    C51   A    
C5    C26   S    
C48   C52   A    
H44   N2    S    
C69   H51   S    
C16   C18   A    
C66   H42   S    
C28   O8    A    
C8    C27   S    
C22   H16   S    
C31   C36   A    
Cu4   O15   S    
C45   H1    S    
C62   H26   S    
Cu4   O14   S    
C9    H18   S    
C63   N9    S    
C19   C21   A    
