data_mof_unit_62938.cif
_audit_creation_date              2012-12-10T17:06:37-0500
_audit_creation_method            fapswitch 2.2
_symmetry_space_group_name_H-M    P1
_symmetry_Int_Tables_number       1
_space_group_crystal_system       triclinic
_cell_length_a                    14.157177
_cell_length_b                    10.707037
_cell_length_c                    10.021699
_cell_angle_alpha                 89.740034
_cell_angle_beta                  89.99641
_cell_angle_gamma                 90.157456
_cell_volume                      1519.08196755

loop_
_atom_site_label
_atom_site_type_symbol
_atom_type_description
_atom_site_fract_x
_atom_site_fract_y
_atom_site_fract_z
_atom_type_partial_charge
C1    C     C_R   0.491747 0.262804 0.500118 0.891467
C2    C     C_R   0.502555 0.737707 0.499520 0.934587
C3    C     C_R   0.670840 0.499871 0.499986 0.893092
C4    C     C_1   0.227711 0.499439 0.500075 -0.211163
C5    C     C_1   0.142490 0.498998 0.500177 -0.010041
C6    C     C_1   0.042633 0.498814 0.500229 0.005646
C7    C     C_1   0.957406 0.498917 0.500200 0.006429
C8    C     C_1   0.857541 0.499240 0.500110 -0.010050
C9    C     C_3   0.396820 0.087627 0.611743 -0.410363
C10   C     C_3   0.306716 0.166525 0.623475 -0.352343
C11   C     C_3   0.239109 0.112156 0.727331 -0.872520
C12   C     C_1   0.772309 0.499561 0.500031 -0.206921
C13   C     C_2   0.479274 0.932985 0.390069 -0.175618
C14   C     C_2   0.508930 0.870220 0.497172 -0.366917
C15   C     C_2   0.483830 0.067093 0.390812 -0.197569
C16   C     C_2   0.460671 0.134561 0.498773 -0.044258
C17   C     C_2   0.546435 0.580940 0.924560 -0.122459
C18   C     C_2   0.550346 0.576793 0.074648 -0.128871
C19   C     C_R   0.329160 0.500080 0.500017 0.872961
H1    H     H_    0.457262 0.886524 0.298987 0.181780
H2    H     H_    0.175541 0.172270 0.734684 0.255072
H3    H     H_    0.324761 0.263115 0.653768 0.240037
H4    H     H_    0.270173 0.170379 0.525326 0.223369
H5    H     H_    0.373225 0.990090 0.595726 0.233794
H6    H     H_    0.436609 0.090758 0.707294 0.201255
H7    H     H_    0.535281 0.917272 0.585657 0.157950
H8    H     H_    0.517945 0.109491 0.304561 0.164125
H9    H     H_    0.585651 0.654663 0.874548 0.158638
H10   H     H_    0.467567 0.427681 0.898126 0.160990
H11   H     H_    0.596706 0.642872 0.124002 0.159916
H12   H     H_    0.453450 0.442834 0.102455 0.162097
H13   H     H_    0.216409 0.016709 0.698174 0.263577
H14   H     H_    0.273862 0.108157 0.826635 0.261043
N1    N     N_2   0.500930 0.501330 0.852150 -0.183699
N2    N     N_2   0.500950 0.501360 0.147810 -0.185148
O1    O     O_R   0.499990 0.319060 0.613040 -0.613688
O2    O     O_R   0.500010 0.319100 0.386900 -0.619279
O3    O     O_R   0.373700 0.499980 0.613090 -0.600750
O4    O     O_R   0.373730 0.500020 0.386960 -0.590769
O5    O     O_R   0.499990 0.680900 0.613100 -0.610979
O6    O     O_R   0.500010 0.680940 0.386960 -0.604803
O7    O     O_R   0.626270 0.499980 0.613040 -0.588396
O8    O     O_R   0.626300 0.500020 0.386910 -0.588933
Zn1   Zn    Zn3+2 0.499980 0.499970 0.650990 0.932374
Zn2   Zn    Zn3+2 0.500020 0.500030 0.349010 0.935336

loop_
_geom_bond_atom_site_label_1
_geom_bond_atom_site_label_2
_ccdc_geom_bond_type
C9    H5    S    
O3    Zn1   S    
C6    C7    T    
C18   H11   S    
C19   O3    A    
C10   H4    S    
C9    C10   S    
C15   H8    S    
C4    C19   S    
C1    O2    A    
O4    Zn2   S    
C17   C18   S    
C9    H6    S    
C7    C8    S    
C3    O7    A    
C1    C16   S    
C13   C14   D    
C10   H3    S    
O8    Zn2   S    
C3    O8    A    
C17   N1    D    
O7    Zn1   S    
C19   O4    A    
C9    C16   S    
C11   H13   S    
C13   C15   S    
C5    C6    S    
C2    C14   S    
H12   N2    S    
O1    Zn1   S    
C10   C11   S    
C2    O6    A    
O2    Zn2   S    
C15   C16   D    
N2    Zn2   S    
C2    O5    A    
O5    Zn1   S    
N1    Zn1   S    
C18   N2    D    
C11   H14   S    
O6    Zn2   S    
C3    C12   S    
C13   H1    S    
C17   H9    S    
H10   N1    S    
C11   H2    S    
C14   H7    S    
C8    C12   T    
C1    O1    A    
C4    C5    T    
