data_mof_unit_36101.cif
_audit_creation_date              2012-12-10T19:27:31-0500
_audit_creation_method            fapswitch 2.2
_symmetry_space_group_name_H-M    P1
_symmetry_Int_Tables_number       1
_space_group_crystal_system       triclinic
_cell_length_a                    23.399336
_cell_length_b                    10.546142
_cell_length_c                    9.736999
_cell_angle_alpha                 90.504713
_cell_angle_beta                  89.899241
_cell_angle_gamma                 89.448514
_cell_volume                      2402.61712138

loop_
_atom_site_label
_atom_site_type_symbol
_atom_type_description
_atom_site_fract_x
_atom_site_fract_y
_atom_site_fract_z
_atom_type_partial_charge
C1    C     C_R   0.500898 0.257554 0.499300 0.978266
C2    C     C_R   0.499106 0.742447 0.500700 0.978298
C3    C     C_R   0.236927 0.508896 0.380328 -0.098474
C4    C     C_R   0.761067 0.477604 0.629452 -0.121598
C5    C     C_R   0.296282 0.503250 0.377846 -0.213076
C6    C     C_R   0.701927 0.484767 0.627194 -0.202433
C7    C     C_R   0.327069 0.508273 0.501437 -0.028302
C8    C     C_R   0.672933 0.491055 0.501210 -0.028734
C9    C     C_R   0.297871 0.521363 0.626966 -0.208493
C10   C     C_R   0.703911 0.488108 0.377511 -0.214935
C11   C     C_R   0.238682 0.527278 0.628988 -0.123322
C12   C     C_R   0.763258 0.480976 0.380237 -0.104042
C13   C     C_R   0.208301 0.520138 0.505991 0.321919
C14   C     C_R   0.791615 0.476495 0.506258 0.327079
C15   C     C_3   0.538454 0.040345 0.590485 0.487950
C16   C     C_3   0.461557 0.959662 0.409521 0.487512
C17   C     C_3   0.553370 0.954272 0.466151 -0.500974
C18   C     C_3   0.446641 0.045732 0.533856 -0.501277
C19   C     C_3   0.499428 0.877226 0.501989 -0.262701
C20   C     C_3   0.500583 0.122777 0.498015 -0.262563
C21   C     C_3   0.485455 0.963376 0.625794 0.510188
C22   C     C_3   0.514556 0.036629 0.374213 0.510124
C23   C     C_R   0.389354 0.501568 0.500209 0.866089
C24   C     C_R   0.610650 0.498380 0.500009 0.865718
C25   C     C_3   0.479451 0.395411 0.047741 -0.067812
C26   C     C_3   0.520551 0.604588 0.952258 -0.068951
C27   C     C_3   0.530680 0.407313 0.950231 -0.057004
C28   C     C_3   0.469321 0.592687 0.049767 -0.056490
C29   C     C_3   0.448721 0.488128 0.951593 -0.091914
C30   C     C_3   0.551280 0.511871 0.048408 -0.092116
C31   C     C_R   0.877278 0.595061 0.529891 0.521978
C32   C     C_R   0.122564 0.399615 0.500547 0.517861
C33   C     C_R   0.882805 0.370147 0.502949 0.533511
C34   C     C_R   0.117069 0.623647 0.533030 0.537774
C35   C     C_R   0.943162 0.371805 0.510111 -0.065798
C36   C     C_R   0.056827 0.619695 0.546087 -0.065001
C37   C     C_R   0.969889 0.491416 0.529683 -0.124570
C38   C     C_R   0.029961 0.500206 0.530076 -0.127450
C39   C     C_R   0.936568 0.602828 0.546434 -0.152963
C40   C     C_R   0.063286 0.388973 0.515106 -0.153843
C41   C     C_R   0.977566 0.259593 0.502664 0.016901
C42   C     C_R   0.022819 0.728696 0.577790 0.048361
C43   C     C_R   0.037085 0.269328 0.517590 0.552430
C44   C     C_R   0.962893 0.718658 0.581169 0.545716
H1    H     H_    0.556391 0.329244 0.903097 0.153359
H2    H     H_    0.443615 0.670765 0.096894 0.153908
H3    H     H_    0.462209 0.307356 0.093006 0.140124
H4    H     H_    0.537793 0.692643 0.906992 0.140433
H5    H     H_    0.405558 0.477999 0.905937 0.121912
H6    H     H_    0.594445 0.521967 0.094077 0.122437
H7    H     H_    0.213103 0.502460 0.285319 0.133219
H8    H     H_    0.783371 0.475169 0.726781 0.124329
H9    H     H_    0.317910 0.493604 0.279818 0.157778
H10   H     H_    0.679071 0.486234 0.724036 0.159895
H11   H     H_    0.320612 0.526266 0.723611 0.155714
H12   H     H_    0.682446 0.492304 0.279189 0.152985
H13   H     H_    0.216235 0.534896 0.726127 0.128152
H14   H     H_    0.787271 0.481225 0.285073 0.129562
H15   H     H_    0.595693 0.912097 0.439984 0.177671
H16   H     H_    0.404318 0.087907 0.560022 0.177408
N1    N     N_R   0.852301 0.480544 0.510438 -0.363357
N2    N     N_R   0.147599 0.514941 0.510481 -0.362941
N3    N     N_3   0.499960 0.500030 0.863290 -0.077300
N4    N     N_3   0.500040 0.499970 0.136710 -0.077252
O1    O     O_R   0.500000 0.313960 0.616610 -0.608648
O2    O     O_R   0.500000 0.686040 0.383390 -0.608657
O3    O     O_R   0.500030 0.313950 0.383350 -0.591549
O4    O     O_R   0.499970 0.686050 0.616650 -0.591545
O5    O     O_R   0.416140 0.499970 0.616650 -0.630486
O6    O     O_R   0.583860 0.500030 0.383350 -0.628846
O7    O     O_R   0.416170 0.499960 0.383400 -0.624050
O8    O     O_R   0.583830 0.500040 0.616600 -0.625870
O9    O     O_2   0.844290 0.700844 0.531519 -0.500954
O10   O     O_2   0.155350 0.295999 0.474693 -0.502301
O11   O     O_2   0.854071 0.260581 0.489955 -0.560637
O12   O     O_2   0.145561 0.733953 0.540162 -0.560073
Zn1   Zn    Zn3+2 0.499980 0.500010 0.655740 0.969104
Zn2   Zn    Zn3+2 0.500020 0.499990 0.344260 0.970187
C45   C     C_3   0.952762 0.129095 0.478277 -0.666222
H17   H     H_    0.927163 0.128559 0.382433 0.254491
H18   H     H_    0.985917 0.054805 0.462356 0.249495
H19   H     H_    0.926312 0.100991 0.567541 0.271427
C46   C     C_3   0.049109 0.855204 0.612900 -0.744326
H20   H     H_    0.079468 0.844027 0.699545 0.238876
H21   H     H_    0.070777 0.894092 0.521194 0.296878
H22   H     H_    0.017495 0.927390 0.646905 0.244046
O13   O     O_3   0.069600 0.160810 0.538200 -0.573500
C47   C     C_3   0.081531 0.152123 0.680190 -0.264875
H23   H     H_    0.041736 0.135677 0.739913 0.137886
H24   H     H_    0.103468 0.237696 0.720933 0.161810
H25   H     H_    0.110993 0.070826 0.696820 0.209623
O14   O     O_3   0.929990 0.824299 0.615171 -0.571843
C48   C     C_3   0.918064 0.821360 0.757361 -0.268891
H26   H     H_    0.957928 0.822588 0.819558 0.136791
H27   H     H_    0.892118 0.737338 0.784614 0.170310
H28   H     H_    0.892801 0.907360 0.785200 0.199320
O15   O     O_3   0.576887 0.095027 0.684944 -0.600788
C49   C     C_3   0.610137 0.998559 0.745310 -0.300555
H29   H     H_    0.638842 0.952480 0.668266 0.178904
H30   H     H_    0.583170 0.926565 0.796401 0.176351
H31   H     H_    0.637507 0.041964 0.825486 0.186675
O16   O     O_3   0.423121 0.905004 0.315055 -0.600662
C50   C     C_3   0.389892 0.001497 0.254665 -0.299067
H32   H     H_    0.416875 0.073455 0.203564 0.175909
H33   H     H_    0.361194 0.047621 0.331695 0.178878
H34   H     H_    0.362516 0.958110 0.174492 0.187286
O17   O     O_3   0.471790 0.913744 0.755806 -0.596809
C51   C     C_3   0.452873 0.012835 0.843052 -0.317555
H35   H     H_    0.411125 0.051832 0.808130 0.171400
H36   H     H_    0.484940 0.089701 0.851579 0.191786
H37   H     H_    0.446329 0.974012 0.947312 0.185486
O18   O     O_3   0.528224 0.086259 0.244201 -0.596608
C52   C     C_3   0.547130 0.987162 0.156948 -0.317182
H38   H     H_    0.515055 0.910313 0.148419 0.191591
H39   H     H_    0.588873 0.948141 0.191864 0.171620
H40   H     H_    0.553675 0.025987 0.052688 0.185497

loop_
_geom_bond_atom_site_label_1
_geom_bond_atom_site_label_2
_ccdc_geom_bond_type
O13   C47   S    
C29   N3    S    
C48   H26   S    
C8    C24   S    
C30   N4    S    
O6    Zn2   S    
C18   C21   S    
C23   O5    A    
C36   C42   A    
C33   N1    A    
O15   C49   S    
C24   O6    A    
C29   H5    S    
C28   H2    S    
O8    Zn1   S    
C4    H8    S    
C5    H9    S    
C28   C29   S    
C35   C37   A    
C6    H10   S    
C2    O4    A    
C32   O10   S    
C33   C35   A    
C31   O9    S    
C34   N2    A    
C51   H35   S    
C7    C9    A    
C31   N1    A    
C17   C19   S    
O5    Zn1   S    
C33   O11   S    
C40   C43   A    
C13   N2    S    
C31   C39   A    
C1    O1    A    
O17   C51   S    
C9    H11   S    
C10   H12   S    
C25   H3    S    
C18   C20   S    
C3    C13   A    
C26   H4    S    
C52   H40   S    
C12   H14   S    
C27   H1    S    
C30   H6    S    
C48   H27   S    
C27   C30   S    
C41   C43   A    
O3    Zn2   S    
C42   C44   A    
C15   O15   S    
O18   C52   S    
C25   C29   S    
C15   C20   S    
O2    Zn2   S    
O1    Zn1   S    
C23   O7    A    
C4    C6    A    
C5    C7    A    
C3    H7    S    
C6    C8    A    
C3    C5    A    
C14   N1    S    
C25   N4    S    
C26   N3    S    
C37   C38   A    
C46   H20   S    
C47   H25   S    
C50   H33   S    
C9    C11   A    
C21   O17   S    
C10   C12   A    
C17   H15   S    
C28   N4    S    
C16   O16   S    
C46   H21   S    
C20   C22   S    
C26   C30   S    
C48   H28   S    
C49   H30   S    
C24   O8    A    
C45   H18   S    
C52   H38   S    
N3    Zn1   S    
C18   H16   S    
O4    Zn1   S    
C15   C17   S    
C1    C20   S    
C16   C22   S    
C19   C21   S    
C2    C19   S    
N4    Zn2   S    
C8    C10   A    
C42   C46   S    
C12   C14   A    
C2    O2    A    
C44   O14   S    
C41   C45   S    
C45   H19   S    
C39   C44   A    
C25   C27   S    
C49   H31   S    
C26   C28   S    
C17   C22   S    
C51   H37   S    
C43   O13   S    
C36   C38   A    
C47   H24   S    
C32   N2    A    
C37   C39   A    
C38   C40   A    
C11   C13   A    
C16   C19   S    
C7    C23   S    
O14   C48   S    
C1    O3    A    
C51   H36   S    
C50   H34   S    
C34   C36   A    
C32   C40   A    
C4    C14   A    
O16   C50   S    
C35   C41   A    
C45   H17   S    
C15   C21   S    
C46   H22   S    
C47   H23   S    
C16   C18   S    
C49   H29   S    
C50   H32   S    
C27   N3    S    
C11   H13   S    
O7    Zn2   S    
C22   O18   S    
C34   O12   S    
C52   H39   S    
