data_mof_unit_36304.cif
_audit_creation_date              2012-12-10T17:46:16-0500
_audit_creation_method            fapswitch 2.2
_symmetry_space_group_name_H-M    P1
_symmetry_Int_Tables_number       1
_space_group_crystal_system       triclinic
_cell_length_a                    14.148422
_cell_length_b                    10.690963
_cell_length_c                    9.91775
_cell_angle_alpha                 89.830492
_cell_angle_beta                  90.141274
_cell_angle_gamma                 92.844996
_cell_volume                      1498.30181018

loop_
_atom_site_label
_atom_site_type_symbol
_atom_type_description
_atom_site_fract_x
_atom_site_fract_y
_atom_site_fract_z
_atom_type_partial_charge
C1    C     C_R   0.498833 0.260487 0.500256 0.835364
C2    C     C_1   0.772001 0.494136 0.500199 -0.194503
C3    C     C_R   0.667138 0.154651 0.600409 -0.170296
C4    C     C_R   0.750181 0.104201 0.643761 -0.197439
C5    C     C_R   0.759891 0.976520 0.636011 -0.096790
C6    C     C_R   0.686196 0.897252 0.587282 0.071387
C7    C     C_R   0.597710 0.946159 0.547254 0.042600
C8    C     C_R   0.590559 0.077384 0.551149 0.090657
C9    C     C_R   0.507855 0.129319 0.501035 -0.072344
C10   C     C_R   0.433438 0.056861 0.446666 -0.222866
C11   C     C_R   0.437587 0.929411 0.446721 -0.171043
C12   C     C_R   0.329250 0.499370 0.499885 0.881224
C13   C     C_R   0.517016 0.873542 0.498428 -0.102295
C14   C     C_R   0.375330 0.333633 0.140189 -0.159594
C15   C     C_R   0.313746 0.250612 0.070664 0.126227
C16   C     C_R   0.314387 0.250808 0.930212 -0.227295
C17   C     C_R   0.375571 0.333320 0.860144 -0.176978
C18   C     C_R   0.438729 0.417805 0.927790 0.169516
C19   C     C_R   0.438675 0.417903 0.072288 0.129998
C20   C     C_R   0.558776 0.578651 0.071455 -0.097387
C21   C     C_R   0.558744 0.578629 0.928392 -0.105032
C22   C     C_R   0.508908 0.739833 0.499869 0.854605
C23   C     C_R   0.670541 0.496145 0.500022 0.852354
C24   C     C_1   0.227711 0.497742 0.499632 -0.212348
C25   C     C_1   0.142394 0.496200 0.499663 -0.014556
C26   C     C_1   0.042434 0.494605 0.499882 0.003672
C27   C     C_1   0.957135 0.493714 0.500092 0.002026
C28   C     C_1   0.857229 0.493464 0.500236 -0.003768
H1    H     H_    0.371035 0.099235 0.406940 0.149943
H2    H     H_    0.267128 0.187127 0.874299 0.147068
H3    H     H_    0.371117 0.328136 0.753095 0.205701
H4    H     H_    0.606666 0.642965 0.874731 0.137827
H5    H     H_    0.664654 0.255083 0.604456 0.157229
H6    H     H_    0.808097 0.164799 0.680678 0.151228
H7    H     H_    0.826262 0.938446 0.666375 0.148436
H8    H     H_    0.377451 0.873501 0.408004 0.153317
H9    H     H_    0.606725 0.642967 0.125110 0.144212
H10   H     H_    0.371174 0.329362 0.247262 0.199708
N1    N     N_R   0.499190 0.498800 0.142780 -0.109933
N2    N     N_R   0.499160 0.498720 0.857170 -0.110403
O1    O     O_R   0.500000 0.316780 0.614690 -0.632962
O2    O     O_R   0.499990 0.316750 0.385360 -0.618802
O3    O     O_R   0.373720 0.500010 0.614690 -0.606794
O4    O     O_R   0.373710 0.499990 0.385360 -0.613736
O5    O     O_R   0.500010 0.683250 0.614640 -0.607276
O6    O     O_R   0.500000 0.683220 0.385310 -0.603100
O7    O     O_R   0.626290 0.500010 0.614640 -0.611991
O8    O     O_R   0.626280 0.499990 0.385310 -0.590772
Zn1   Zn    Zn3+2 0.500010 0.500020 0.653130 0.926733
Zn2   Zn    Zn3+2 0.499990 0.499980 0.346870 0.936371
N3    N     N_3   0.707457 0.769653 0.573514 -0.476206
H11   H     H_    0.668834 0.718740 0.645914 0.214464
H12   H     H_    0.691677 0.741373 0.475020 0.175712
N4    N     N_3   0.251452 0.165914 0.145036 -0.467808
H13   H     H_    0.203614 0.219642 0.196769 0.178965
H14   H     H_    0.211441 0.108238 0.079151 0.187776

loop_
_geom_bond_atom_site_label_1
_geom_bond_atom_site_label_2
_ccdc_geom_bond_type
C8    C9    A    
C1    O1    A    
C2    C28   T    
C6    C7    A    
C6    N3    S    
C14   H10   S    
C9    C10   A    
O6    Zn2   S    
O5    Zn1   S    
C22   O5    A    
O8    Zn2   S    
C17   C18   A    
C7    C8    A    
C12   O4    A    
C24   C25   T    
C20   H9    S    
C11   C13   A    
C10   H1    S    
N2    Zn1   S    
C26   C27   T    
C21   N2    A    
C19   N1    A    
O2    Zn2   S    
C5    H7    S    
O1    Zn1   S    
C11   H8    S    
C22   O6    A    
C13   C22   S    
C3    C8    A    
C12   O3    A    
C4    H6    S    
C5    C6    A    
C17   H3    S    
C21   H4    S    
N4    H14   S    
C23   O7    A    
C10   C11   A    
C3    H5    S    
C16   H2    S    
N3    H11   S    
C15   N4    S    
C1    O2    A    
C7    C13   A    
N1    Zn2   S    
C1    C9    S    
C20   C21   A    
O7    Zn1   S    
C18   C19   A    
O4    Zn2   S    
C2    C23   S    
C20   N1    A    
C12   C24   S    
N4    H13   S    
C4    C5    A    
C18   N2    A    
C23   O8    A    
N3    H12   S    
C25   C26   S    
C14   C15   A    
C14   C19   A    
O3    Zn1   S    
C3    C4    A    
C15   C16   A    
C16   C17   A    
C27   C28   S    
