data_mof_unit_16674.cif
_audit_creation_date              2012-12-11T16:12:44-0500
_audit_creation_method            fapswitch 2.2
_symmetry_space_group_name_H-M    P1
_symmetry_Int_Tables_number       1
_space_group_crystal_system       monoclinic
_cell_length_a                    6.946987
_cell_length_b                    21.318662
_cell_length_c                    23.582858
_cell_angle_alpha                 90.0
_cell_angle_beta                  89.999964
_cell_angle_gamma                 90.0
_cell_volume                      3492.63230119

loop_
_atom_site_label
_atom_site_type_symbol
_atom_type_description
_atom_site_fract_x
_atom_site_fract_y
_atom_site_fract_z
_atom_type_partial_charge
O1    O     O_R   0.615270 0.806540 0.192260 -0.534983
O2    O     O_R   0.384730 0.193460 0.807740 -0.534983
O3    O     O_R   0.384730 0.193460 0.692260 -0.534983
O4    O     O_R   0.615270 0.806540 0.307740 -0.534983
O5    O     O_R   0.115270 0.693460 0.307740 -0.534983
O6    O     O_R   0.884730 0.306540 0.692260 -0.534983
O7    O     O_R   0.884730 0.306540 0.807740 -0.534983
O8    O     O_R   0.115270 0.693460 0.192260 -0.534983
O9    O     O_R   0.285500 0.813970 0.307340 -0.536451
O10   O     O_R   0.714500 0.186030 0.692660 -0.536451
O11   O     O_R   0.714500 0.186030 0.807340 -0.536451
O12   O     O_R   0.285500 0.813970 0.192660 -0.536451
O13   O     O_R   0.785500 0.686030 0.192660 -0.536451
O14   O     O_R   0.214500 0.313970 0.807340 -0.536451
O15   O     O_R   0.214500 0.313970 0.692660 -0.536451
O16   O     O_R   0.785500 0.686030 0.307340 -0.536451
C1    C     C_R   0.454271 0.829157 0.326785 0.723956
C2    C     C_R   0.545729 0.170843 0.673215 0.723956
C3    C     C_R   0.545729 0.170843 0.826785 0.723956
C4    C     C_R   0.454271 0.829157 0.173215 0.723956
C5    C     C_R   0.954271 0.670843 0.173215 0.723956
C6    C     C_R   0.045729 0.329157 0.826785 0.723956
C7    C     C_R   0.045729 0.329157 0.673215 0.723956
C8    C     C_R   0.954271 0.670843 0.326785 0.723955
O17   O     O_3   0.448760 0.710460 0.250000 -0.368629
O18   O     O_3   0.551240 0.289540 0.750000 -0.368628
O19   O     O_3   0.948760 0.789540 0.250000 -0.368629
O20   O     O_3   0.051240 0.210460 0.750000 -0.368628
V1    V     V_3+5 0.173900 0.757330 0.250000 1.441803
V2    V     V_3+5 0.826100 0.242670 0.750000 1.441804
V3    V     V_3+5 0.673900 0.742670 0.250000 1.441803
V4    V     V_3+5 0.326100 0.257330 0.750000 1.441804
C9    C     C_3   0.040209 0.531078 0.548786 -0.280943
C10   C     C_3   0.959790 0.468922 0.451213 -0.280943
C11   C     C_3   0.959789 0.468922 0.048786 -0.280943
C12   C     C_3   0.040211 0.531078 0.951214 -0.280944
C13   C     C_3   0.540211 0.968922 0.951214 -0.280943
C14   C     C_3   0.459789 0.031078 0.048786 -0.280943
C15   C     C_3   0.459791 0.031078 0.451213 -0.280944
C16   C     C_3   0.540209 0.968922 0.548786 -0.280944
C17   C     C_3   0.860912 0.540147 0.510920 0.566342
C18   C     C_3   0.139088 0.459853 0.489080 0.566342
C19   C     C_3   0.139087 0.459853 0.010920 0.566342
C20   C     C_3   0.860913 0.540147 0.989080 0.566342
C21   C     C_3   0.360914 0.959853 0.989080 0.566342
C22   C     C_3   0.639086 0.040147 0.010920 0.566342
C23   C     C_3   0.639088 0.040147 0.489080 0.566341
C24   C     C_3   0.360912 0.959853 0.510920 0.566341
H1    H     H_    0.071690 0.556370 0.588867 0.130205
H2    H     H_    0.928310 0.443630 0.411132 0.130206
H3    H     H_    0.928308 0.443630 0.088867 0.130206
H4    H     H_    0.071692 0.556369 0.911133 0.130206
H5    H     H_    0.571693 0.943630 0.911133 0.130206
H6    H     H_    0.428307 0.056369 0.088867 0.130206
H7    H     H_    0.428310 0.056370 0.411132 0.130205
H8    H     H_    0.571689 0.943630 0.588867 0.130205
H9    H     H_    0.693506 0.443070 0.510761 0.168887
H10   H     H_    0.306494 0.556929 0.489239 0.168887
H11   H     H_    0.306495 0.556929 0.010762 0.168887
H12   H     H_    0.693505 0.443071 0.989238 0.168887
H13   H     H_    0.193504 0.056928 0.989238 0.168886
H14   H     H_    0.806496 0.943071 0.010762 0.168886
H15   H     H_    0.806494 0.943070 0.489239 0.168888
H16   H     H_    0.193506 0.056930 0.510761 0.168888
C25   C     C_1   0.963689 0.624983 0.372245 -0.182785
C26   C     C_1   0.036311 0.375017 0.627754 -0.182784
C27   C     C_1   0.036311 0.375017 0.872245 -0.182785
C28   C     C_1   0.963689 0.624983 0.127755 -0.182784
C29   C     C_1   0.463689 0.875017 0.127755 -0.182784
C30   C     C_1   0.536311 0.124983 0.872245 -0.182785
C31   C     C_1   0.536311 0.124983 0.627755 -0.182785
C32   C     C_1   0.463689 0.875017 0.372245 -0.182785
C33   C     C_3   0.168601 0.531393 0.494656 -0.285443
C34   C     C_3   0.831399 0.468607 0.505344 -0.285443
C35   C     C_3   0.831398 0.468607 0.994656 -0.285443
C36   C     C_3   0.168602 0.531393 0.005344 -0.285443
C37   C     C_3   0.668602 0.968607 0.005344 -0.285443
C38   C     C_3   0.331398 0.031393 0.994656 -0.285443
C39   C     C_3   0.331399 0.031393 0.505344 -0.285443
C40   C     C_3   0.668601 0.968607 0.494656 -0.285443
C41   C     C_3   0.986833 0.540788 0.457479 0.046065
C42   C     C_3   0.013167 0.459212 0.542521 0.046065
C43   C     C_3   0.013166 0.459212 0.957479 0.046065
C44   C     C_3   0.986833 0.540788 0.042521 0.046065
C45   C     C_3   0.486833 0.959212 0.042521 0.046065
C46   C     C_3   0.513166 0.040788 0.957479 0.046065
C47   C     C_3   0.513167 0.040788 0.542521 0.046065
C48   C     C_3   0.486833 0.959212 0.457479 0.046065
C49   C     C_1   0.972933 0.586946 0.410555 0.017308
C50   C     C_1   0.027067 0.413054 0.589445 0.017308
C51   C     C_1   0.027066 0.413054 0.910555 0.017309
C52   C     C_1   0.972934 0.586946 0.089445 0.017309
C53   C     C_1   0.472934 0.913053 0.089445 0.017309
C54   C     C_1   0.527066 0.086946 0.910555 0.017309
C55   C     C_1   0.527066 0.086946 0.589445 0.017309
C56   C     C_1   0.472933 0.913053 0.410555 0.017309
O21   O     O_3   0.713954 0.584826 0.519475 -0.549298
C57   C     C_3   0.621388 0.572768 0.571498 -0.267838
H17   H     H_    0.722801 0.577218 0.607752 0.134960
H18   H     H_    0.551652 0.525806 0.571633 0.143999
H19   H     H_    0.506179 0.608164 0.577559 0.169431
O22   O     O_3   0.286046 0.415174 0.480525 -0.549298
C58   C     C_3   0.378612 0.427232 0.428502 -0.267839
H20   H     H_    0.448347 0.474194 0.428367 0.143999
H21   H     H_    0.277199 0.422782 0.392248 0.134960
H22   H     H_    0.493821 0.391835 0.422440 0.169431
O23   O     O_3   0.286044 0.415173 0.019475 -0.549298
C59   C     C_3   0.378609 0.427231 0.071498 -0.267838
H23   H     H_    0.277196 0.422780 0.107752 0.134961
H24   H     H_    0.448344 0.474193 0.071634 0.143998
H25   H     H_    0.493819 0.391834 0.077559 0.169432
O24   O     O_3   0.713956 0.584827 0.980525 -0.549298
C60   C     C_3   0.621391 0.572769 0.928502 -0.267838
H26   H     H_    0.551655 0.525807 0.928366 0.143998
H27   H     H_    0.722804 0.577220 0.892248 0.134961
H28   H     H_    0.506181 0.608166 0.922441 0.169432
O25   O     O_3   0.213957 0.915173 0.980525 -0.549298
C61   C     C_3   0.121391 0.927231 0.928502 -0.267837
H29   H     H_    0.222804 0.922781 0.892248 0.134960
H30   H     H_    0.051654 0.974193 0.928367 0.143998
H31   H     H_    0.006183 0.891833 0.922441 0.169432
O26   O     O_3   0.786043 0.084827 0.019475 -0.549298
C62   C     C_3   0.878609 0.072769 0.071498 -0.267837
H32   H     H_    0.948346 0.025807 0.071633 0.143998
H33   H     H_    0.777196 0.077219 0.107752 0.134960
H34   H     H_    0.993817 0.108166 0.077559 0.169432
O27   O     O_3   0.786046 0.084826 0.480525 -0.549298
C63   C     C_3   0.878612 0.072768 0.428502 -0.267838
H35   H     H_    0.777199 0.077219 0.392248 0.134960
H36   H     H_    0.948346 0.025806 0.428367 0.143999
H37   H     H_    0.993823 0.108164 0.422441 0.169431
O28   O     O_3   0.213954 0.915174 0.519475 -0.549298
C64   C     C_3   0.121388 0.927232 0.571497 -0.267838
H38   H     H_    0.051654 0.974194 0.571633 0.143999
H39   H     H_    0.222801 0.922781 0.607752 0.134960
H40   H     H_    0.006177 0.891835 0.577559 0.169431

loop_
_geom_bond_atom_site_label_1
_geom_bond_atom_site_label_2
_ccdc_geom_bond_type
C24   C48   S    
O17   V3    S    
C48   C56   S    
O18   V4    S    
O12   V1    S    
O19   V1    S    
C19   C43   S    
H14   C37   S    
C18   C42   S    
C63   H35   S    
C36   C44   S    
C39   C47   S    
O21   C57   S    
C62   H32   S    
C26   C50   T    
O16   V3    S    
C25   C49   T    
O11   C3    A    
C24   C39   S    
O8    V1    S    
C15   C48   S    
C7    C26   S    
C30   C54   T    
C29   C53   T    
C62   H33   S    
C31   C55   T    
C12   C43   S    
C63   H36   S    
O1    V3    S    
C59   H23   S    
O3    C2    A    
O2    V4    S    
C61   H29   S    
C46   C54   S    
C17   C34   S    
C45   C53   S    
C15   H7    S    
O11   V2    S    
O28   C64   S    
C16   H8    S    
C10   C18   S    
C64   H40   S    
O23   C59   S    
C16   C40   S    
C21   C38   S    
C10   C41   S    
C11   C19   S    
C9    C42   S    
C9    C33   S    
C12   H4    S    
O9    V1    S    
C60   H28   S    
C41   C49   S    
C38   C46   S    
O15   C7    A    
C37   C45   S    
O16   C8    A    
O7    V2    S    
O22   C58   S    
C23   C40   S    
C34   C42   S    
C18   O22   S    
C33   C41   S    
O24   C60   S    
O5    V1    S    
H15   C40   S    
O17   V1    S    
C10   H2    S    
C14   C45   S    
O19   V3    S    
C13   C46   S    
O20   V4    S    
C62   H34   S    
C14   C38   S    
C13   C37   S    
C47   C55   S    
C61   H31   S    
C23   C47   S    
H9    C34   S    
C20   C35   S    
C21   C45   S    
O10   V2    S    
C14   H6    S    
H13   C38   S    
C17   C41   S    
O12   C4    A    
C27   C51   T    
O8    C5    A    
O13   C5    A    
C58   H21   S    
C19   O23   S    
C8    C25   S    
C10   C34   S    
O4    C1    A    
C20   O24   S    
O1    C4    A    
O9    C1    A    
O6    V2    S    
O18   V2    S    
C57   H18   S    
C5    C28   S    
C11   H3    S    
C64   H38   S    
H16   C39   S    
C17   O21   S    
C4    C29   S    
C12   C20   S    
C13   C21   S    
O27   C63   S    
O7    C6    A    
C63   H37   S    
C16   C47   S    
C15   C23   S    
C60   H26   S    
C21   O25   S    
C2    C31   S    
C16   C24   S    
C18   C33   S    
O2    C3    A    
O13   V3    S    
C22   O26   S    
C11   C35   S    
O14   V4    S    
C20   C44   S    
O15   V4    S    
C22   C37   S    
C11   C44   S    
C23   O27   S    
C57   H19   S    
C43   C51   S    
H12   C35   S    
C42   C50   S    
C59   H25   S    
C9    C17   S    
O14   C6    A    
O20   V2    S    
C13   H5    S    
C40   C48   S    
O25   C61   S    
C24   O28   S    
C35   C43   S    
O5    C8    A    
O10   C2    A    
O6    C7    A    
C28   C52   T    
C59   H24   S    
C58   H22   S    
O3    V4    S    
C61   H30   S    
C6    C27   S    
C14   C22   S    
O4    V3    S    
C32   C56   T    
C12   C36   S    
C1    C32   S    
C57   H17   S    
C58   H20   S    
C64   H39   S    
C19   C36   S    
C3    C30   S    
C44   C52   S    
C60   H27   S    
O26   C62   S    
C9    H1    S    
H11   C36   S    
H10   C33   S    
C15   C39   S    
C22   C46   S    
