data_mof_unit_42481.cif
_audit_creation_date              2012-12-10T20:51:42-0500
_audit_creation_method            fapswitch 2.2
_symmetry_space_group_name_H-M    P1
_symmetry_Int_Tables_number       1
_space_group_crystal_system       triclinic
_cell_length_a                    8.098639
_cell_length_b                    8.931125
_cell_length_c                    16.594752
_cell_angle_alpha                 89.522147
_cell_angle_beta                  95.012094
_cell_angle_gamma                 90.053208
_cell_volume                      1195.66649004

loop_
_atom_site_label
_atom_site_type_symbol
_atom_type_description
_atom_site_fract_x
_atom_site_fract_y
_atom_site_fract_z
_atom_type_partial_charge
C1    C     C_R   0.499930 0.217954 0.500010 0.938436
C2    C     C_R   0.500069 0.782045 0.500007 0.934055
C3    C     C_R   0.522133 0.506318 0.654266 0.884238
C4    C     C_R   0.477777 0.498149 0.345642 0.885068
C5    C     C_R   0.539077 0.543945 0.740062 -0.145061
C6    C     C_R   0.461053 0.493680 0.257729 -0.141366
C7    C     C_R   0.426500 0.642194 0.772964 -0.089735
C8    C     C_R   0.568012 0.406442 0.214738 -0.085443
C9    C     C_R   0.446644 0.674165 0.855635 -0.054010
C10   C     C_R   0.553027 0.412963 0.130064 -0.059625
C11   C     C_R   0.576586 0.605908 0.904808 0.175316
C12   C     C_R   0.435613 0.510294 0.089516 0.179927
C13   C     C_R   0.702898 0.527261 0.869987 0.224370
C14   C     C_R   0.320996 0.588025 0.132478 0.208851
C15   C     C_R   0.679422 0.493105 0.787641 -0.231430
C16   C     C_R   0.334162 0.577637 0.216544 -0.236229
C17   C     C_1   0.499915 0.065181 0.500018 -0.180914
C18   C     C_1   0.500073 0.934809 0.500026 -0.179645
H1    H     H_    0.767648 0.423041 0.760356 0.174085
H2    H     H_    0.247514 0.638521 0.250200 0.174652
N1    N     N_1   0.073640 0.500030 0.499990 -0.022829
N2    N     N_1   0.926360 0.499970 0.500010 -0.023130
N3    N     N_2   0.568776 0.595348 0.989075 -0.180266
N4    N     N_2   0.437234 0.534631 0.005842 -0.191021
O1    O     O_R   0.636850 0.285340 0.500000 -0.610381
O2    O     O_R   0.363150 0.714660 0.500000 -0.611455
O3    O     O_R   0.363100 0.285350 0.500000 -0.611684
O4    O     O_R   0.636900 0.714650 0.500000 -0.611250
O5    O     O_R   0.652140 0.498630 0.616140 -0.618577
O6    O     O_R   0.347860 0.501370 0.383860 -0.619171
O7    O     O_R   0.378390 0.498650 0.616130 -0.608840
O8    O     O_R   0.621610 0.501350 0.383870 -0.606835
Zn1   Zn    Zn3+2 0.682780 0.499990 0.500010 1.005705
Zn2   Zn    Zn3+2 0.317220 0.500010 0.499990 1.004028
C19   C     C_1   0.689198 0.307402 0.256929 0.203046
N5    N     N_1   0.785794 0.228382 0.290559 -0.187453
C20   C     C_1   0.292657 0.712926 0.722497 0.205681
N6    N     N_1   0.185894 0.769437 0.682398 -0.182263
C21   C     C_1   0.655157 0.317987 0.084279 0.202323
N7    N     N_1   0.736340 0.241354 0.048029 -0.183383
C22   C     C_1   0.335486 0.777833 0.890329 0.190561
N8    N     N_1   0.246553 0.861640 0.917077 -0.208326
N9    N     N_2   0.844845 0.473040 0.919353 -0.288434
H3    H     H_    0.856501 0.511899 0.977905 0.244589
C23   C     C_3   0.002228 0.469767 0.883940 -0.760799
H4    H     H_    0.103022 0.441450 0.931334 0.242101
H5    H     H_    0.029230 0.580948 0.857545 0.244701
H6    H     H_    0.002229 0.381865 0.837152 0.249496
N10   N     N_2   0.192465 0.676566 0.091858 -0.308209
H7    H     H_    0.165101 0.653057 0.031498 0.244471
C24   C     C_3   0.201671 0.835419 0.108347 -0.713749
H8    H     H_    0.096167 0.893573 0.074130 0.251153
H9    H     H_    0.319541 0.882340 0.089389 0.249953
H10   H     H_    0.193611 0.857013 0.173644 0.234707

loop_
_geom_bond_atom_site_label_1
_geom_bond_atom_site_label_2
_ccdc_geom_bond_type
C15   H1    S    
N3    N4    D    
C20   N6    T    
C2    C18   S    
N9    C23   S    
C22   N8    T    
C12   N4    S    
C9    C22   S    
C19   N5    T    
C16   H2    S    
N9    H3    S    
C24   H10   S    
C1    O3    A    
O8    Zn1   S    
C23   H5    S    
C17   C18   T    
C7    C20   S    
O7    Zn2   S    
C2    O2    A    
C23   H4    S    
C3    O7    A    
C1    O1    A    
C11   C13   A    
C9    C11   A    
C4    O8    A    
C10   C12   A    
C11   N3    S    
C12   C14   A    
O4    Zn1   S    
C7    C9    A    
C13   C15   A    
O3    Zn2   S    
C14   C16   A    
C5    C15   A    
C14   N10   S    
C2    O4    A    
O6    Zn2   S    
C24   H9    S    
C6    C16   A    
C24   H8    S    
O5    Zn1   S    
C13   N9    S    
C5    C7    A    
N10   H7    S    
C23   H6    S    
C21   N7    T    
C3    O5    A    
N2    Zn1   S    
C6    C8    A    
N1    Zn2   S    
C3    C5    S    
N1    N2    T    
C4    C6    S    
C1    C17   S    
O2    Zn2   S    
C8    C10   A    
C4    O6    A    
O1    Zn1   S    
C10   C21   S    
N10   C24   S    
C8    C19   S    
