data_mof_unit_23504.cif
_audit_creation_date              2012-12-11T14:52:52-0500
_audit_creation_method            fapswitch 2.2
_symmetry_space_group_name_H-M    P1
_symmetry_Int_Tables_number       1
_space_group_crystal_system       triclinic
_cell_length_a                    8.22109
_cell_length_b                    15.12174
_cell_length_c                    26.988786
_cell_angle_alpha                 97.010002
_cell_angle_beta                  92.88724
_cell_angle_gamma                 80.576148
_cell_volume                      3283.56444925

loop_
_atom_site_label
_atom_site_type_symbol
_atom_type_description
_atom_site_fract_x
_atom_site_fract_y
_atom_site_fract_z
_atom_type_partial_charge
Ba1   Ba    Ba6+2 0.860900 0.457020 0.523210 1.693948
Ba2   Ba    Ba6+2 0.328940 0.542910 0.476780 1.682501
C1    C     C_3   0.714741 0.138511 0.657180 0.461570
C2    C     C_R   0.916821 0.586861 0.179035 0.579860
C3    C     C_2   0.747332 0.547411 0.269917 -0.082533
C4    C     C_3   0.198204 0.256107 0.658068 0.274123
C5    C     C_3   0.724702 0.581028 0.324807 -0.084759
C6    C     C_1   0.984741 0.484212 0.342292 0.117332
C7    C     C_2   0.028313 0.481207 0.294869 -0.101154
C8    C     C_2   0.902767 0.511800 0.254971 0.185042
C9    C     C_R   0.033883 0.505659 0.101871 -0.079266
C10   C     C_R   0.072696 0.427524 0.126532 -0.037169
C11   C     C_R   0.153201 0.348350 0.099961 -0.054848
C12   C     C_3   0.700561 0.228822 0.636614 0.289147
C13   C     C_R   0.955377 0.585664 0.128526 -0.018051
C14   C     C_2   0.841564 0.527930 0.359002 -0.230635
C15   C     C_2   0.356034 0.480247 0.641062 -0.286676
C16   C     C_3   0.168754 0.236745 0.710508 -0.295322
C17   C     C_R   0.204661 0.423875 0.973893 -0.060439
C18   C     C_R   0.058825 0.579762 0.974036 0.042803
C19   C     C_R   0.151054 0.501119 0.948538 0.047907
C20   C     C_R   0.303209 0.349179 0.947544 -0.140011
C21   C     C_R   0.344313 0.349119 0.897981 0.646361
C22   C     C_R   0.287800 0.423991 0.871890 -0.120058
C23   C     C_3   0.482292 0.685901 0.628928 0.352641
C24   C     C_R   0.190200 0.499918 0.897193 -0.151104
C25   C     C_R   0.132215 0.575016 0.871260 -0.012767
C26   C     C_R   0.171290 0.573483 0.820638 0.596343
C27   C     C_R   0.326927 0.425014 0.821247 0.619271
C28   C     C_3   0.222890 0.267576 0.417096 0.364626
C29   C     C_2   0.465456 0.483348 0.729107 -0.073983
C30   C     C_3   0.505519 0.488496 0.675231 -0.060018
C31   C     C_1   0.209808 0.518593 0.657079 0.035251
C32   C     C_2   0.172052 0.518798 0.704499 -0.089439
C33   C     C_2   0.306389 0.498902 0.743606 0.194095
C34   C     C_3   0.453641 0.721989 0.683495 0.543862
C35   C     C_R   0.159397 0.423970 0.024546 0.046780
C36   C     C_R   0.073653 0.504031 0.050571 0.057309
C37   C     C_R   0.027189 0.582665 0.025864 0.019119
C38   C     C_R   0.195977 0.346516 0.050349 -0.090122
C39   C     C_R   0.917159 0.663630 0.104308 -0.048994
C40   C     C_3   0.254927 0.165767 0.403231 -0.347328
C41   C     C_R   0.999906 0.652954 0.946442 -0.096722
C42   C     C_R   0.035845 0.650492 0.896406 -0.045946
C43   C     C_R   0.951738 0.662291 0.054284 -0.102197
C44   C     C_R   0.751591 0.767118 0.478360 -0.399369
C45   C     C_3   0.035047 0.732907 0.341983 0.325681
C46   C     C_R   0.844927 0.827181 0.463408 -0.022376
C47   C     C_R   0.791739 0.920681 0.472663 0.521985
C48   C     C_R   0.637092 0.955295 0.495508 -0.038087
C49   C     C_R   0.550044 0.891145 0.511910 -0.166041
C50   C     C_R   0.610740 0.799069 0.505148 0.035843
C51   C     C_R   0.424177 0.088369 0.532345 -0.061839
C52   C     C_3   0.970099 0.733177 0.583384 0.269240
C53   C     C_R   0.358602 0.180277 0.538354 -0.020415
C54   C     C_R   0.582283 0.212965 0.493317 0.034608
C55   C     C_R   0.641439 0.120674 0.483635 -0.070956
C56   C     C_3   0.048839 0.755946 0.289233 -0.284545
C57   C     C_R   0.569241 0.055595 0.504699 0.082125
C58   C     C_R   0.442547 0.242552 0.521167 -0.280365
C59   C     C_3   0.936646 0.834670 0.598334 -0.257693
C60   C     C_3   0.676401 0.335464 0.368993 0.862610
C61   C     C_3   0.579944 0.325226 0.319524 -0.256955
C62   C     C_1   0.611461 0.564759 0.234253 0.371587
C63   C     C_3   0.491063 0.782857 0.363989 0.340141
C64   C     C_3   0.436179 0.875502 0.346797 -0.349385
C65   C     C_R   0.028480 0.429917 0.177028 0.606738
F1    F     F_    0.839360 0.329083 0.358297 -0.738051
F2    F     F_    0.734622 0.069199 0.618431 -0.714121
F3    F     F_    0.335475 0.798767 0.686730 -0.652925
F4    F     F_    0.440102 0.274449 0.875776 -0.645799
F5    F     F_    0.899758 0.974657 0.463138 -0.706425
H1    H     H_    0.813569 0.229010 0.615812 0.107068
H2    H     H_    0.631251 0.403015 0.388958 -0.027860
H3    H     H_    0.631850 0.261495 0.296815 0.122973
H4    H     H_    0.588063 0.382667 0.298263 0.066077
H5    H     H_    0.448622 0.323135 0.325985 0.082869
H6    H     H_    0.591109 0.236086 0.610977 -0.029581
H7    H     H_    0.601352 0.135537 0.677215 0.044516
H8    H     H_    0.365257 0.666466 0.612223 -0.003791
H9    H     H_    0.580463 0.625785 0.626856 -0.092829
H10   H     H_    0.409929 0.670747 0.703326 -0.063823
H11   H     H_    0.570449 0.738663 0.701918 0.020435
H12   H     H_    0.351055 0.147533 0.374648 0.109668
H13   H     H_    0.822925 0.129754 0.683482 0.060787
H14   H     H_    0.215672 0.287580 0.738171 0.129866
H15   H     H_    0.128976 0.672937 0.347477 0.091478
H16   H     H_    0.910118 0.716449 0.346020 -0.063433
H17   H     H_    0.152368 0.793916 0.287095 0.146313
H18   H     H_    0.073789 0.692714 0.263485 0.122638
H19   H     H_    0.932682 0.797651 0.277371 0.128580
H20   H     H_    0.628039 0.768471 0.363308 -0.055989
H21   H     H_    0.450798 0.785371 0.402895 0.070538
H22   H     H_    0.495749 0.926503 0.371159 0.064808
H23   H     H_    0.297366 0.131232 0.436483 0.049024
H24   H     H_    0.300375 0.894709 0.349086 0.158068
H25   H     H_    0.138811 0.326501 0.654312 0.066946
H26   H     H_    0.472394 0.875027 0.307665 0.127277
H27   H     H_    0.154560 0.455480 0.284544 0.120928
H28   H     H_    0.183852 0.286791 0.117536 0.126633
H29   H     H_    0.565839 0.472873 0.756546 0.106277
H30   H     H_    0.354145 0.289527 0.964592 0.110909
H31   H     H_    0.255047 0.282216 0.032932 0.079421
H32   H     H_    0.858961 0.726719 0.124020 0.126104
H33   H     H_    0.922029 0.713111 0.962111 0.075174
H34   H     H_    0.139570 0.141911 0.388064 0.163792
H35   H     H_    0.333171 0.249486 0.653134 -0.018766
H36   H     H_    0.987285 0.708754 0.877366 0.131896
H37   H     H_    0.044405 0.534155 0.715343 0.124015
H38   H     H_    0.920565 0.725938 0.039316 0.075847
H39   H     H_    0.822226 0.543232 0.398811 0.065694
H40   H     H_    0.368679 0.443885 0.603828 0.072425
H41   H     H_    0.355141 0.044961 0.548300 0.091517
H42   H     H_    0.737854 0.102393 0.457217 0.163666
H43   H     H_    0.437839 0.909948 0.532019 0.114249
H44   H     H_    0.392175 0.313661 0.526152 0.067496
H45   H     H_    0.853848 0.709113 0.570613 -0.005115
H46   H     H_    0.034551 0.240537 0.715753 0.129719
H47   H     H_    0.796553 0.695331 0.473200 0.086745
H48   H     H_    0.233490 0.168437 0.716840 0.150747
H49   H     H_    0.339829 0.291284 0.429387 -0.063897
H50   H     H_    0.134621 0.283601 0.447867 0.069977
H51   H     H_    0.058387 0.718404 0.552646 0.063230
H52   H     H_    0.842731 0.851278 0.627626 0.159940
H53   H     H_    0.890578 0.870347 0.565825 0.071265
H54   H     H_    0.052233 0.858848 0.613007 0.175740
N1    N     N_R   0.949653 0.509011 0.202839 -0.426805
N2    N     N_R   0.267126 0.498857 0.795932 -0.438724
N3    N     N_1   0.502711 0.578521 0.205840 -0.283854
O1    O     O_2   0.905540 0.548000 0.618290 -0.467572
O2    O     O_2   0.185759 0.820692 0.466959 -0.441908
O3    O     O_3   0.062932 0.806865 0.376211 -0.578961
O4    O     O_3   0.137550 0.547930 0.558110 -0.497850
O5    O     O_3   0.574690 0.391440 0.474610 -0.503358
O6    O     O_2   0.341330 0.720570 0.525000 -0.464568
O7    O     O_3   0.532425 0.753317 0.604740 -0.621986
O8    O     O_2   0.393286 0.546324 0.323497 -0.510912
O9    O     O_3   0.419175 0.717689 0.332356 -0.594878
O10   O     O_2   0.058484 0.361257 0.197668 -0.580063
O11   O     O_2   0.413721 0.359890 0.799610 -0.519348
O12   O     O_3   0.660491 0.263411 0.395514 -0.654041
O13   O     O_2   0.853389 0.657866 0.201874 -0.618943
O14   O     O_2   0.122014 0.639466 0.798797 -0.572995
O15   O     O_3   0.688580 0.383890 0.587540 -0.487627
O16   O     O_2   0.850002 0.428310 0.672090 -0.497009
O17   O     O_3   0.034829 0.692190 0.625258 -0.597183
O18   O     O_3   0.681976 0.298718 0.676200 -0.636684
O19   O     O_2   0.848360 0.279400 0.474970 -0.444321
O20   O     O_3   0.104690 0.337720 0.562900 -0.504092
O21   O     O_2   0.020863 0.177188 0.530892 -0.431065
O22   O     O_3   0.129202 0.194317 0.623540 -0.586017
O23   O     O_2   0.284150 0.451970 0.381680 -0.500083
O24   O     O_3   0.052160 0.451990 0.441880 -0.491433
O25   O     O_3   0.501140 0.616030 0.412450 -0.481193
O26   O     O_3   0.159124 0.307671 0.374826 -0.555808
O27   O     O_3   0.615020 0.608480 0.525380 -0.476285
O28   O     O_3   0.085020 0.662210 0.437090 -0.521281
P1    P     P_3+3 0.070480 0.574800 0.610950 1.011460
P2    P     P_3+3 0.668430 0.292880 0.460530 1.013378
P3    P     P_3+3 0.153311 0.221009 0.563411 0.976514
P4    P     P_3+3 0.119230 0.425130 0.389040 1.072705
P5    P     P_3+3 0.045925 0.779678 0.436678 1.026089
P6    P     P_3+3 0.682224 0.401915 0.652754 0.967006
P7    P     P_3+3 0.527184 0.721731 0.540226 0.983893
P8    P     P_3+3 0.509459 0.611203 0.347747 0.941994

loop_
_geom_bond_atom_site_label_1
_geom_bond_atom_site_label_2
_ccdc_geom_bond_type
C63   H20   S    
C52   H51   S    
C9    C36   A    
C23   H8    S    
O6    P7    D    
C19   C24   A    
C1    H7    S    
O8    P8    D    
C51   C57   A    
O26   P4    S    
C10   C11   A    
C24   C25   A    
C16   H14   S    
O21   P3    D    
C59   H52   S    
C48   C57   S    
C29   H29   S    
Ba1   P1    S    
C1    F2    S    
C22   C24   A    
C32   C33   S    
C54   P2    S    
C6    P4    S    
C2    O13   D    
C36   C37   A    
C55   C57   A    
C46   P5    S    
C61   H4    S    
C34   H11   S    
C30   P6    S    
C44   C50   A    
C54   C55   A    
Ba1   Ba2   S    
C41   H33   S    
C61   H5    S    
C23   O7    S    
C22   C27   A    
C11   C38   A    
C17   C35   A    
C9    C13   A    
C25   C42   A    
O12   P2    S    
C28   H50   S    
C34   H10   S    
C6    C7    D    
C47   F5    S    
C60   H2    S    
C21   C22   A    
O25   P8    S    
Ba1   O20   S    
C59   H54   S    
C65   O10   D    
C56   H19   S    
C16   H46   S    
C42   H36   S    
O23   P4    D    
C64   H22   S    
C52   O17   S    
C6    C14   D    
C63   H21   S    
O5    P2    S    
C5    P8    S    
C26   N2    Am   
Ba2   O25   S    
C53   C58   A    
C23   H9    S    
C15   C31   D    
Ba1   O4    S    
Ba2   P4    S    
C56   H17   S    
C51   H41   S    
C48   C49   A    
C51   C53   A    
Ba2   O23   S    
C4    C16   S    
C10   C65   A    
C44   C46   A    
Ba2   O4    S    
C40   H23   S    
C4    H25   S    
C21   F4    S    
Ba1   P2    S    
C17   C20   A    
C40   H12   S    
C13   C39   A    
Ba1   O1    S    
C3    C5    S    
C18   C37   A    
C43   H38   S    
O16   P6    D    
O2    P5    D    
C12   O18   S    
C49   H43   S    
C49   C50   A    
C3    C62   S    
O24   P4    S    
O19   P2    D    
C45   H15   S    
C27   N2    Am   
Ba1   O27   S    
C41   C42   A    
C12   H1    S    
C35   C36   A    
C65   N1    Am   
C40   H34   S    
C38   H31   S    
C29   C30   S    
C28   H49   S    
C4    H35   S    
C60   C61   S    
C31   C32   D    
C26   O14   D    
Ba2   O5    S    
C62   N3    T    
Ba1   O24   S    
C56   H18   S    
C1    C12   S    
C50   P7    S    
C4    O22   S    
C28   O26   S    
C34   F3    S    
C47   C48   A    
Ba2   O24   S    
O9    P8    S    
O15   P6    S    
C29   C33   D    
C1    H13   S    
C58   H44   S    
C63   O9    S    
C60   O12   S    
C8    N1    S    
C15   H40   S    
C16   H48   S    
C18   C41   A    
C31   P1    S    
C64   H24   S    
C7    C8    S    
C15   C30   S    
C27   O11   D    
C53   P3    S    
Ba2   O27   S    
C2    N1    Am   
O7    P7    S    
C5    C14   S    
C9    C10   A    
C55   H42   S    
O17   P1    S    
C52   C59   S    
C60   F1    S    
C35   C38   A    
Ba2   O6    S    
C20   H30   S    
C39   H32   S    
C37   C43   A    
C45   O3    S    
O1    P1    D    
O22   P3    S    
C64   H26   S    
C11   H28   S    
C3    C8    D    
Ba1   O15   S    
O18   P6    S    
C45   H16   S    
C45   C56   S    
C61   H3    S    
C2    C13   A    
Ba2   O28   S    
C46   C47   A    
C44   H47   S    
C12   H6    S    
C33   N2    S    
O4    P1    S    
O20   P3    S    
O3    P5    S    
C23   C34   S    
C54   C58   A    
C18   C19   A    
O27   P7    S    
C7    H27   S    
C63   C64   S    
C52   H45   S    
C25   C26   A    
C32   H37   S    
C39   C43   A    
C20   C21   A    
C28   C40   S    
Ba1   O19   S    
C59   H53   S    
O28   P5    S    
Ba1   O5    S    
C14   H39   S    
C17   C19   A    
