data_mof_unit_5642.cif
_audit_creation_date              2013-03-05T16:19:44-0500
_audit_creation_method            fapswitch 2.2
_symmetry_space_group_name_H-M    P1
_symmetry_Int_Tables_number       1
_space_group_crystal_system       triclinic
_cell_length_a                    10.66342
_cell_length_b                    9.6733
_cell_length_c                    27.72709
_cell_angle_alpha                 90.424935
_cell_angle_beta                  90.767329
_cell_angle_gamma                 90.264926
_cell_volume                      2859.69506889

loop_
_atom_site_label
_atom_site_type_symbol
_atom_site_description
_atom_site_fract_x
_atom_site_fract_y
_atom_site_fract_z
_atom_type_partial_charge
O1    O     O_R   0.314910 0.616040 0.499990 -0.615148
O2    O     O_R   0.314910 0.383960 0.499990 -0.594223
C1    C     C_R   0.257115 0.499794 0.498230 0.960639
O3    O     O_R   0.500140 0.616020 0.428740 -0.607285
O4    O     O_R   0.500140 0.383980 0.428740 -0.604241
C2    C     C_R   0.502541 0.499513 0.405949 0.972652
Zn1   Zn    Zn3+2 0.500150 0.654960 0.499980 0.937199
Zn2   Zn    Zn3+2 0.500150 0.345040 0.499980 0.943784
O5    O     O_R   0.685320 0.616040 0.499970 -0.638943
O6    O     O_R   0.685320 0.383960 0.499970 -0.640513
O7    O     O_R   0.500090 0.616050 0.571230 -0.638690
O8    O     O_R   0.500090 0.383950 0.571230 -0.639068
C3    C     C_R   0.742145 0.500485 0.503121 0.865714
C4    C     C_R   0.499016 0.500603 0.594037 0.858449
C5    C     C_R   0.391904 0.466353 0.178460 0.513100
O9    O     O_2   0.288346 0.438223 0.204173 -0.519151
N1    N     N_R   0.502987 0.493774 0.201680 -0.362510
C6    C     C_R   0.609986 0.522445 0.177173 0.509660
C7    C     C_R   0.512058 0.370669 0.278036 -0.073561
C8    C     C_R   0.511945 0.371980 0.328120 -0.217300
C9    C     C_R   0.501046 0.622979 0.327840 -0.141895
C10   C     C_R   0.501652 0.621276 0.277762 -0.084294
C11   C     C_R   0.506536 0.495210 0.252970 0.310818
C12   C     C_R   0.493752 0.499397 0.101817 -0.050812
C13   C     C_R   0.385199 0.468486 0.128070 -0.027483
C14   C     C_R   0.272346 0.442218 0.103697 -0.129849
C15   C     C_R   0.607444 0.525878 0.126753 -0.024998
C16   C     C_R   0.505451 0.498196 0.353331 -0.056509
H1    H     H_    0.496172 0.721548 0.346489 0.159923
H2    H     H_    0.497078 0.717519 0.258127 0.140340
H3    H     H_    0.187275 0.419906 0.123182 0.196331
C17   C     C_R   0.493072 0.502955 0.646599 -0.035007
C18   C     C_R   0.371199 0.472132 0.974804 0.032308
C19   C     C_R   0.590536 0.554489 0.974327 0.048830
C20   C     C_R   0.478776 0.514728 0.949249 0.068832
C21   C     C_R   0.263202 0.431607 0.948193 -0.262451
C22   C     C_R   0.258836 0.433813 0.897935 0.015034
C23   C     C_R   0.367136 0.471998 0.872182 -0.070556
C24   C     C_R   0.475103 0.517629 0.898108 -0.062676
C25   C     C_R   0.579991 0.566813 0.872805 -0.008161
C26   C     C_R   0.576855 0.567427 0.822537 0.484082
N2    N     N_R   0.476053 0.513671 0.798163 -0.351350
C27   C     C_R   0.373454 0.463969 0.821377 0.490110
C28   C     C_R   0.468440 0.632027 0.720876 -0.108058
C29   C     C_R   0.475837 0.629120 0.670967 -0.231256
C30   C     C_R   0.502357 0.379739 0.672813 -0.232500
C31   C     C_R   0.495495 0.383112 0.722846 -0.113286
C32   C     C_R   0.478672 0.509269 0.746810 0.328146
O10   O     O_2   0.279907 0.405015 0.795140 -0.558128
C33   C     C_R   0.374204 0.473246 0.026044 0.053155
C34   C     C_R   0.488562 0.504346 0.050765 0.071793
C35   C     C_R   0.597762 0.541000 0.025064 0.044380
C36   C     C_R   0.266586 0.444584 0.053746 -0.218156
H4    H     H_    0.467599 0.725456 0.651545 0.149261
H5    H     H_    0.455526 0.729580 0.739533 0.136319
H6    H     H_    0.178653 0.398133 0.965420 0.140422
H7    H     H_    0.174972 0.425850 0.038317 0.140806
O11   O     O_2   0.718102 0.547720 0.201626 -0.525743
C37   C     C_R   0.715814 0.554567 0.101015 -0.130068
H8    H     H_    0.515832 0.274454 0.347012 0.166953
H9    H     H_    0.515768 0.273233 0.258635 0.143202
H10   H     H_    0.804929 0.572031 0.119348 0.194558
C38   C     C_R   0.691248 0.608800 0.947727 -0.215418
C39   C     C_R   0.685712 0.614983 0.897959 -0.152294
O12   O     O_2   0.674565 0.619293 0.797949 -0.604393
C40   C     C_R   0.711467 0.561375 0.051119 -0.219256
H11   H     H_    0.775104 0.650841 0.964343 0.141218
H12   H     H_    0.515539 0.281301 0.654766 0.148499
H13   H     H_    0.765705 0.656925 0.879238 0.178542
H14   H     H_    0.504180 0.288228 0.743079 0.135960
H15   H     H_    0.799988 0.579716 0.033977 0.141001
C41   C     C_3   0.073501 0.639633 0.519835 -0.411005
C42   C     C_3   0.073659 0.387112 0.533434 -0.427227
H16   H     H_    0.108855 0.730609 0.499986 0.242623
H17   H     H_    0.110589 0.282999 0.525126 0.231796
H18   H     H_    0.110335 0.652472 0.557412 0.167181
H19   H     H_    0.109210 0.410856 0.570565 0.169762
C43   C     C_3   0.930531 0.641860 0.520612 -0.377871
C44   C     C_3   0.930375 0.383409 0.533923 -0.398126
H20   H     H_    0.898383 0.662416 0.558022 0.165218
H21   H     H_    0.897034 0.395068 0.571614 0.167941
H22   H     H_    0.896484 0.727998 0.497576 0.224837
H23   H     H_    0.897570 0.280826 0.520208 0.206059
H24   H     H_    0.871999 0.557870 0.426210 0.203454
H25   H     H_    0.874630 0.378005 0.436362 0.195862
C45   C     C_3   0.061144 0.478159 0.444804 0.686669
C46   C     C_3   0.119871 0.500031 0.497811 -0.046287
C47   C     C_3   0.877733 0.501194 0.502079 0.052423
C48   C     C_3   0.916322 0.477542 0.449311 -0.426759
C49   C     C_3   0.405947 0.080109 0.464176 -0.194091
C50   C     C_3   0.405891 0.917292 0.464143 -0.221124
H26   H     H_    0.425790 0.117621 0.427239 0.185319
H27   H     H_    0.425684 0.878356 0.427201 0.175306
H28   H     H_    0.310935 0.117789 0.473368 0.219740
H29   H     H_    0.310659 0.878768 0.473117 0.184333
H30   H     H_    0.650184 0.119980 0.449191 0.162134
H31   H     H_    0.650263 0.879287 0.449237 0.164209
C51   C     C_3   0.623827 0.081666 0.485429 -0.231145
C52   C     C_3   0.623841 0.918953 0.485455 -0.228669
C53   C     C_3   0.469439 0.082079 0.547139 -0.248023
C54   C     C_3   0.469291 0.919494 0.547122 -0.247160
N3    N     N_3   0.499750 0.138610 0.498940 -0.057305
N4    N     N_3   0.499750 0.861390 0.498940 -0.051222
H32   H     H_    0.539043 0.120469 0.574364 0.151532
H33   H     H_    0.538623 0.882563 0.574385 0.151557
H34   H     H_    0.376368 0.120848 0.558674 0.150336
H35   H     H_    0.376070 0.880434 0.558555 0.146986
H36   H     H_    0.697211 0.120105 0.511120 0.154266
H37   H     H_    0.697132 0.882318 0.511183 0.151437
S1    S     S_3+6 0.103711 0.616532 0.403487 0.005033
O13   O     O_2   0.243028 0.638447 0.403370 -0.350030
O14   O     O_2   0.061215 0.578719 0.353165 -0.215796
O15   O     O_3   0.033610 0.765985 0.418475 -0.610303
H38   H     H_    0.073691 0.836972 0.398148 0.406481
S2    S     S_3+6 0.105717 0.316109 0.415787 0.026678
O16   O     O_2   0.078834 0.193347 0.446863 -0.358675
O17   O     O_2   0.030894 0.297954 0.369757 -0.249573
O18   O     O_3   0.258348 0.317329 0.402042 -0.559191
H39   H     H_    0.261792 0.353141 0.368726 0.392859
C55   C     C_R   0.135170 0.407426 0.874449 0.192627
C56   C     C_R   0.075118 0.278747 0.879137 -0.145260
C57   C     C_R   0.957133 0.255945 0.857794 -0.144487
C58   C     C_R   0.898520 0.361232 0.831736 -0.081287
C59   C     C_R   0.957552 0.489694 0.827217 -0.123017
C60   C     C_R   0.074586 0.513517 0.848988 -0.107070
H40   H     H_    0.119801 0.196368 0.899155 0.129055
H41   H     H_    0.911244 0.156591 0.861385 0.136740
H42   H     H_    0.807410 0.343346 0.815101 0.146469
H43   H     H_    0.912885 0.571154 0.806898 0.184046
H44   H     H_    0.118727 0.614013 0.845638 0.122946

loop_
_geom_bond_atom_site_label_1
_geom_bond_atom_site_label_2
_geom_bond_distance
_ccdc_geom_bond_type
C54   H35   1.112708 S    
C52   N4    1.486722 S    
C17   C29   1.404601 A    
C20   C24   1.418497 A    
C7    C8    1.388650 A    
C12   C15   1.409074 A    
C41   H18   1.114420 S    
C49   C50   1.574970 S    
C58   C59   1.397622 A    
C28   C29   1.387216 A    
Zn1   O7    2.013842 S    
N1    C11   1.422099 S    
C21   C22   1.393987 A    
C45   S1    1.827865 S    
C37   C40   1.385682 A    
C23   C24   1.416159 A    
O7    C4    1.287517 A    
C43   H20   1.113577 S    
C5    C13   1.398333 A    
C5    O9    1.350177 S    
C52   H37   1.112051 S    
C53   H32   1.112179 S    
C18   C21   1.411764 A    
C51   H36   1.111968 S    
N1    C6    1.364209 A    
C19   C20   1.421716 A    
C26   N2    1.361152 A    
C57   H41   1.082319 S    
O5    C3    1.276938 A    
O18   H39   0.990072 S    
C42   C46   1.560631 S    
C41   C43   1.525242 S    
C19   C35   1.414896 A    
O1    Zn1   2.009143 S    
S1    O13   1.499717 D    
C60   H44   1.083270 S    
C6    O11   1.350033 S    
C2    C16   1.459671 S    
C31   C32   1.398606 A    
S2    O17   1.504810 D    
H30   C51   1.112677 S    
C8    H8    1.083148 S    
C12   C34   1.417031 A    
C14   H3    1.083703 S    
C54   N4    1.486048 S    
Zn1   N4    1.997306 S    
C9    C10   1.388586 A    
C42   H17   1.106837 S    
O3    Zn1   2.008125 S    
C44   C47   1.549320 S    
H31   C52   1.112629 S    
C49   H28   1.110519 S    
C53   C54   1.572724 S    
C54   H33   1.112260 S    
C38   H11   1.077060 S    
C33   C36   1.416892 A    
C1    C46   1.463391 S    
C34   C35   1.418315 A    
C12   C13   1.407773 A    
C41   H16   1.108671 S    
C4    C17   1.459644 S    
C24   C25   1.410882 A    
C44   H21   1.113485 S    
H25   C48   1.113680 S    
C55   C60   1.404859 A    
C27   O10   1.348583 S    
C26   O12   1.349587 S    
C8    C16   1.404819 A    
C18   C33   1.420639 A    
C51   N3    1.487042 S    
C9    H1    1.083103 S    
O6    C3    1.279125 A    
C45   S2    1.824519 S    
O1    C1    1.280084 A    
C7    C11   1.396372 A    
C31   H14   1.082936 S    
C30   H12   1.083012 S    
C22   C23   1.414944 A    
C21   H6    1.075631 S    
C50   H27   1.111937 S    
C43   H22   1.112894 S    
C49   H26   1.111722 S    
C40   H15   1.077096 S    
Zn2   O8    2.008359 S    
S2    O18   1.676561 S    
C53   N3    1.486695 S    
C33   C34   1.420752 A    
C42   C44   1.528401 S    
N2    C32   1.424839 S    
C39   H13   1.083266 S    
S1    O15   1.682548 S    
C56   C57   1.399036 A    
O3    C2    1.288506 A    
C25   C26   1.393782 A    
C9    C16   1.403938 A    
O8    C4    1.289609 A    
C29   H4    1.083077 S    
N2    C27   1.364186 A    
C14   C36   1.385921 A    
C41   C46   1.563017 S    
C35   C40   1.415308 A    
C55   C56   1.404856 A    
O15   H38   0.990619 S    
C43   C47   1.551554 S    
Zn1   O5    2.011829 S    
C30   C31   1.390334 A    
C37   H10   1.083622 S    
C36   H7    1.075286 S    
C10   H2    1.082937 S    
C45   C46   1.602057 S    
C17   C30   1.403831 A    
O2    Zn2   2.012563 S    
C6    C15   1.398560 A    
C50   N4    1.487236 S    
C45   C48   1.551008 S    
O4    Zn2   2.013614 S    
C5    N1    1.364589 A    
C53   H34   1.112694 S    
C25   C39   1.394176 A    
O2    C1    1.282229 A    
C13   C14   1.393655 A    
C23   C27   1.412759 A    
C49   N3    1.486848 S    
C44   H23   1.113241 S    
C28   H5    1.083025 S    
C58   H42   1.082516 S    
O4    C2    1.288263 A    
C22   C55   1.483109 S    
C7    H9    1.082904 S    
C3    C47   1.446486 S    
C19   C38   1.412469 A    
C18   C20   1.417554 A    
C59   H43   1.080756 S    
S1    O14   1.503307 D    
C50   H29   1.112054 S    
C38   C39   1.382119 A    
C28   C32   1.396717 A    
C56   H40   1.083090 S    
C47   C48   1.540909 S    
Zn2   O6    2.008410 S    
C51   C52   1.573974 S    
H24   C48   1.113611 S    
C42   H19   1.114295 S    
C10   C11   1.396944 A    
C15   C37   1.394187 A    
C57   C58   1.398080 A    
Zn2   N3    1.996839 S    
S2    O16   1.501157 D    
C59   C60   1.396441 A    
