data_mof_unit_42784.cif
_audit_creation_date              2013-03-05T15:53:24-0500
_audit_creation_method            fapswitch 2.2
_symmetry_space_group_name_H-M    P1
_symmetry_Int_Tables_number       1
_space_group_crystal_system       triclinic
_cell_length_a                    10.702615
_cell_length_b                    10.719211
_cell_length_c                    16.971284
_cell_angle_alpha                 98.839815
_cell_angle_beta                  99.372362
_cell_angle_gamma                 61.396267
_cell_volume                      1680.10526426

loop_
_atom_site_label
_atom_site_type_symbol
_atom_site_description
_atom_site_fract_x
_atom_site_fract_y
_atom_site_fract_z
_atom_type_partial_charge
O1    O     O_R   0.751220 0.499230 0.435170 -0.526317
O2    O     O_R   0.477220 0.727600 0.436870 -0.514848
C1    C     C_R   0.352496 0.776715 0.399411 0.551713
O3    O     O_R   0.258650 0.745120 0.411470 -0.517108
O4    O     O_R   0.297070 0.467240 0.395960 -0.504916
C2    C     C_R   0.370291 0.347064 0.358805 0.534370
O5    O     O_R   0.488830 0.252610 0.387790 -0.532596
O6    O     O_R   0.724400 0.302390 0.420980 -0.503010
C3    C     C_R   0.774268 0.377893 0.401054 0.552803
O7    O     O_R   0.752100 0.501210 0.612190 -0.508435
O8    O     O_R   0.478040 0.729440 0.600970 -0.508823
C4    C     C_R   0.359219 0.766095 0.628489 0.580277
O9    O     O_R   0.259530 0.747110 0.588490 -0.475129
O10   O     O_R   0.297880 0.469080 0.560050 -0.497826
C5    C     C_R   0.368695 0.346770 0.585731 0.554823
O11   O     O_R   0.489720 0.254590 0.564810 -0.516978
O12   O     O_R   0.725220 0.304230 0.585080 -0.488265
C6    C     C_R   0.771569 0.381196 0.630316 0.569416
Cr1   Cr    Cr6+3 0.608340 0.611040 0.520430 1.026060
Cr2   Cr    Cr6+3 0.287650 0.601120 0.489350 1.040441
Cr3   Cr    Cr6+3 0.604040 0.287870 0.490280 1.019560
O13   O     O_3   0.500010 0.500010 0.500020 -0.272715
C7    C     C_1   0.343624 0.336642 0.275036 -0.042219
C8    C     C_1   0.332684 0.325674 0.203880 -0.017952
C9    C     C_3   0.789076 0.244815 0.204142 0.275475
C10   C     C_3   0.692715 0.385933 0.249421 -0.088846
H1    H     H_    0.578081 0.423721 0.255438 0.114360
C11   C     C_3   0.812111 0.349741 0.319789 0.023214
C12   C     C_3   0.905840 0.206938 0.276010 -0.153290
C13   C     C_3   0.971851 0.285017 0.240178 -0.157573
C14   C     C_3   0.877022 0.427504 0.285556 -0.128174
C15   C     C_3   0.758968 0.463345 0.214264 -0.167194
C16   C     C_3   0.852347 0.322556 0.169401 0.065891
H2    H     H_    0.963242 0.106226 0.305888 0.105666
H3    H     H_    0.086762 0.246001 0.234209 0.115704
H4    H     H_    0.914718 0.501727 0.320568 0.133508
H5    H     H_    0.701428 0.565409 0.185686 0.138367
C17   C     C_3   0.430021 0.876830 0.240487 0.286755
C18   C     C_3   0.466098 0.733888 0.269998 -0.131491
H6    H     H_    0.570391 0.658980 0.298608 0.128516
C19   C     C_3   0.338528 0.816077 0.319854 0.018987
C20   C     C_3   0.304065 0.958475 0.291658 -0.142869
C21   C     C_3   0.206023 0.931169 0.221497 -0.158152
C22   C     C_3   0.239500 0.788985 0.250902 -0.120641
C23   C     C_3   0.366245 0.708635 0.199614 -0.169762
C24   C     C_3   0.333227 0.850283 0.170331 0.076501
H7    H     H_    0.276326 0.059907 0.330115 0.100944
H8    H     H_    0.100223 0.007987 0.196131 0.122054
H9    H     H_    0.157581 0.756235 0.256540 0.132233
H10   H     H_    0.392778 0.607371 0.161168 0.119645
C25   C     C_3   0.459741 0.270888 0.778709 -0.190129
C26   C     C_3   0.393407 0.411229 0.737077 -0.129810
H11   H     H_    0.445617 0.478408 0.734727 0.107864
H12   H     H_    0.567011 0.223560 0.813214 0.142619
C27   C     C_3   0.340890 0.336915 0.663775 -0.001045
C28   C     C_3   0.408203 0.197471 0.704071 -0.110348
C29   C     C_3   0.265099 0.253168 0.737823 0.187652
C30   C     C_3   0.196342 0.391462 0.696030 -0.096548
C31   C     C_3   0.250746 0.460136 0.770826 0.183827
C32   C     C_3   0.316269 0.323521 0.812972 0.025536
H13   H     H_    0.469919 0.088529 0.675064 0.153266
H14   H     H_    0.089261 0.438509 0.661317 0.155170
C33   C     C_1   0.811249 0.345537 0.710899 0.020135
C34   C     C_1   0.836395 0.318660 0.779406 0.020895
C35   C     C_1   0.342832 0.803720 0.711568 0.029085
C36   C     C_1   0.317367 0.831310 0.780194 0.057138
O14   O     O_R   0.171830 0.913880 0.057510 -0.537315
O15   O     O_R   0.940690 0.186050 0.054730 -0.529627
C37   C     C_R   0.892126 0.310117 0.090247 0.541936
O16   O     O_R   0.920470 0.405720 0.075010 -0.525125
O17   O     O_R   0.196690 0.370460 0.084120 -0.514880
C38   C     C_R   0.319483 0.298947 0.120266 0.558430
O18   O     O_R   0.412990 0.180750 0.091610 -0.478670
O19   O     O_R   0.366620 0.943130 0.065760 -0.492310
C39   C     C_R   0.296427 0.890595 0.088650 0.545099
O20   O     O_R   0.160510 0.906330 0.879210 -0.413415
O21   O     O_R   0.930190 0.179050 0.889450 -0.469900
C40   C     C_R   0.880132 0.301505 0.862138 0.569804
O22   O     O_R   0.909140 0.398170 0.896710 -0.498311
O23   O     O_R   0.186190 0.363460 0.918830 -0.441308
C41   C     C_R   0.307420 0.294083 0.891784 0.601651
O24   O     O_R   0.401670 0.173200 0.913310 -0.518353
O25   O     O_R   0.356120 0.936130 0.900470 -0.504699
C42   C     C_R   0.282184 0.880708 0.860265 0.611779
Cr4   Cr    Cr6+3 0.054020 0.052700 0.970850 1.084890
Cr5   Cr    Cr6+3 0.059230 0.375120 0.993390 1.078713
Cr6   Cr    Cr6+3 0.374950 0.061200 0.992340 1.053769
O26   O     O_3   0.162740 0.163010 0.985530 -0.263477
N1    N     N_R   0.192179 0.167529 0.733535 0.048533
O27   O     O_R   0.152658 0.119787 0.664047 -0.366951
O28   O     O_R   0.152445 0.151726 0.797796 -0.341712
N2    N     N_R   0.165078 0.604093 0.805945 0.074677
O29   O     O_R   0.095225 0.707917 0.759832 -0.321944
O30   O     O_R   0.153138 0.628887 0.882497 -0.336448
O31   O     O_3   0.726855 0.162732 0.158458 -0.554513
C43   C     C_3   0.831433 0.020325 0.142793 -0.020567
H15   H     H_    0.889626 0.970395 0.198984 0.100406
H16   H     H_    0.910142 0.013147 0.105456 0.184388
C44   C     C_3   0.759626 0.934574 0.096315 -0.329661
H17   H     H_    0.707239 0.978445 0.037725 0.163440
H18   H     H_    0.840745 0.821458 0.085438 0.095289
H19   H     H_    0.677660 0.939195 0.130639 0.220265
O32   O     O_3   0.535227 0.918069 0.235253 -0.559971
C45   C     C_3   0.608176 0.920454 0.312597 -0.009530
H20   H     H_    0.662521 0.813496 0.335994 0.125299
H21   H     H_    0.533263 0.998034 0.355677 0.161395
C46   C     C_3   0.723517 0.962697 0.309484 -0.344006
H22   H     H_    0.677290 0.064157 0.280938 0.218196
H23   H     H_    0.771096 0.977557 0.371177 0.114470
H24   H     H_    0.809044 0.875984 0.275358 0.122797

loop_
_geom_bond_atom_site_label_1
_geom_bond_atom_site_label_2
_geom_bond_distance
_ccdc_geom_bond_type
C22   H9    1.110602 S    
C30   H14   1.110335 S    
O25   Cr6   1.944953 S    
Cr6   O26   1.985623 S    
C10   C15   1.549417 S    
O11   Cr3   2.069979 S    
C19   C20   1.524088 S    
O31   C43   1.410622 S    
C27   C28   1.530861 S    
O20   C42   1.281166 A    
C45   H21   1.111124 S    
C41   O24   1.266474 A    
C18   C19   1.533505 S    
O4    Cr2   1.948369 S    
C14   C15   1.545335 S    
C23   C24   1.529129 S    
C26   H11   1.110735 S    
O8    Cr1   1.953674 S    
C10   H1    1.109955 S    
C17   O32   1.411514 S    
C29   N1    1.450526 S    
C13   H3    1.110304 S    
O4    C2    1.271168 A    
C11   C12   1.524598 S    
C17   C20   1.534739 S    
C14   H4    1.110320 S    
C13   C14   1.537770 S    
Cr5   O26   1.989403 S    
C6    C33   1.418742 S    
C5    O11   1.263583 A    
C43   C44   1.521124 S    
C28   C29   1.528210 S    
C25   C28   1.552347 S    
C24   C39   1.451477 S    
O23   Cr5   1.952419 S    
O18   Cr6   2.063710 S    
C44   H17   1.110811 S    
O6    C3    1.269157 A    
C43   H16   1.101765 S    
C46   H22   1.109489 S    
O19   Cr6   1.947108 S    
N1    O28   1.294506 A    
C21   H8    1.096796 S    
C13   C16   1.547901 S    
C26   C27   1.547403 S    
C16   C37   1.442381 S    
C18   C23   1.550505 S    
O21   Cr4   1.938884 S    
C31   C32   1.524186 S    
Cr3   O13   1.989503 S    
O15   Cr4   1.953918 S    
C46   H23   1.110697 S    
C20   H7    1.110051 S    
C45   H20   1.112037 S    
O6    Cr3   1.951540 S    
C9    C12   1.544066 S    
O14   Cr4   2.058949 S    
O1    Cr1   2.073981 S    
O19   C39   1.264821 A    
C25   C26   1.551448 S    
O10   Cr2   1.945690 S    
Cr1   O13   1.986057 S    
O1    C3    1.263170 A    
C38   O18   1.264267 A    
C18   H6    1.100699 S    
C40   O22   1.255439 A    
O15   C37   1.263304 A    
C29   C32   1.538684 S    
C30   C31   1.541007 S    
O21   C40   1.287490 A    
C12   H2    1.109831 S    
O12   Cr3   1.937200 S    
C5    C27   1.433719 S    
C21   C22   1.533938 S    
C12   C13   1.559460 S    
C26   C31   1.536321 S    
O17   Cr5   1.937350 S    
C32   C41   1.448142 S    
O25   C42   1.262670 A    
O7    Cr1   2.056003 S    
C7    C8    1.187168 T    
C43   H15   1.108161 S    
N2    O30   1.300112 A    
O12   C6    1.260669 A    
C15   H5    1.110001 S    
C44   H18   1.110613 S    
Cr2   O13   1.985136 S    
C9    O31   1.414898 S    
C46   H24   1.108977 S    
O14   C39   1.269716 A    
C20   C21   1.544190 S    
C1    O3    1.256735 A    
O16   Cr5   2.072636 S    
C22   C23   1.541113 S    
C8    C38   1.401496 S    
Cr4   O26   1.986605 S    
C1    C19   1.439550 S    
O9    Cr2   2.067641 S    
O2    Cr1   1.938822 S    
O10   C5    1.264862 A    
C34   C40   1.416761 S    
C11   C14   1.532889 S    
O23   C41   1.269789 A    
O8    C4    1.283870 A    
C2    O5    1.263538 A    
C4    C35   1.421073 S    
C10   C11   1.542817 S    
C25   H12   1.110409 S    
C15   C16   1.518746 S    
O2    C1    1.271523 A    
C9    C10   1.532785 S    
O17   C38   1.268236 A    
O5    Cr3   2.057757 S    
C29   C30   1.533225 S    
C17   C18   1.534286 S    
C23   H10   1.110011 S    
O7    C6    1.279493 A    
C2    C7    1.401645 S    
N2    O29   1.300161 A    
C19   C22   1.537306 S    
C31   N2    1.455231 S    
C45   C46   1.515083 S    
C37   O16   1.270329 A    
C21   C24   1.543584 S    
C17   C24   1.532376 S    
C36   C42   1.422466 S    
C33   C34   1.197485 T    
O3    Cr2   2.064118 S    
C44   H19   1.107843 S    
C4    O9    1.253045 A    
C35   C36   1.199393 T    
C27   C30   1.531730 S    
O32   C45   1.417117 S    
C28   H13   1.110403 S    
C25   C32   1.541031 S    
N1    O27   1.300334 A    
O20   Cr4   2.072342 S    
O22   Cr5   2.054197 S    
O24   Cr6   2.066542 S    
C3    C11   1.447138 S    
C9    C16   1.523797 S    
