data_mof_unit_40572.cif
_audit_creation_date              2013-03-05T16:19:34-0500
_audit_creation_method            fapswitch 2.2
_symmetry_space_group_name_H-M    P1
_symmetry_Int_Tables_number       1
_space_group_crystal_system       triclinic
_cell_length_a                    8.381165
_cell_length_b                    19.142852
_cell_length_c                    26.841719
_cell_angle_alpha                 99.086604
_cell_angle_beta                  92.88471
_cell_angle_gamma                 88.000471
_cell_volume                      4245.45251897

loop_
_atom_site_label
_atom_site_type_symbol
_atom_site_description
_atom_site_fract_x
_atom_site_fract_y
_atom_site_fract_z
_atom_type_partial_charge
P1    P     P_3+3 0.926760 0.336170 0.451740 0.486789
O1    O     O_2   0.103290 0.325410 0.465600 -0.369539
O2    O     O_3   0.857760 0.414170 0.470020 -0.390353
O3    O     O_3   0.374170 0.371120 0.556000 -0.397682
O4    O     O_2   0.253302 0.248807 0.526481 -0.440462
O5    O     O_3   0.917356 0.319990 0.385721 -0.553269
O6    O     O_3   0.395192 0.262954 0.617677 -0.526358
H1    H     H_    0.253951 0.350333 0.638403 0.135747
C1    C     C_3   0.361108 0.312949 0.704751 -0.902994
H2    H     H_    0.314412 0.361031 0.728795 0.248681
H3    H     H_    0.282754 0.268433 0.707422 0.271774
P2    P     P_3+3 0.399470 0.558680 0.614150 0.477017
P3    P     P_3+3 0.963404 0.414691 0.648700 0.489825
O7    O     O_2   0.227790 0.537410 0.620340 -0.375229
O8    O     O_3   0.969630 0.407570 0.582610 -0.395033
O9    O     O_2   0.107744 0.458972 0.671189 -0.335687
O10   O     O_3   0.393402 0.651084 0.629334 -0.562991
O11   O     O_3   0.008116 0.332816 0.669665 -0.591322
C2    C     C_3   0.951712 0.276012 0.634010 0.837925
H4    H     H_    0.981339 0.281652 0.594898 0.025421
C3    C     C_3   0.029937 0.205964 0.644454 -1.020327
H5    H     H_    0.156245 0.202211 0.634255 0.266690
H6    H     H_    0.023380 0.200824 0.684941 0.285488
C4    C     C_3   0.883943 0.631117 0.640585 0.194270
H7    H     H_    0.756465 0.622579 0.646462 0.105543
H8    H     H_    0.939110 0.581411 0.621099 0.138692
C5    C     C_3   0.972422 0.652851 0.691722 0.008289
H9    H     H_    0.937208 0.708115 0.707496 0.157536
H10   H     H_    0.103312 0.650645 0.686738 0.161944
Ba1   Ba    Ba6+2 0.160260 0.465850 0.521400 1.583316
C6    C     C_3   0.984441 0.375466 0.366629 0.410311
H11   H     H_    0.100064 0.390337 0.386476 0.110797
H12   H     H_    0.900719 0.422000 0.370639 0.104744
C7    C     C_3   0.012388 0.350562 0.310905 -0.918498
H13   H     H_    0.080427 0.299286 0.306153 0.273127
H14   H     H_    0.082595 0.389223 0.295268 0.230724
H15   H     H_    0.896038 0.343567 0.289278 0.255147
C8    C     C_3   0.330356 0.680596 0.587910 0.448317
H16   H     H_    0.208320 0.661614 0.577931 0.068135
H17   H     H_    0.406730 0.666823 0.554979 0.145799
C9    C     C_3   0.323375 0.760718 0.602280 -0.996499
H18   H     H_    0.242115 0.776212 0.633830 0.264320
H19   H     H_    0.278493 0.785659 0.569567 0.216433
H20   H     H_    0.444721 0.780419 0.614116 0.275105
P4    P     P_3+3 0.883550 0.663840 0.548300 0.484108
O12   O     O_2   0.707020 0.674640 0.534420 -0.337648
O13   O     O_3   0.952550 0.585840 0.530020 -0.405737
O14   O     O_3   0.436140 0.628890 0.444040 -0.387735
O15   O     O_3   0.892600 0.688256 0.614111 -0.595391
P5    P     P_3+3 0.841722 0.582549 0.351256 0.462329
O16   O     O_3   0.350480 0.462320 0.439870 -0.392192
O17   O     O_3   0.840680 0.592440 0.417430 -0.355210
O18   O     O_2   0.689010 0.543637 0.330872 -0.402918
O19   O     O_3   0.805307 0.663557 0.329848 -0.543296
Ba2   Ba    Ba6+2 0.649930 0.534160 0.478640 1.580699
P6    P     P_3+3 0.401845 0.281314 0.555766 0.460521
C10   C     C_3   0.366311 0.326518 0.650436 0.578721
H21   H     H_    0.457543 0.366315 0.649468 0.097632
H22   H     H_    0.482875 0.300324 0.719512 0.270469
O20   O     O_3   0.459840 0.537690 0.560170 -0.394066
C11   C     C_3   0.452586 0.314809 0.383920 0.222351
H23   H     H_    0.583140 0.323631 0.389270 0.125361
H24   H     H_    0.395402 0.325454 0.420965 0.118945
C12   C     C_3   0.425579 0.237952 0.360644 -0.019026
H25   H     H_    0.473532 0.227410 0.322263 0.172662
H26   H     H_    0.295513 0.227724 0.357553 0.151098
P7    P     P_3+3 0.399218 0.446916 0.376172 0.461796
O21   O     O_2   0.582520 0.462630 0.379680 -0.347909
O22   O     O_3   0.383289 0.357537 0.350329 -0.586492
H27   H     H_    0.968318 0.160844 0.621004 0.231996
C13   C     C_3   0.916752 0.713881 0.351352 0.991088
H28   H     H_    0.006822 0.694288 0.378001 -0.064242
C14   C     C_3   0.002439 0.739089 0.309078 -0.975715
H29   H     H_    0.088357 0.780439 0.325204 0.229962
H30   H     H_    0.067941 0.693967 0.287186 0.253314
H31   H     H_    0.914983 0.761610 0.283006 0.288388
P8    P     P_3+3 0.399520 0.718366 0.443429 0.448786
C15   C     C_3   0.406721 0.689789 0.347322 0.479367
H32   H     H_    0.278151 0.679410 0.349839 -0.014305
O23   O     O_2   0.516978 0.753535 0.484962 -0.397065
O24   O     O_3   0.460730 0.741492 0.387084 -0.457459
H33   H     H_    0.476613 0.639786 0.348139 0.147760
H34   H     H_    0.386868 0.673730 0.265610 0.215429
C16   C     C_3   0.429135 0.714679 0.297091 -0.866838
H35   H     H_    0.556996 0.724178 0.292618 0.299885
H36   H     H_    0.359752 0.764704 0.295192 0.254017
C17   C     C_R   0.956291 0.800634 0.524074 -0.330311
H37   H     H_    0.879160 0.821825 0.554231 0.149902
C18   C     C_R   0.987620 0.726675 0.515750 0.361484
C19   C     C_R   0.128712 0.812429 0.456743 -0.233986
H38   H     H_    0.165164 0.836975 0.425786 0.149380
C20   C     C_R   0.194172 0.745033 0.460764 0.175050
C21   C     C_R   0.664941 0.185662 0.536527 -0.340030
H39   H     H_    0.635661 0.167442 0.570792 0.183191
C22   C     C_R   0.588425 0.248373 0.526119 0.420288
C23   C     C_R   0.856822 0.196889 0.475024 -0.175585
H40   H     H_    0.948459 0.176845 0.449212 0.157784
C24   C     C_R   0.812879 0.269971 0.478872 0.279929
C25   C     C_R   0.015947 0.845384 0.491444 0.131577
C26   C     C_R   0.112104 0.700202 0.485466 -0.434329
H41   H     H_    0.153346 0.645793 0.484188 0.146411
C27   C     C_R   0.787262 0.152186 0.506284 0.077400
C28   C     C_R   0.669759 0.292823 0.500695 -0.380416
H42   H     H_    0.623023 0.345805 0.498774 0.149156
C29   C     C_R   0.218473 0.967325 0.470320 -0.191110
C30   C     C_R   0.310019 0.021822 0.459637 -0.067398
C31   C     C_R   0.265753 0.090814 0.477809 -0.051881
C32   C     C_R   0.121752 0.104383 0.501144 -0.200785
C33   C     C_R   0.006362 0.052588 0.497528 0.064556
C34   C     C_R   0.060072 0.979842 0.486742 0.101456
C35   C     C_R   0.845316 0.073815 0.508188 -0.041804
C36   C     C_R   0.744441 0.018110 0.517270 0.102511
C37   C     C_R   0.797365 0.945001 0.506412 0.053904
C38   C     C_R   0.957565 0.923946 0.493489 -0.033892
C39   C     C_R   0.590760 0.030948 0.537530 -0.153984
C40   C     C_R   0.502411 0.977217 0.550712 -0.129013
C41   C     C_R   0.544506 0.907991 0.533292 -0.137740
C42   C     C_R   0.682881 0.893111 0.506950 -0.079850
H43   H     H_    0.282266 0.918020 0.468272 0.138983
H44   H     H_    0.426178 0.010251 0.443858 0.167449
H45   H     H_    0.347464 0.132789 0.476581 0.189878
H46   H     H_    0.096401 0.155614 0.521823 0.180158
H47   H     H_    0.525880 0.079648 0.541376 0.131751
H48   H     H_    0.389507 0.989425 0.568550 0.142945
H49   H     H_    0.464636 0.866740 0.537983 0.161010
H50   H     H_    0.702841 0.840373 0.487761 0.220689
C43   C     C_R   0.323598 0.456689 0.178618 0.529126
O25   O     O_2   0.376459 0.412800 0.204085 -0.584450
N1    N     N_R   0.224141 0.511819 0.199678 -0.164908
C44   C     C_R   0.156768 0.558998 0.169750 0.528993
C45   C     C_2   0.041271 0.530145 0.269698 -0.195490
C46   C     C_3   0.011879 0.527306 0.324638 0.153389
C47   C     C_1   0.291248 0.505286 0.338207 0.303369
C48   C     C_2   0.325967 0.511151 0.291568 -0.230941
C49   C     C_2   0.192409 0.519637 0.253216 0.114873
C50   C     C_R   0.289141 0.495448 0.096623 -0.079470
C51   C     C_R   0.363151 0.449949 0.127702 -0.052299
C52   C     C_R   0.474663 0.398330 0.107175 -0.073899
C53   C     C_R   0.183822 0.549862 0.117572 -0.058079
C54   C     C_2   0.162549 0.537428 0.357411 -0.507252
H51   H     H_    0.448361 0.506290 0.280244 0.193344
H52   H     H_    0.532451 0.362053 0.130021 0.168363
C55   C     C_2   0.652959 0.479867 0.638492 -0.479110
C56   C     C_R   0.493394 0.439259 0.975590 0.061282
C57   C     C_R   0.253852 0.511845 0.958886 -0.126049
C58   C     C_R   0.394328 0.473693 0.941925 0.077418
C59   C     C_R   0.639771 0.407897 0.958612 -0.153575
C60   C     C_R   0.688035 0.411702 0.910291 0.007052
C61   C     C_R   0.588339 0.443451 0.876248 -0.050380
C62   C     C_R   0.437647 0.470712 0.891150 -0.066234
C63   C     C_R   0.331736 0.495806 0.855550 -0.119789
C64   C     C_R   0.375152 0.489528 0.804748 0.559484
N2    N     N_R   0.531180 0.470470 0.791232 -0.167578
C65   C     C_R   0.639103 0.450807 0.828222 0.578937
C66   C     C_2   0.712765 0.438047 0.719957 -0.120144
C67   C     C_3   0.782551 0.462801 0.675394 0.348622
C68   C     C_1   0.526791 0.515611 0.657793 0.236865
C69   C     C_2   0.495275 0.522128 0.706532 -0.131857
C70   C     C_2   0.582225 0.474729 0.739940 0.061118
O26   O     O_2   0.781132 0.442036 0.820392 -0.571536
C71   C     C_R   0.445034 0.439080 0.025448 0.053247
C72   C     C_R   0.321925 0.486883 0.044508 0.090718
C73   C     C_R   0.233830 0.527242 0.012056 0.072115
C74   C     C_R   0.517542 0.393954 0.057315 -0.207574
H53   H     H_    0.773926 0.395865 0.736393 0.198856
H54   H     H_    0.804426 0.389516 0.899634 0.157882
H55   H     H_    0.724027 0.384026 0.983093 0.130081
H56   H     H_    0.604313 0.353143 0.043999 0.130281
O27   O     O_2   0.074604 0.609340 0.188581 -0.595098
C75   C     C_R   0.111906 0.595206 0.086138 -0.091315
H57   H     H_    0.939728 0.532275 0.243198 0.175905
H58   H     H_    0.035056 0.639281 0.101374 0.176364
C76   C     C_R   0.141829 0.533002 0.921824 0.283984
C77   C     C_R   0.182567 0.524573 0.871022 -0.112730
O28   O     O_2   0.272841 0.500613 0.772739 -0.534671
C78   C     C_R   0.136779 0.584209 0.034419 -0.095505
H59   H     H_    0.095925 0.540514 0.843340 0.245309
H60   H     H_    0.422693 0.567040 0.723120 0.183839
H61   H     H_    0.083301 0.622436 0.012554 0.161946
H62   H     H_    0.161550 0.562207 0.396681 0.163921
H63   H     H_    0.648507 0.451586 0.600078 0.203911
Cl1   Cl    Cl    0.928834 0.598796 0.737119 -0.595013
Cl2   Cl    Cl    0.522482 0.178467 0.397662 -0.701715
Cl3   Cl    Cl    0.809162 0.787192 0.384290 -0.629662
N3    N     N_R   0.780271 0.273345 0.637087 0.198929
O29   O     O_R   0.717775 0.238904 0.669079 -0.408346
O30   O     O_R   0.694877 0.320865 0.618036 -0.538534
N4    N     N_R   0.980299 0.555149 0.933383 0.231652
O31   O     O_R   0.901855 0.523197 0.963389 -0.417982
O32   O     O_R   0.903706 0.600005 0.908507 -0.359823

loop_
_geom_bond_atom_site_label_1
_geom_bond_atom_site_label_2
_geom_bond_distance
_ccdc_geom_bond_type
Ba1   Ba2   4.603562 S    
O14   Ba2   2.738475 S    
C29   C34   1.420392 A    
P8    C20   1.839401 S    
C21   H39   1.076015 S    
C23   C27   1.444654 A    
C56   C71   1.418232 A    
C5    H10   1.110342 S    
C7    H15   1.110592 S    
C60   H54   1.083779 S    
C9    H18   1.110674 S    
O4    P6    1.534965 D    
C35   C36   1.441210 A    
C4    C5    1.531596 S    
C17   H37   1.080910 S    
C25   C38   1.558654 S    
C57   C58   1.419772 A    
C19   H38   1.078641 S    
C55   C67   1.495544 S    
C76   N4    1.438560 S    
C75   C78   1.395964 A    
C76   C77   1.405557 A    
C40   C41   1.373858 A    
C45   H57   1.085223 S    
C68   C69   1.333308 D    
P3    O11   1.769166 S    
H34   C16   1.110857 S    
C55   H63   1.085753 S    
C5    H9    1.111230 S    
P7    C47   1.817169 S    
Ba1   O16   2.762660 S    
C4    H8    1.108681 S    
C7    H13   1.110693 S    
C45   C49   1.360611 D    
C33   C35   1.425721 A    
C8    H16   1.103413 S    
P5    C46   1.849660 S    
N3    O30   1.290666 A    
C61   C62   1.402261 A    
C30   C31   1.378527 A    
C44   C53   1.412583 A    
P6    C22   1.836886 S    
C24   C28   1.387984 A    
C32   C33   1.398161 A    
C53   C75   1.404365 A    
N4    O32   1.301808 A    
P1    O1    1.522291 D    
C14   H29   1.110248 S    
C11   H24   1.112250 S    
C26   H41   1.081786 S    
C58   C62   1.419977 A    
C64   O28   1.220333 D    
O2    Ba2   2.820830 S    
C78   H61   1.080323 S    
O19   C13   1.402320 S    
C59   C60   1.391386 A    
C23   C24   1.423293 A    
O12   Ba2   2.906601 S    
P5    O17   1.756740 S    
C63   C64   1.414703 A    
C6    H12   1.109583 S    
C43   O25   1.222447 D    
P4    O15   1.752957 S    
P2    C68   1.818962 S    
P4    C18   1.858164 S    
C1    H2    1.108837 S    
C34   C38   1.434175 A    
C7    H14   1.106121 S    
O17   Ba2   2.732712 S    
C30   H44   1.083083 S    
O5    C6    1.396092 S    
C21   C22   1.401635 A    
C63   C77   1.403821 A    
N1    C49   1.458086 S    
Ba2   O20   2.761991 S    
O3    P6    1.725754 S    
C9    H19   1.107752 S    
C27   C35   1.568725 S    
O6    P6    1.755948 S    
O7    Ba1   2.829036 S    
C56   C59   1.411253 A    
C73   C78   1.411252 A    
C36   C37   1.442622 A    
C22   C28   1.387513 A    
C55   C68   1.321901 D    
C17   C25   1.435935 A    
P4    O13   1.594225 S    
P5    O18   1.536120 D    
C39   H47   1.056082 S    
C18   C26   1.387255 A    
C66   C70   1.365391 D    
P7    O21   1.571075 D    
Ba1   O13   2.820235 S    
C74   H56   1.079487 S    
C4    H7    1.109230 S    
C8    C9    1.521126 S    
C56   C58   1.419455 A    
C52   H52   1.083516 S    
C32   H46   1.067897 S    
C13   C14   1.521619 S    
Ba2   O21   2.829126 S    
C15   H32   1.109819 S    
O11   C2    1.408356 S    
C50   C72   1.422060 A    
C57   C73   1.428168 A    
O16   Ba2   2.966298 S    
P4    O12   1.522512 D    
C50   C53   1.407527 A    
P1    O5    1.748327 S    
Ba1   O20   2.967219 S    
N4    O31   1.300780 A    
P7    O22   1.748763 S    
C12   H26   1.110950 S    
O14   P8    1.732031 S    
N2    C70   1.477261 S    
O2    Ba1   2.949681 S    
C61   C65   1.406905 A    
C43   N1    1.387701 Am   
P3    C67   1.860799 S    
C65   O26   1.220422 D    
H1    C10   1.088543 S    
C15   H33   1.107263 S    
C19   C20   1.402058 A    
C6    H11   1.106027 S    
P8    O24   1.746977 S    
C31   C32   1.385366 A    
C23   H40   1.079887 S    
C6    C7    1.523660 S    
C12   Cl2   1.776290 S    
P5    O19   1.748975 S    
C16   H35   1.108741 S    
C1    H3    1.107095 S    
C77   H59   1.083684 S    
C37   C38   1.431952 A    
C59   H55   1.079299 S    
C48   H51   1.081253 S    
P2    O7    1.532995 D    
P3    O8    1.760885 S    
C69   C70   1.517758 S    
C47   C48   1.322048 D    
C14   H31   1.111065 S    
C46   C54   1.502489 S    
C14   H30   1.109872 S    
C45   C46   1.516960 S    
C19   C25   1.421323 A    
C66   C67   1.505386 S    
C71   C74   1.411255 A    
C20   C26   1.384203 A    
O8    Ba1   2.732080 S    
O13   Ba2   2.950535 S    
N1    C44   1.388435 Am   
C51   C52   1.403176 A    
P8    O23   1.537500 D    
C11   O22   1.402287 S    
C4    O15   1.401012 S    
C40   H48   1.083567 S    
P2    Ba1   3.424051 S    
C13   Cl3   1.778858 S    
C29   H43   1.063508 S    
C57   C76   1.428941 A    
C50   C51   1.406752 A    
C21   C27   1.412182 A    
C48   C49   1.504418 S    
C42   H50   1.070116 S    
C72   C73   1.417344 A    
C43   C51   1.407580 A    
C29   C30   1.389877 A    
N3    O29   1.301793 A    
C3    H27   1.111579 S    
O1    Ba1   2.905972 S    
C12   H25   1.110824 S    
C2    H4    1.113251 S    
C3    H6    1.110814 S    
C69   H60   1.085051 S    
P1    C24   1.868980 S    
C13   H28   1.110340 S    
C71   C72   1.415304 A    
C41   C42   1.386337 A    
C2    N3    1.446526 S    
C11   C12   1.524741 S    
C8    H17   1.110019 S    
C15   O24   1.404477 S    
C10   H21   1.102098 S    
O16   P7    1.754921 S    
C75   H58   1.083322 S    
C66   H53   1.081797 S    
C9    H20   1.110807 S    
P1    Ba1   3.463111 S    
C54   H62   1.085726 S    
C1    C10   1.523707 S    
O10   C8    1.397552 S    
C11   H23   1.111678 S    
C5    Cl1   1.777213 S    
C37   C42   1.407118 A    
P2    O20   1.546781 S    
C15   C16   1.521468 S    
P2    O10   1.750918 S    
C64   N2    1.395517 Am   
P4    Ba2   3.463677 S    
C47   C54   1.310438 D    
P3    O9    1.543642 D    
C33   C34   1.437960 A    
C28   H42   1.082346 S    
C17   C18   1.415401 A    
C31   H45   1.079251 S    
C62   C63   1.400599 A    
C16   H36   1.109667 S    
C52   C74   1.392188 A    
C44   O27   1.221984 D    
P1    O2    1.594227 S    
N2    C65   1.396261 Am   
C3    H5    1.103812 S    
C41   H49   1.079040 S    
C1    H22   1.108705 S    
C60   C61   1.402004 A    
O6    C10   1.405444 S    
C36   C39   1.421745 A    
O3    Ba1   2.739092 S    
C39   C40   1.387762 A    
C2    C3    1.531457 S    
