data_mof_unit_43231.cif
_audit_creation_date              2012-12-11T14:38:24-0500
_audit_creation_method            fapswitch 2.2
_symmetry_space_group_name_H-M    P1
_symmetry_Int_Tables_number       1
_space_group_crystal_system       monoclinic
_cell_length_a                    19.481331
_cell_length_b                    11.157806
_cell_length_c                    19.648533
_cell_angle_alpha                 90.0
_cell_angle_beta                  96.906208
_cell_angle_gamma                 90.0
_cell_volume                      4239.99137002

loop_
_atom_site_label
_atom_site_type_symbol
_atom_type_description
_atom_site_fract_x
_atom_site_fract_y
_atom_site_fract_z
_atom_type_partial_charge
C1    C     C_R   0.725934 0.948716 0.358814 0.544150
C2    C     C_3   0.194443 0.479715 0.474381 -0.233370
C3    C     C_3   0.118379 0.676226 0.924274 -0.392212
C4    C     C_3   0.559918 0.977845 0.926417 -0.376712
C5    C     C_3   0.440083 0.977845 0.073583 -0.376712
C6    C     C_3   0.059917 0.477845 0.926417 -0.376712
C7    C     C_3   0.940082 0.477845 0.073583 -0.376712
C8    C     C_3   0.629196 0.363911 0.589372 -0.421660
C9    C     C_3   0.370804 0.363911 0.410628 -0.421657
C10   C     C_3   0.129196 0.863912 0.589372 -0.421660
C11   C     C_3   0.870804 0.863906 0.410628 -0.421655
C12   C     C_3   0.847686 0.220848 0.599428 -0.399020
C13   C     C_3   0.305557 0.979715 0.525619 -0.233371
C14   C     C_3   0.152314 0.220848 0.400572 -0.399020
C15   C     C_3   0.347686 0.720848 0.599428 -0.399020
C16   C     C_3   0.652313 0.720848 0.400572 -0.399020
C17   C     C_3   0.694443 0.979714 0.474381 -0.233370
C18   C     C_3   0.779926 0.269776 0.559646 -0.122698
C19   C     C_3   0.220073 0.269776 0.440354 -0.122699
C20   C     C_3   0.279927 0.769776 0.559646 -0.122698
C21   C     C_3   0.720073 0.769776 0.440354 -0.122698
C22   C     C_3   0.759120 0.404480 0.570331 0.097205
C23   C     C_3   0.240879 0.404480 0.429669 0.097206
C24   C     C_3   0.259120 0.904480 0.570331 0.097205
C25   C     C_R   0.274066 0.948717 0.641185 0.544154
C26   C     C_3   0.740879 0.904480 0.429669 0.097205
C27   C     C_3   0.736934 0.347597 0.440220 0.032351
C28   C     C_3   0.263066 0.347598 0.559780 0.032350
C29   C     C_3   0.236934 0.847597 0.440220 0.032351
C30   C     C_3   0.763066 0.847598 0.559780 0.032350
C31   C     C_3   0.777416 0.466240 0.449427 -0.251537
C32   C     C_3   0.222583 0.466241 0.550573 -0.251537
C33   C     C_3   0.277416 0.966240 0.449427 -0.251536
C34   C     C_3   0.722583 0.966240 0.550573 -0.251537
C35   C     C_3   0.782853 0.252433 0.481913 -0.222404
C36   C     C_R   0.225934 0.448716 0.358814 0.544153
C37   C     C_3   0.217146 0.252434 0.518087 -0.222404
C38   C     C_3   0.282854 0.752434 0.481913 -0.222404
C39   C     C_3   0.717147 0.752434 0.518087 -0.222404
C40   C     C_3   0.489049 0.303591 0.962391 -0.250091
C41   C     C_3   0.510951 0.303591 0.037609 -0.250091
C42   C     C_3   0.989049 0.803591 0.962391 -0.250092
C43   C     C_3   0.010951 0.803591 0.037609 -0.250091
C44   C     C_3   0.427692 0.107430 0.966479 -0.185702
C45   C     C_3   0.572308 0.107430 0.033521 -0.185702
C46   C     C_3   0.927692 0.607430 0.966479 -0.185702
C47   C     C_R   0.774066 0.448717 0.641185 0.544153
C48   C     C_3   0.072308 0.607430 0.033521 -0.185702
C49   C     C_3   0.558841 0.108449 0.953699 -0.001406
C50   C     C_3   0.441159 0.108449 0.046301 -0.001406
C51   C     C_3   0.058841 0.608449 0.953699 -0.001406
C52   C     C_3   0.941159 0.608449 0.046301 -0.001406
C53   C     C_R   0.536321 0.180215 0.338652 0.528560
C54   C     C_R   0.463678 0.180215 0.661348 0.528560
C55   C     C_R   0.036321 0.680215 0.338652 0.528560
C56   C     C_R   0.963678 0.680215 0.661348 0.528560
C57   C     C_3   0.487082 0.172799 0.933663 0.071956
C58   C     C_3   0.667071 0.360824 0.470143 -0.235386
C59   C     C_3   0.512918 0.172799 0.066337 0.071956
C60   C     C_3   0.987082 0.672799 0.933663 0.071956
C61   C     C_3   0.012918 0.672799 0.066337 0.071956
C62   C     C_1   0.761831 0.426728 0.904218 -0.018653
C63   C     C_1   0.238168 0.426727 0.095782 -0.018654
C64   C     C_1   0.261831 0.926728 0.904218 -0.018653
C65   C     C_1   0.738169 0.926727 0.095782 -0.018654
C66   C     C_1   0.746789 0.404938 0.034015 -0.071530
C67   C     C_1   0.253211 0.404938 0.965985 -0.071530
C68   C     C_1   0.246789 0.904938 0.034015 -0.071530
C69   C     C_3   0.332929 0.360824 0.529856 -0.235386
C70   C     C_1   0.753211 0.904938 0.965985 -0.071530
C71   C     C_1   0.753250 0.414943 0.963528 -0.064773
C72   C     C_1   0.246750 0.414943 0.036472 -0.064773
C73   C     C_1   0.253250 0.914943 0.963528 -0.064773
C74   C     C_1   0.746750 0.914943 0.036472 -0.064773
C75   C     C_1   0.742498 0.390816 0.094121 -0.025022
C76   C     C_1   0.257502 0.390816 0.905879 -0.025022
C77   C     C_1   0.242498 0.890816 0.094121 -0.025022
C78   C     C_1   0.757502 0.890816 0.905879 -0.025022
C79   C     C_R   0.725455 0.312728 0.367414 0.555976
C80   C     C_3   0.167071 0.860823 0.470144 -0.235387
C81   C     C_R   0.274545 0.312728 0.632586 0.555975
C82   C     C_R   0.225455 0.812728 0.367414 0.555975
C83   C     C_R   0.774545 0.812728 0.632586 0.555975
C84   C     C_R   0.722277 0.954092 0.163334 0.538545
C85   C     C_R   0.277723 0.954092 0.836666 0.538547
C86   C     C_R   0.222277 0.454092 0.163334 0.538546
C87   C     C_R   0.777723 0.454092 0.836666 0.538547
C88   C     C_R   0.533463 0.179384 0.140440 0.539840
C89   C     C_R   0.466537 0.179384 0.859559 0.539840
C90   C     C_R   0.033463 0.679384 0.140440 0.539840
C91   C     C_3   0.832929 0.860825 0.529857 -0.235384
C92   C     C_R   0.966537 0.679384 0.859559 0.539840
C93   C     C_R   0.735806 0.357770 0.163414 0.551677
C94   C     C_R   0.264194 0.357769 0.836586 0.551678
C95   C     C_R   0.235806 0.857770 0.163414 0.551677
C96   C     C_R   0.764194 0.857769 0.836586 0.551678
C97   C     C_1   0.485032 0.171749 0.594244 -0.036867
C98   C     C_1   0.514968 0.171749 0.405756 -0.036867
C99   C     C_1   0.985032 0.671749 0.594244 -0.036866
C100  C     C_1   0.014968 0.671750 0.405756 -0.036867
C101  C     C_1   0.504556 0.167477 0.464930 -0.077242
C102  C     C_3   0.805557 0.479714 0.525619 -0.233370
C103  C     C_1   0.495444 0.167477 0.535070 -0.077242
C104  C     C_1   0.004556 0.667478 0.464930 -0.077243
C105  C     C_1   0.995444 0.667478 0.535070 -0.077242
C106  C     C_3   0.679831 0.416942 0.542571 -0.136072
C107  C     C_3   0.320169 0.416942 0.457429 -0.136072
C108  C     C_3   0.179831 0.916942 0.542571 -0.136072
C109  C     C_3   0.820169 0.916941 0.457428 -0.136071
C110  C     C_3   0.381621 0.176226 0.075726 -0.392212
C111  C     C_3   0.618379 0.176227 0.924274 -0.392212
C112  C     C_3   0.881621 0.676226 0.075726 -0.392212
Cr1   Cr    Cr6+3 0.765780 0.160710 0.267420 1.001919
Cr2   Cr    Cr6+3 0.383970 0.323720 0.751490 1.000719
Cr3   Cr    Cr6+3 0.116030 0.823720 0.248510 1.000719
Cr4   Cr    Cr6+3 0.883970 0.823720 0.751490 1.000719
Cr5   Cr    Cr6+3 0.234220 0.160710 0.732580 1.001918
Cr6   Cr    Cr6+3 0.265780 0.660710 0.267420 1.001918
Cr7   Cr    Cr6+3 0.734220 0.660710 0.732580 1.001918
Cr8   Cr    Cr6+3 0.612200 0.009560 0.248850 0.992898
Cr9   Cr    Cr6+3 0.387800 0.009560 0.751150 0.992898
Cr10  Cr    Cr6+3 0.112200 0.509560 0.248850 0.992898
Cr11  Cr    Cr6+3 0.887800 0.509560 0.751150 0.992898
Cr12  Cr    Cr6+3 0.616030 0.323720 0.248510 1.000719
H1    H     H_    0.665882 0.512640 0.537588 0.139483
H2    H     H_    0.140960 0.443368 0.467867 0.136889
H3    H     H_    0.762352 0.715324 0.424395 0.131165
H4    H     H_    0.770380 0.162914 0.465273 0.104690
H5    H     H_    0.229620 0.162915 0.534727 0.104690
H6    H     H_    0.270380 0.662914 0.465273 0.104690
H7    H     H_    0.729621 0.662914 0.534727 0.104689
H8    H     H_    0.359040 0.943367 0.532132 0.136889
H9    H     H_    0.640960 0.943367 0.467867 0.136889
H10   H     H_    0.821006 0.470730 0.417731 0.142485
H11   H     H_    0.178994 0.470732 0.582269 0.142485
H12   H     H_    0.321006 0.970731 0.417731 0.142486
H13   H     H_    0.678993 0.970730 0.582268 0.142486
H14   H     H_    0.436643 0.345129 0.953026 0.144465
H15   H     H_    0.563356 0.345130 0.046974 0.144465
H16   H     H_    0.936643 0.845129 0.953026 0.144465
H17   H     H_    0.334118 0.512639 0.462411 0.139482
H18   H     H_    0.063357 0.845129 0.046974 0.144465
H19   H     H_    0.377535 0.152071 0.948562 0.112559
H20   H     H_    0.622465 0.152072 0.051438 0.112559
H21   H     H_    0.877535 0.652071 0.948562 0.112559
H22   H     H_    0.122465 0.652071 0.051438 0.112559
H23   H     H_    0.579626 0.014688 0.053504 0.140083
H24   H     H_    0.420374 0.014687 0.946496 0.140083
H25   H     H_    0.079626 0.514687 0.053504 0.140083
H26   H     H_    0.920374 0.514687 0.946496 0.140083
H27   H     H_    0.642890 0.270919 0.471877 0.121275
H28   H     H_    0.165882 0.012639 0.537588 0.139482
H29   H     H_    0.357110 0.270919 0.528123 0.121275
H30   H     H_    0.142890 0.770918 0.471878 0.121275
H31   H     H_    0.857111 0.770921 0.528124 0.121274
H32   H     H_    0.630219 0.418214 0.437043 0.135723
H33   H     H_    0.369781 0.418215 0.562957 0.135722
H34   H     H_    0.130219 0.918213 0.437043 0.135723
H35   H     H_    0.869780 0.918218 0.562957 0.135721
H36   H     H_    0.317440 0.072394 0.541866 0.090629
H37   H     H_    0.682560 0.072394 0.458133 0.090629
H38   H     H_    0.817440 0.572393 0.541866 0.090629
H39   H     H_    0.834119 0.012638 0.462409 0.139483
H40   H     H_    0.182560 0.572394 0.458133 0.090629
H41   H     H_    0.240783 0.036787 0.432638 0.129320
H42   H     H_    0.759216 0.036788 0.567362 0.129320
H43   H     H_    0.740783 0.536787 0.432638 0.129320
H44   H     H_    0.259217 0.536788 0.567362 0.129320
H45   H     H_    0.524287 0.362758 0.936950 0.141209
H46   H     H_    0.475712 0.362758 0.063050 0.141208
H47   H     H_    0.024287 0.862758 0.936950 0.141209
H48   H     H_    0.975713 0.862758 0.063050 0.141208
H49   H     H_    0.392034 0.184655 0.132349 0.135742
H50   H     H_    0.837268 0.262043 0.470340 0.143557
H51   H     H_    0.373725 0.267101 0.053426 0.132076
H52   H     H_    0.331935 0.127476 0.063479 0.142135
H53   H     H_    0.607966 0.184654 0.867651 0.135742
H54   H     H_    0.626274 0.267103 0.946574 0.132076
H55   H     H_    0.668065 0.127478 0.936522 0.142135
H56   H     H_    0.892034 0.684654 0.132349 0.135742
H57   H     H_    0.873726 0.767102 0.053426 0.132076
H58   H     H_    0.831935 0.627477 0.063478 0.142135
H59   H     H_    0.107966 0.684654 0.867651 0.135742
H60   H     H_    0.126274 0.767102 0.946574 0.132076
H61   H     H_    0.162732 0.262044 0.529660 0.143558
H62   H     H_    0.168065 0.627477 0.936522 0.142135
H63   H     H_    0.518809 0.921488 0.944025 0.123103
H64   H     H_    0.555075 0.975525 0.869587 0.159088
H65   H     H_    0.609718 0.934110 0.945235 0.136683
H66   H     H_    0.481191 0.921488 0.055975 0.123103
H67   H     H_    0.444925 0.975525 0.130413 0.159088
H68   H     H_    0.390282 0.934109 0.054765 0.136683
H69   H     H_    0.018809 0.421488 0.944025 0.123103
H70   H     H_    0.055075 0.475525 0.869587 0.159088
H71   H     H_    0.109718 0.434110 0.945235 0.136683
H72   H     H_    0.337268 0.762044 0.470339 0.143557
H73   H     H_    0.981191 0.421488 0.055975 0.123103
H74   H     H_    0.944925 0.475525 0.130413 0.159088
H75   H     H_    0.890282 0.434110 0.054765 0.136683
H76   H     H_    0.575378 0.385096 0.567303 0.142646
H77   H     H_    0.633648 0.265209 0.594224 0.130487
H78   H     H_    0.636911 0.403574 0.641413 0.158008
H79   H     H_    0.363092 0.403581 0.358588 0.158008
H80   H     H_    0.424623 0.385091 0.432700 0.142646
H81   H     H_    0.366349 0.265209 0.405773 0.130487
H82   H     H_    0.075378 0.885090 0.567300 0.142647
H83   H     H_    0.662733 0.762043 0.529661 0.143558
H84   H     H_    0.133651 0.765211 0.594228 0.130487
H85   H     H_    0.136908 0.903582 0.641411 0.158009
H86   H     H_    0.863083 0.903558 0.358583 0.158006
H87   H     H_    0.924622 0.885101 0.432694 0.142645
H88   H     H_    0.866355 0.765201 0.405784 0.130488
H89   H     H_    0.861895 0.133576 0.578052 0.103363
H90   H     H_    0.892157 0.281631 0.595950 0.158652
H91   H     H_    0.840860 0.204658 0.653979 0.166256
H92   H     H_    0.138104 0.133577 0.421948 0.103363
H93   H     H_    0.107842 0.281632 0.404050 0.158652
H94   H     H_    0.859040 0.443366 0.532132 0.136888
H95   H     H_    0.159139 0.204658 0.346021 0.166256
H96   H     H_    0.361895 0.633577 0.578052 0.103363
H97   H     H_    0.392158 0.781631 0.595950 0.158652
H98   H     H_    0.340860 0.704658 0.653979 0.166256
H99   H     H_    0.638104 0.633578 0.421948 0.103364
H100  H     H_    0.607842 0.781632 0.404050 0.158652
H101  H     H_    0.659139 0.704658 0.346021 0.166256
H102  H     H_    0.737647 0.215324 0.575604 0.131164
H103  H     H_    0.262352 0.215324 0.424396 0.131164
H104  H     H_    0.237647 0.715324 0.575604 0.131164
O1    O     O_R   0.783100 0.287550 0.345460 -0.528086
O2    O     O_R   0.454350 0.284910 0.836260 -0.528450
O3    O     O_R   0.045650 0.784910 0.163740 -0.528450
O4    O     O_R   0.954350 0.784910 0.836260 -0.528450
O5    O     O_R   0.677950 0.374280 0.185410 -0.493967
O6    O     O_R   0.322050 0.374280 0.814590 -0.493967
O7    O     O_R   0.177950 0.874280 0.185410 -0.493967
O8    O     O_R   0.822050 0.874280 0.814590 -0.493967
O9    O     O_3   0.664670 0.164660 0.254930 -0.269116
O10   O     O_3   0.335330 0.164660 0.745070 -0.269116
O11   O     O_3   0.164670 0.664660 0.254930 -0.269116
O12   O     O_R   0.216900 0.287550 0.654540 -0.528085
O13   O     O_3   0.835330 0.664660 0.745070 -0.269116
O14   O     O_R   0.760020 0.037400 0.337700 -0.530491
O15   O     O_R   0.239980 0.037400 0.662300 -0.530491
O16   O     O_R   0.260020 0.537400 0.337700 -0.530491
O17   O     O_R   0.739980 0.537400 0.662300 -0.530491
O18   O     O_R   0.666600 0.921990 0.332020 -0.525967
O19   O     O_R   0.333400 0.921990 0.667980 -0.525967
O20   O     O_R   0.166600 0.421990 0.332020 -0.525967
O21   O     O_R   0.833400 0.421990 0.667980 -0.525967
O22   O     O_R   0.557260 0.082670 0.312540 -0.497334
O23   O     O_R   0.283100 0.787550 0.345460 -0.528086
O24   O     O_R   0.442740 0.082670 0.687460 -0.497334
O25   O     O_R   0.057260 0.582670 0.312540 -0.497334
O26   O     O_R   0.942740 0.582670 0.687460 -0.497334
O27   O     O_R   0.548410 0.285740 0.316480 -0.523181
O28   O     O_R   0.451590 0.285740 0.683520 -0.523181
O29   O     O_R   0.048410 0.785740 0.316480 -0.523181
O30   O     O_R   0.951590 0.785740 0.683520 -0.523181
O31   O     O_R   0.680500 0.375040 0.327000 -0.504205
O32   O     O_R   0.319500 0.375040 0.673000 -0.504205
O33   O     O_R   0.180500 0.875040 0.327000 -0.504205
O34   O     O_R   0.716900 0.787550 0.654540 -0.528085
O35   O     O_R   0.819500 0.875040 0.673000 -0.504205
O36   O     O_R   0.780350 0.286720 0.192720 -0.507223
O37   O     O_R   0.219650 0.286720 0.807280 -0.507223
O38   O     O_R   0.280350 0.786720 0.192720 -0.507224
O39   O     O_R   0.719650 0.786720 0.807280 -0.507223
O40   O     O_R   0.757470 0.036630 0.196110 -0.497115
O41   O     O_R   0.242530 0.036630 0.803890 -0.497116
O42   O     O_R   0.257470 0.536630 0.196110 -0.497115
O43   O     O_R   0.742530 0.536630 0.803890 -0.497116
O44   O     O_R   0.663840 0.921160 0.179280 -0.517120
O45   O     O_R   0.554710 0.081900 0.170950 -0.512957
O46   O     O_R   0.336160 0.921160 0.820720 -0.517121
O47   O     O_R   0.163840 0.421160 0.179280 -0.517120
O48   O     O_R   0.836160 0.421160 0.820720 -0.517121
O49   O     O_R   0.445290 0.081900 0.829050 -0.512958
O50   O     O_R   0.054710 0.581900 0.170950 -0.512957
O51   O     O_R   0.945290 0.581900 0.829050 -0.512958
O52   O     O_R   0.545650 0.284910 0.163740 -0.528450

loop_
_geom_bond_atom_site_label_1
_geom_bond_atom_site_label_2
_ccdc_geom_bond_type
Cr6   O11   S    
C21   C26   S    
Cr6   O23   S    
C7    H73   S    
C16   C21   S    
C41   H46   S    
C56   O26   A    
C70   C78   T    
C15   H96   S    
C83   O35   A    
C28   C69   S    
C100  C104  T    
Cr10  O25   S    
Cr3   O7    S    
C69   C107  S    
Cr8   O45   S    
Cr2   O6    S    
Cr2   O32   S    
C110  H51   S    
C58   H27   S    
C13   C33   S    
C106  H1    S    
C43   C61   S    
C57   C89   S    
C54   O24   A    
C17   C26   S    
C38   H6    S    
C4    H63   S    
C53   O27   A    
C8    H77   S    
Cr9   O49   S    
C5    H66   S    
Cr11  O21   S    
C27   C79   S    
C52   C61   S    
C31   H10   S    
C11   H86   S    
Cr11  O51   S    
C46   H21   S    
C11   C109  S    
C92   O4    A    
Cr8   O44   S    
Cr9   O10   S    
C29   C33   S    
C50   C110  S    
C49   C57   S    
C85   O46   A    
C84   O40   A    
C2    C32   S    
C67   C72   S    
C85   O41   A    
C30   C83   S    
C87   O48   A    
C15   H98   S    
C10   H84   S    
Cr9   O46   S    
C79   O1    A    
Cr11  O26   S    
C19   H103  S    
Cr3   O33   S    
C87   O43   A    
Cr6   O38   S    
C10   C108  S    
C48   C51   S    
C37   H61   S    
C20   C24   S    
Cr12  O31   S    
C78   C96   S    
C48   H22   S    
C29   C38   S    
C70   C74   S    
C45   H20   S    
C69   H33   S    
C64   C73   T    
C14   H93   S    
Cr11  O48   S    
C24   C108  S    
C12   H90   S    
C89   O2    A    
C107  H17   S    
C18   H102  S    
C18   C35   S    
C13   H36   S    
C91   H35   S    
C16   H99   S    
Cr8   O9    S    
C112  H56   S    
C93   O36   A    
C11   H87   S    
C96   O39   A    
Cr1   O9    S    
C22   C47   S    
C23   C107  S    
C101  C103  S    
C108  H28   S    
C48   H25   S    
Cr4   O4    S    
C111  H55   S    
Cr1   O40   S    
C62   C71   T    
Cr8   O18   S    
C12   H89   S    
C83   O34   A    
Cr12  O27   S    
Cr10  O50   S    
C40   H45   S    
C6    H70   S    
Cr6   O16   S    
C60   C92   S    
Cr12  O52   S    
C15   C20   S    
C99   C105  T    
C56   O30   A    
C16   H101  S    
Cr11  O13   S    
C41   H15   S    
C30   C34   S    
C43   H18   S    
C27   C31   S    
C36   O16   A    
C31   C102  S    
C82   O23   A    
C28   C32   S    
C24   C25   S    
C5    H67   S    
C109  H39   S    
C2    H40   S    
C84   O44   A    
C94   O6    A    
C65   C84   S    
C112  H58   S    
C90   O3    A    
C27   C35   S    
C68   C73   S    
C22   C106  S    
C42   H16   S    
C77   C95   S    
C69   H29   S    
C65   C74   T    
C55   O25   A    
C13   C24   S    
C39   H83   S    
C58   C106  S    
Cr1   O36   S    
C15   H97   S    
C19   C23   S    
C88   O45   A    
C91   H31   S    
C9    H80   S    
C11   H88   S    
C111  H54   S    
C88   O52   A    
C20   C38   S    
C10   H85   S    
C80   H34   S    
C66   C71   S    
C21   C39   S    
C7    H75   S    
C45   C49   S    
C44   C57   S    
C102  H38   S    
Cr7   O39   S    
Cr4   O8    S    
C82   O33   A    
C89   O49   A    
C96   O8    A    
C14   H92   S    
C54   C97   S    
C56   C99   S    
Cr1   O1    S    
Cr7   O13   S    
C26   C109  S    
C86   O42   A    
C97   C103  T    
C17   H37   S    
C95   O7    A    
Cr12  O5    S    
C2    H2    S    
C40   C41   S    
C46   H26   S    
C76   C94   S    
C31   H43   S    
Cr5   O10   S    
Cr1   O14   S    
Cr10  O11   S    
C32   H44   S    
C63   C86   S    
C17   H9    S    
C1    C26   S    
C6    C51   S    
C5    C50   S    
C8    H76   S    
C19   C37   S    
C17   C34   S    
C50   C59   S    
C42   C60   S    
C3    H62   S    
Cr5   O15   S    
C64   C85   S    
C47   O17   A    
Cr4   O30   S    
C61   C90   S    
C75   C93   S    
Cr10  O20   S    
C3    H60   S    
C110  H49   S    
C44   C50   S    
C68   C77   T    
C94   O37   A    
Cr4   O13   S    
C59   C88   S    
C81   O32   A    
C3    C51   S    
C40   C57   S    
Cr7   O34   S    
C46   C60   S    
C28   C81   S    
C18   C22   S    
C35   H50   S    
Cr3   O3    S    
C14   C19   S    
C33   H41   S    
C95   O38   A    
C5    H68   S    
Cr8   O22   S    
C30   C91   S    
Cr9   O24   S    
C27   C58   S    
C8    C106  S    
C104  C105  S    
Cr2   O2    S    
C32   H11   S    
Cr5   O41   S    
C43   H48   S    
C80   H30   S    
C112  H57   S    
C51   C60   S    
C55   C100  S    
C110  H52   S    
C53   C98   S    
C9    C107  S    
C98   C101  T    
Cr7   O43   S    
C62   C87   S    
C80   C108  S    
C34   H13   S    
C22   C102  S    
C81   O12   A    
C49   C111  S    
C7    C52   S    
C90   O50   A    
C93   O5    A    
C86   O47   A    
C91   C109  S    
C92   O51   A    
C8    H78   S    
Cr7   O17   S    
C4    C49   S    
C79   O31   A    
C29   C82   S    
Cr4   O35   S    
C9    H81   S    
Cr10  O47   S    
Cr2   O10   S    
C46   C52   S    
Cr3   O11   S    
Cr12  O9    S    
C33   H12   S    
C4    H64   S    
C48   C61   S    
C29   C80   S    
C39   H7    S    
C28   C37   S    
C7    H74   S    
C44   H19   S    
C36   O20   A    
C66   C75   T    
Cr2   O28   S    
Cr3   O29   S    
C44   H24   S    
C13   H8    S    
C38   H72   S    
C21   H3    S    
C25   O15   A    
C53   O22   A    
Cr5   O12   S    
C10   H82   S    
C35   H4    S    
C14   H95   S    
C47   O21   A    
C16   H100  S    
C1    O14   A    
C102  H94   S    
C58   H32   S    
C20   H104  S    
Cr9   O19   S    
C42   H47   S    
C63   C72   T    
C4    H65   S    
C45   C59   S    
C23   C36   S    
C42   C43   S    
C45   H23   S    
C12   C18   S    
C2    C23   S    
C111  H53   S    
C40   H14   S    
C52   C112  S    
C6    H71   S    
C67   C76   T    
C25   O19   A    
C12   H91   S    
C55   O29   A    
C1    O18   A    
C34   H42   S    
C3    H59   S    
C37   H5    S    
C6    H69   S    
Cr5   O37   S    
C41   C59   S    
C30   C39   S    
C54   O28   A    
Cr6   O42   S    
C9    H79   S    
