data_mof_unit_53149.cif
_audit_creation_date              2012-12-10T17:26:15-0500
_audit_creation_method            fapswitch 2.2
_symmetry_space_group_name_H-M    P1
_symmetry_Int_Tables_number       1
_space_group_crystal_system       triclinic
_cell_length_a                    10.102209
_cell_length_b                    10.821454
_cell_length_c                    27.670142
_cell_angle_alpha                 89.98618
_cell_angle_beta                  81.619558
_cell_angle_gamma                 95.320007
_cell_volume                      2979.43508412

loop_
_atom_site_label
_atom_site_type_symbol
_atom_type_description
_atom_site_fract_x
_atom_site_fract_y
_atom_site_fract_z
_atom_type_partial_charge
C1    C     C_R   0.556264 0.732685 0.498086 0.951871
C2    C     C_R   0.470263 0.610970 0.127548 -0.006226
C3    C     C_R   0.501183 0.497749 0.646692 -0.086838
C4    C     C_R   0.496391 0.501755 0.353328 -0.067915
C5    C     C_R   0.441993 0.606976 0.027641 0.059102
C6    C     C_R   0.467993 0.382609 0.976778 0.057946
C7    C     C_R   0.445529 0.379672 0.028514 0.004222
C8    C     C_R   0.424351 0.602882 0.977823 0.003740
C9    C     C_R   0.447124 0.494354 0.053197 0.025104
C10   C     C_R   0.451954 0.493332 0.951746 0.024797
C11   C     C_R   0.462444 0.720144 0.052011 -0.186267
C12   C     C_R   0.443839 0.267316 0.504592 0.949932
C13   C     C_R   0.513260 0.280962 0.949248 -0.185292
C14   C     C_R   0.475293 0.722023 0.101262 -0.162107
C15   C     C_R   0.529790 0.284153 0.898558 -0.160351
C16   C     C_R   0.500680 0.499567 0.593974 0.883883
C17   C     C_R   0.499111 0.500328 0.405998 0.891787
C18   C     C_R   0.382834 0.703973 0.952654 0.184417
C19   C     C_R   0.423949 0.267562 0.056701 0.184807
C20   C     C_2   0.588429 0.864595 0.501346 -0.372167
C21   C     C_2   0.412072 0.135434 0.511565 -0.369629
C22   C     C_2   0.488294 0.933976 0.516101 -0.139328
C23   C     C_R   0.465188 0.494843 0.900279 -0.059655
C24   C     C_2   0.512880 0.066111 0.514664 -0.139368
C25   C     C_2   0.927078 0.509896 0.504007 -0.129337
C26   C     C_2   0.072867 0.489949 0.496062 -0.130898
C27   C     C_R   0.455601 0.601547 0.824258 0.511883
C28   C     C_R   0.463510 0.389580 0.179732 0.555365
C29   C     C_R   0.516864 0.393508 0.822747 0.505621
C30   C     C_R   0.482010 0.611201 0.177250 0.485263
C31   C     C_R   0.623261 0.512189 0.716354 0.272278
C32   C     C_R   0.604634 0.471024 0.270451 0.270596
C33   C     C_R   0.622900 0.512290 0.665779 -0.223938
C34   C     C_R   0.455987 0.496712 0.103602 -0.059077
C35   C     C_R   0.607451 0.469430 0.320800 -0.283388
C36   C     C_R   0.379004 0.482731 0.678266 -0.210485
C37   C     C_R   0.381888 0.535411 0.335265 -0.215724
C38   C     C_R   0.378196 0.482678 0.728334 -0.130995
C39   C     C_R   0.378176 0.536463 0.285396 -0.155951
C40   C     C_R   0.499026 0.498079 0.747532 0.251192
C41   C     C_R   0.488525 0.504124 0.252960 0.295400
C42   C     C_3   0.804282 0.539572 0.214685 -0.764926
C43   C     C_3   0.841400 0.441194 0.723146 -0.744502
C44   C     C_3   0.179875 0.760770 0.001332 -0.765563
C45   C     C_R   0.440479 0.601595 0.875305 -0.052688
C46   C     C_3   0.244062 0.143640 0.026006 -0.763581
C47   C     C_R   0.451976 0.384980 0.129977 -0.060142
C48   C     C_R   0.396123 0.703780 0.901684 -0.206622
C49   C     C_R   0.431989 0.271595 0.106677 -0.207550
C50   C     C_R   0.503927 0.389759 0.873742 -0.008807
H1    H     H_    0.283937 0.470706 0.664307 0.169099
H2    H     H_    0.288817 0.561331 0.271789 0.151196
H3    H     H_    0.367290 0.782655 0.882870 0.190972
H4    H     H_    0.418809 0.185371 0.127493 0.190299
H5    H     H_    0.696342 0.443070 0.334349 0.162615
H6    H     H_    0.717204 0.527116 0.641391 0.161634
H7    H     H_    0.490529 0.811048 0.118514 0.189266
H8    H     H_    0.563929 0.203711 0.878902 0.190943
H9    H     H_    0.475486 0.808588 0.033047 0.171903
H10   H     H_    0.542580 0.199939 0.966190 0.173982
H11   H     H_    0.616456 0.106123 0.512695 0.189614
H12   H     H_    0.294959 0.560800 0.359619 0.170609
H13   H     H_    0.385018 0.893992 0.526140 0.189212
H14   H     H_    0.769606 0.371965 0.252262 0.232854
H15   H     H_    0.885713 0.504080 0.188536 0.239958
H16   H     H_    0.850254 0.595542 0.242686 0.239663
H17   H     H_    0.748072 0.599538 0.194107 0.263986
H18   H     H_    0.739262 0.558819 0.771508 0.232674
H19   H     H_    0.797108 0.348870 0.738175 0.275851
H20   H     H_    0.934501 0.467590 0.739139 0.233399
H21   H     H_    0.869576 0.435397 0.682973 0.234321
H22   H     H_    0.320246 0.881563 0.958317 0.225600
H23   H     H_    0.308785 0.094976 0.513441 0.152233
H24   H     H_    0.137422 0.838548 0.022554 0.235979
H25   H     H_    0.179693 0.681824 0.027002 0.256246
H26   H     H_    0.114916 0.732732 0.973312 0.242088
H27   H     H_    0.400870 0.074706 0.054975 0.224455
H28   H     H_    0.222067 0.055273 0.007246 0.237232
H29   H     H_    0.229429 0.220945 0.001498 0.254649
H30   H     H_    0.172511 0.146044 0.060471 0.242734
H31   H     H_    0.691411 0.905024 0.491246 0.152524
H32   H     H_    0.109331 0.422470 0.469564 0.164944
H33   H     H_    0.890578 0.577271 0.530548 0.162935
H34   H     H_    0.119633 0.614493 0.544902 0.164022
H35   H     H_    0.880399 0.385601 0.455064 0.163341
H36   H     H_    0.283273 0.471057 0.752508 0.146398
N1    N     N_R   0.493156 0.498526 0.799308 -0.362196
N2    N     N_R   0.479572 0.501556 0.201996 -0.347232
N3    N     N_2   0.842700 0.448890 0.480020 -0.195846
N4    N     N_2   0.157300 0.551110 0.519980 -0.196282
N5    N     N_2   0.716629 0.436204 0.237665 -0.295172
N6    N     N_2   0.747214 0.533286 0.735388 -0.306741
N7    N     N_2   0.315061 0.799893 0.978040 -0.325528
N8    N     N_2   0.380754 0.152142 0.036546 -0.325253
O1    O     O_R   0.431060 0.692470 0.504020 -0.610293
O2    O     O_2   0.457956 0.283324 0.205822 -0.554453
O3    O     O_2   0.496795 0.719859 0.200716 -0.558097
O4    O     O_2   0.551211 0.292899 0.796732 -0.562394
O5    O     O_R   0.568940 0.307530 0.495980 -0.611252
O6    O     O_R   0.651120 0.659650 0.491200 -0.611622
O7    O     O_R   0.348880 0.340350 0.508800 -0.612397
O8    O     O_R   0.389980 0.516390 0.577660 -0.614890
O9    O     O_R   0.610020 0.483610 0.422340 -0.612641
O10   O     O_R   0.610040 0.483570 0.564830 -0.620824
O11   O     O_R   0.389960 0.516430 0.435170 -0.619570
O12   O     O_2   0.432706 0.703242 0.799609 -0.551656
Zn1   Zn    Zn3+2 0.353060 0.521910 0.508560 0.947541
Zn2   Zn    Zn3+2 0.646940 0.478090 0.491440 0.947483

loop_
_geom_bond_atom_site_label_1
_geom_bond_atom_site_label_2
_ccdc_geom_bond_type
O7    Zn1   S    
C38   C40   A    
C28   C47   A    
C24   H11   S    
C23   C45   A    
C37   H12   S    
C39   C41   A    
C13   H10   S    
O5    Zn2   S    
O11   Zn1   S    
C30   O3    S    
C29   O4    S    
C38   H36   S    
C40   N1    S    
N4    Zn1   S    
C5    C11   A    
C46   H29   S    
C11   C14   A    
C32   N5    S    
C3    C33   A    
C49   H4    S    
C21   H23   S    
H27   N8    S    
C31   C40   A    
C42   N5    S    
C15   C50   A    
C44   H26   S    
C12   O5    A    
C44   N7    S    
C22   H13   S    
C16   O10   A    
C28   N2    A    
C42   H15   S    
C32   C41   A    
C31   C33   A    
O9    Zn2   S    
C2    C34   A    
C33   H6    S    
C39   H2    S    
C4    C35   A    
C26   H32   S    
C20   H31   S    
H34   N4    S    
C11   H9    S    
C1    O6    A    
C29   C50   A    
C48   H3    S    
O6    Zn2   S    
C35   H5    S    
C32   C35   A    
C47   C49   A    
C46   H28   S    
H35   N3    S    
C23   C50   A    
C27   O12   S    
C25   C26   S    
C12   C21   S    
C8    C18   A    
C44   H25   S    
C44   H24   S    
C5    C9    A    
C17   O11   A    
C19   C49   A    
C46   N8    S    
C1    O1    A    
O8    Zn1   S    
C27   N1    A    
C19   N8    S    
C36   H1    S    
O1    Zn1   S    
C4    C17   S    
C16   O8    A    
C20   C22   D    
C43   H20   S    
C7    C19   A    
C13   C15   A    
C9    C34   A    
C15   H8    S    
C22   C24   S    
H22   N7    S    
C30   N2    A    
O10   Zn2   S    
C42   H16   S    
C45   C48   A    
C7    C9    A    
C14   H7    S    
C1    C20   S    
C43   H21   S    
C18   C48   A    
C6    C10   A    
C5    C8    A    
C6    C7    A    
C10   C23   A    
C26   N4    D    
C25   N3    D    
C43   N6    S    
C28   O2    S    
C2    C30   A    
C36   C38   A    
C17   O9    A    
C12   O7    A    
C37   C39   A    
C6    C13   A    
C46   H30   S    
C27   C45   A    
C42   H17   S    
C3    C36   A    
N3    Zn2   S    
H18   N6    S    
C2    C14   A    
C29   N1    A    
C4    C37   A    
C8    C10   A    
C31   N6    S    
C21   C24   D    
C25   H33   S    
C18   N7    S    
C34   C47   A    
H14   N5    S    
C43   H19   S    
C41   N2    S    
C3    C16   S    
