data_mof_unit_61737.cif
_audit_creation_date              2012-12-10T18:34:39-0500
_audit_creation_method            fapswitch 2.2
_symmetry_space_group_name_H-M    P1
_symmetry_Int_Tables_number       1
_space_group_crystal_system       triclinic
_cell_length_a                    13.055563
_cell_length_b                    15.101484
_cell_length_c                    13.91065
_cell_angle_alpha                 91.249209
_cell_angle_beta                  96.139501
_cell_angle_gamma                 90.290718
_cell_volume                      2726.14706634

loop_
_atom_site_label
_atom_site_type_symbol
_atom_type_description
_atom_site_fract_x
_atom_site_fract_y
_atom_site_fract_z
_atom_type_partial_charge
C1    C     C_R   0.496281 0.329565 0.498692 0.879172
C2    C     C_R   0.499765 0.669752 0.500898 0.909523
C3    C     C_R   0.486879 0.232183 0.496412 -0.228672
C4    C     C_R   0.496254 0.765920 0.502780 -0.202593
C5    C     C_R   0.537363 0.180364 0.430161 0.276921
C6    C     C_R   0.407053 0.808651 0.462064 0.236934
C7    C     C_R   0.534633 0.088708 0.434155 -0.176149
C8    C     C_R   0.403126 0.900554 0.464030 -0.152036
C9    C     C_R   0.482238 0.046805 0.502639 -0.042009
C10   C     C_R   0.487091 0.950333 0.506576 -0.035900
C11   C     C_R   0.533084 0.573069 0.112182 -0.240560
C12   C     C_R   0.414033 0.472616 0.883479 -0.235713
C13   C     C_R   0.535357 0.571719 0.213661 0.044886
C14   C     C_R   0.415759 0.471027 0.782290 0.082985
C15   C     C_R   0.462096 0.427889 0.202977 0.570646
C16   C     C_R   0.584194 0.531323 0.801092 0.541094
C17   C     C_R   0.468824 0.423324 0.102528 0.210490
C18   C     C_R   0.589321 0.524991 0.902411 0.217062
C19   C     C_R   0.501554 0.497792 0.054559 0.007288
C20   C     C_R   0.502076 0.498078 0.945829 0.004344
C21   C     C_R   0.301002 0.502887 0.482313 0.870234
C22   C     C_R   0.699401 0.498121 0.517538 0.865738
C23   C     C_R   0.812071 0.500880 0.526236 -0.116148
C24   C     C_R   0.188948 0.502106 0.472435 -0.074386
C25   C     C_R   0.031984 0.444977 0.386108 -0.099085
C26   C     C_R   0.969614 0.559107 0.611955 -0.100664
C27   C     C_R   0.137589 0.455909 0.393590 -0.216197
C28   C     C_R   0.864151 0.545617 0.605997 -0.167092
C29   C     C_R   0.133363 0.541621 0.543481 0.227377
C30   C     C_R   0.867609 0.465454 0.452518 0.219319
C31   C     C_R   0.026296 0.527151 0.538458 0.053980
C32   C     C_R   0.974889 0.478663 0.458627 0.056776
C33   C     C_R   0.426894 0.096350 0.565780 0.299175
C34   C     C_R   0.576682 0.908341 0.547790 0.305435
C35   C     C_R   0.427649 0.189272 0.561903 0.187007
C36   C     C_R   0.581518 0.815563 0.545440 0.161873
Cu1   Cu    Cu3+1 0.500000 0.499990 0.596430 1.039614
Cu2   Cu    Cu3+1 0.500000 0.500010 0.403570 1.036314
H1    H     H_    0.822710 0.573189 0.662805 0.236085
H2    H     H_    0.179689 0.425897 0.338392 0.173727
H3    H     H_    0.996964 0.408312 0.323501 0.209308
H4    H     H_    0.005508 0.594840 0.674924 0.213367
H5    H     H_    0.575334 0.049466 0.384442 0.203219
H6    H     H_    0.334649 0.933490 0.431924 0.206469
H7    H     H_    0.557078 0.632798 0.078947 0.202642
H8    H     H_    0.344010 0.453134 0.912862 0.201822
H9    H     H_    0.564030 0.629289 0.255798 0.173390
H10   H     H_    0.348139 0.448018 0.736953 0.198344
N1    N     N_R   0.500000 0.500020 0.258690 -0.243011
N2    N     N_R   0.500000 0.499980 0.741310 -0.249882
O1    O     O_R   0.500010 0.371450 0.581430 -0.547642
O2    O     O_R   0.499990 0.628550 0.418570 -0.583585
O3    O     O_R   0.500010 0.371460 0.418560 -0.538027
O4    O     O_R   0.499990 0.628540 0.581440 -0.575923
O5    O     O_R   0.349000 0.499980 0.568210 -0.564210
O6    O     O_R   0.651000 0.500020 0.431790 -0.537953
O7    O     O_R   0.349000 0.499990 0.405340 -0.614155
O8    O     O_R   0.651000 0.500010 0.594660 -0.574193
Br1   Br    Br    0.798972 0.396770 0.344783 -0.375751
Br2   Br    Br    0.202143 0.620404 0.642385 -0.427000
O9    O     O_3   0.413504 0.358833 0.242312 -0.654489
H11   H     H_    0.368698 0.385140 0.287930 0.337697
O10   O     O_3   0.664420 0.573411 0.764846 -0.677150
H12   H     H_    0.633359 0.612230 0.713691 0.368511
Br3   Br    Br    0.434135 0.312718 0.034791 -0.311338
Br4   Br    Br    0.718542 0.552701 0.977815 -0.349514
Br5   Br    Br    0.352689 0.036536 0.658413 -0.295824
Br6   Br    Br    0.691503 0.977925 0.607450 -0.309360
Br7   Br    Br    0.340900 0.255245 0.641628 -0.387769
Br8   Br    Br    0.706250 0.757043 0.595592 -0.421711
Br9   Br    Br    0.614268 0.228090 0.333199 -0.294689
Br10  Br    Br    0.288052 0.744120 0.404370 -0.408391

loop_
_geom_bond_atom_site_label_1
_geom_bond_atom_site_label_2
_ccdc_geom_bond_type
C22   O8    A    
C2    C4    S    
C4    C36   A    
C21   O7    A    
Cu1   Cu2   S    
C5    Br9   S    
C16   O10   S    
C7    H5    S    
C18   Br4   S    
Cu2   O7    S    
C11   C13   A    
C9    C10   S    
Cu1   O8    S    
C17   Br3   S    
C19   C20   S    
C29   Br2   S    
C3    C35   A    
C27   H2    S    
C3    C5    A    
C24   C27   A    
C30   Br1   S    
C12   C20   A    
C25   C32   A    
C15   O9    S    
C21   O5    A    
C26   C31   A    
C29   C31   A    
Cu2   N1    S    
C23   C28   A    
C30   C32   A    
Cu1   N2    S    
C1    O1    A    
C11   C19   A    
C14   N2    A    
Cu2   O3    S    
C2    O2    A    
C9    C33   A    
C13   N1    A    
Cu1   O4    S    
C12   H8    S    
C26   C28   A    
C17   C19   A    
C36   Br8   S    
C12   C14   A    
C34   C36   A    
C15   N1    A    
C26   H4    S    
O9    H11   S    
Cu1   O1    S    
C11   H7    S    
C4    C6    A    
Cu2   O2    S    
C8    C10   A    
C15   C17   A    
C22   O6    A    
C34   Br6   S    
O10   H12   S    
C10   C34   A    
C23   C30   A    
C8    H6    S    
Cu2   O6    S    
C35   Br7   S    
C18   C20   A    
C5    C7    A    
C2    O4    A    
C21   C24   S    
C25   H3    S    
C7    C9    A    
C14   H10   S    
C1    O3    A    
C22   C23   S    
C6    C8    A    
C28   H1    S    
C33   C35   A    
C24   C29   A    
C13   H9    S    
C6    Br10  S    
C16   C18   A    
C33   Br5   S    
C31   C32   A    
C16   N2    A    
C1    C3    S    
C25   C27   A    
Cu1   O5    S    
