data_mof_unit_20560.cif
_audit_creation_date              2013-03-05T16:00:22-0500
_audit_creation_method            fapswitch 2.2
_symmetry_space_group_name_H-M    P1
_symmetry_Int_Tables_number       1
_space_group_crystal_system       triclinic
_cell_length_a                    8.220831
_cell_length_b                    12.849387
_cell_length_c                    27.001826
_cell_angle_alpha                 97.668871
_cell_angle_beta                  92.685946
_cell_angle_gamma                 80.85832
_cell_volume                      2789.8989869

loop_
_atom_site_label
_atom_site_type_symbol
_atom_site_description
_atom_site_fract_x
_atom_site_fract_y
_atom_site_fract_z
_atom_type_partial_charge
P1    P     P_3+3 0.072810 0.589830 0.610360 0.505583
O1    O     O_2   0.907040 0.557650 0.617910 -0.371630
O2    O     O_3   0.139040 0.557570 0.557730 -0.365175
O3    O     O_3   0.684960 0.360550 0.588460 -0.364643
O4    O     O_2   0.854658 0.414836 0.670546 -0.342537
O5    O     O_3   0.033686 0.728743 0.622465 -0.562280
O6    O     O_3   0.677896 0.271569 0.679720 -0.474419
H1    H     H_    0.775719 0.178901 0.615586 0.145222
C1    C     C_3   0.682864 0.084738 0.664213 -0.984484
H2    H     H_    0.659826 0.019035 0.634913 0.227514
H3    H     H_    0.807158 0.065461 0.681642 0.290499
P2    P     P_3+3 0.661990 0.251250 0.462170 0.531097
P3    P     P_3+3 0.141327 0.167511 0.565116 0.535359
O7    O     O_2   0.841490 0.235060 0.476710 -0.365623
O8    O     O_3   0.099640 0.305100 0.564190 -0.275632
O9    O     O_2   0.008519 0.118587 0.531621 -0.366443
O10   O     O_3   0.670118 0.216162 0.396948 -0.580212
O11   O     O_3   0.101202 0.141784 0.624993 -0.515153
C2    C     C_3   0.243048 0.148971 0.655311 0.241757
H4    H     H_    0.278109 0.229797 0.657910 0.107926
H5    H     H_    0.345729 0.087942 0.640125 0.009542
C3    C     C_3   0.210623 0.125896 0.707588 -0.052905
H6    H     H_    0.168568 0.047364 0.705389 0.134489
C4    C     C_3   0.073750 0.210500 0.379275 0.776170
H7    H     H_    0.966888 0.249516 0.401084 0.076441
C5    C     C_3   0.025096 0.175308 0.325178 -1.046265
H8    H     H_    0.135039 0.133603 0.304335 0.282153
H9    H     H_    0.932938 0.120482 0.324047 0.254354
H10   H     H_    0.970555 0.245118 0.306551 0.238836
Ba1   Ba    Ba6+2 0.859560 0.448380 0.523550 1.659122
C6    C     C_3   0.987864 0.773952 0.578557 0.367561
H11   H     H_    0.859280 0.764425 0.568737 0.090996
H12   H     H_    0.067405 0.738698 0.546717 0.144509
C7    C     C_3   0.001866 0.891335 0.588458 -0.899327
H13   H     H_    0.930690 0.928415 0.621671 0.260763
H14   H     H_    0.953718 0.931786 0.555874 0.241558
H15   H     H_    0.132707 0.901400 0.595904 0.253508
C8    C     C_3   0.638390 0.304977 0.370804 0.458416
H16   H     H_    0.754475 0.333824 0.365381 -0.025778
H17   H     H_    0.555621 0.372045 0.389940 0.153483
C9    C     C_3   0.562989 0.271863 0.319643 -0.918170
H18   H     H_    0.652932 0.212645 0.297245 0.243967
H19   H     H_    0.527800 0.341918 0.299279 0.214897
H20   H     H_    0.451246 0.235802 0.323813 0.289992
P4    P     P_3+3 0.116900 0.410080 0.389630 0.529152
O12   O     O_2   0.282660 0.442310 0.382060 -0.345169
O13   O     O_3   0.050670 0.442340 0.442260 -0.334417
O14   O     O_3   0.504750 0.639360 0.411530 -0.390651
O15   O     O_3   0.196505 0.274263 0.381085 -0.535474
P5    P     P_3+3 0.052362 0.831215 0.432573 0.487407
O16   O     O_3   0.618400 0.630290 0.524520 -0.384720
O17   O     O_3   0.090070 0.694820 0.435810 -0.378095
O18   O     O_2   0.186170 0.879993 0.465747 -0.339907
O19   O     O_3   0.096530 0.849474 0.371938 -0.473911
Ba2   Ba    Ba6+2 0.330270 0.551530 0.476440 1.609206
P6    P     P_3+3 0.681347 0.389170 0.653881 0.547126
C10   C     C_3   0.671145 0.187418 0.641220 0.534592
H21   H     H_    0.552701 0.200338 0.619844 -0.023679
H22   H     H_    0.590430 0.093298 0.693648 0.260431
O20   O     O_3   0.571310 0.369620 0.475470 -0.342377
C11   C     C_3   0.484839 0.734477 0.628242 0.407027
H23   H     H_    0.362760 0.716770 0.613283 0.099191
H24   H     H_    0.577442 0.661075 0.625745 0.093097
C12   C     C_3   0.465545 0.780653 0.682896 -0.970874
H25   H     H_    0.377415 0.856187 0.686010 0.260006
H26   H     H_    0.417519 0.723982 0.703928 0.227572
H27   H     H_    0.586595 0.796478 0.699642 0.271103
P7    P     P_3+3 0.534677 0.765439 0.538223 0.413841
O21   O     O_2   0.348200 0.764910 0.523260 -0.384318
O22   O     O_3   0.539761 0.808957 0.602451 -0.584896
H28   H     H_    0.325644 0.124064 0.730862 0.128452
C13   C     C_3   0.958240 0.834808 0.341010 0.388823
H29   H     H_    0.921665 0.755609 0.342880 0.077110
H30   H     H_    0.854711 0.899367 0.351906 0.053858
C14   C     C_3   0.999853 0.840646 0.287310 -0.846282
H31   H     H_    0.099210 0.774530 0.274605 0.275201
H32   H     H_    0.888866 0.834284 0.262750 0.246097
H33   H     H_    0.041728 0.917619 0.284451 0.249026
P8    P     P_3+3 0.512485 0.614317 0.346098 0.470303
C15   C     C_3   0.519620 0.816307 0.360203 0.511384
H34   H     H_    0.644663 0.799618 0.377352 -0.022082
O23   O     O_2   0.348655 0.575538 0.327741 -0.374836
O24   O     O_3   0.496035 0.735239 0.321499 -0.506171
H35   H     H_    0.425387 0.824485 0.389247 0.170525
H36   H     H_    0.528917 0.985341 0.368611 0.245112
C16   C     C_3   0.502233 0.921369 0.338851 -0.932418
H37   H     H_    0.374713 0.942180 0.323892 0.290903
H38   H     H_    0.589530 0.915296 0.308080 0.246697
C17   C     C_R   0.027479 0.403478 0.175500 0.519026
O25   O     O_2   0.069301 0.323826 0.195997 -0.598635
N1    N     N_R   0.938706 0.493198 0.201674 -0.164958
C18   C     C_R   0.889785 0.582896 0.177933 0.524445
C19   C     C_2   0.736723 0.520762 0.268603 -0.160603
C20   C     C_3   0.694018 0.515805 0.322405 0.114642
C21   C     C_1   0.986414 0.470837 0.340707 0.209784
C22   C     C_2   0.026148 0.463027 0.292901 -0.192654
C23   C     C_2   0.895727 0.493020 0.253795 0.140276
C24   C     C_R   0.016757 0.492564 0.100271 -0.064970
C25   C     C_R   0.068174 0.402340 0.124845 -0.054219
C26   C     C_R   0.158208 0.312270 0.098145 -0.089005
C27   C     C_R   0.926848 0.583317 0.127181 -0.055743
C28   C     C_2   0.843617 0.523657 0.356424 -0.413564
H39   H     H_    0.153537 0.438757 0.282260 0.175003
H40   H     H_    0.199384 0.241388 0.115802 0.166802
C29   C     C_2   0.374166 0.510953 0.643297 -0.364464
C30   C     C_R   0.188351 0.400410 0.971199 0.040281
C31   C     C_R   0.036318 0.582469 0.972910 0.042045
C32   C     C_R   0.131645 0.491367 0.946673 0.087023
C33   C     C_R   0.284376 0.312506 0.943375 -0.200013
C34   C     C_R   0.322594 0.313720 0.893675 -0.060392
C35   C     C_R   0.267352 0.402497 0.868990 -0.067339
C36   C     C_R   0.171075 0.491369 0.895347 -0.063202
C37   C     C_R   0.114815 0.580461 0.870415 -0.052604
C38   C     C_R   0.156952 0.580247 0.820025 0.522389
N2    N     N_R   0.252877 0.492771 0.794485 -0.164688
C39   C     C_R   0.307358 0.404194 0.818541 0.583911
C40   C     C_2   0.462908 0.481762 0.731642 -0.167861
C41   C     C_3   0.516486 0.497739 0.680387 0.110123
C42   C     C_1   0.219340 0.533559 0.657539 0.254833
C43   C     C_2   0.174272 0.522092 0.702944 -0.152553
C44   C     C_2   0.301276 0.495944 0.743189 0.129869
O26   O     O_2   0.390195 0.326400 0.795987 -0.566591
C45   C     C_R   0.148042 0.400253 0.022346 0.042803
C46   C     C_R   0.055173 0.492080 0.048819 0.084159
C47   C     C_R   0.000260 0.583482 0.024450 0.041807
C48   C     C_R   0.197341 0.311084 0.048323 -0.202463
H41   H     H_    0.557240 0.466809 0.760435 0.164742
H42   H     H_    0.396955 0.244033 0.874553 0.167824
H43   H     H_    0.333896 0.240853 0.958906 0.125682
H44   H     H_    0.266096 0.237869 0.031223 0.126361
O27   O     O_2   0.814783 0.663005 0.201082 -0.599426
C49   C     C_R   0.875978 0.673165 0.102891 -0.084695
H45   H     H_    0.638188 0.539306 0.241490 0.159781
H46   H     H_    0.807475 0.744557 0.122557 0.166014
C50   C     C_R   0.979933 0.669764 0.946293 -0.204362
C51   C     C_R   0.018472 0.668643 0.896477 -0.084772
O28   O     O_2   0.110465 0.659002 0.799237 -0.594212
C52   C     C_R   0.911435 0.673436 0.052938 -0.202067
H47   H     H_    0.904170 0.740957 0.962670 0.126516
H48   H     H_    0.972077 0.738175 0.878348 0.168503
H49   H     H_    0.045289 0.539186 0.712422 0.181906
H50   H     H_    0.867886 0.746680 0.038009 0.125799
H51   H     H_    0.838208 0.581421 0.389819 0.150230
H52   H     H_    0.406003 0.526849 0.606858 0.174812
C53   C     C_R   0.758279 0.819379 0.476255 -0.519353
C54   C     C_R   0.433075 0.185599 0.519288 0.036333
C55   C     C_R   0.410783 0.009166 0.535358 -0.233942
C56   C     C_R   0.347324 0.116275 0.539219 0.077076
C57   C     C_R   0.577292 0.150063 0.493036 0.152546
C58   C     C_R   0.640117 0.039176 0.486756 -0.085784
C59   C     C_R   0.555664 0.968447 0.508826 -0.021474
C60   C     C_R   0.616856 0.858390 0.503225 0.278021
C61   C     C_R   0.846160 0.887596 0.456506 0.162115
C62   C     C_R   0.784818 0.996430 0.460058 -0.173876
H53   H     H_    0.341657 0.958675 0.551805 0.189511
H54   H     H_    0.853182 0.046416 0.443021 0.204108
H55   H     H_    0.806552 0.735487 0.473681 0.162638
N3    N     N_R   0.359293 0.291983 0.518857 0.258347
O29   O     O_R   0.382436 0.363519 0.555873 -0.404299
O30   O     O_R   0.260237 0.316029 0.482198 -0.295856
Br1   Br    Br    0.044861 0.234413 0.740083 -0.424177
Br2   Br    Br    0.167664 0.087308 0.410266 -0.511274

loop_
_geom_bond_atom_site_label_1
_geom_bond_atom_site_label_2
_geom_bond_distance
_ccdc_geom_bond_type
C11   O22   1.396193 S    
O14   Ba2   2.771446 S    
C8    H17   1.095642 S    
Ba1   O16   2.812610 S    
C19   C20   1.522286 S    
N2    C44   1.466409 S    
C11   C12   1.520993 S    
C7    H15   1.109551 S    
C9    H18   1.109860 S    
O4    P6    1.546220 D    
C21   C22   1.333249 D    
C51   H48   1.083653 S    
C29   H52   1.083089 S    
C38   N2    1.386827 Am   
C45   C46   1.423329 A    
P4    O12   1.515985 D    
C24   C46   1.438099 A    
C5    H8    1.110909 S    
P5    O19   1.747226 S    
C39   O26   1.222266 D    
P3    O11   1.749111 S    
C17   C25   1.420896 A    
C26   C48   1.395363 A    
O14   P8    1.755377 S    
C2    H5    1.109916 S    
C4    C5    1.524646 S    
C7    H13   1.104627 S    
C19   H45   1.085619 S    
C15   O24   1.403386 S    
C8    H16   1.099790 S    
C16   H38   1.110080 S    
C48   H44   1.075775 S    
P5    C61   1.844848 S    
C49   C52   1.393825 A    
N2    C39   1.387802 Am   
C26   H40   1.083632 S    
C53   H55   1.082115 S    
P1    O1    1.515671 D    
P1    C42   1.849857 S    
C38   O28   1.222201 D    
C11   H24   1.110556 S    
C40   C44   1.357465 D    
C34   C35   1.400625 A    
C15   C16   1.521171 S    
C55   C56   1.384133 A    
O2    Ba2   2.744909 S    
C35   C36   1.409139 A    
P7    O21   1.567763 D    
C37   C51   1.400234 A    
Ba1   O20   2.906529 S    
C30   C45   1.435611 A    
P5    O17   1.743858 S    
C31   C32   1.423221 A    
C6    H12   1.107484 S    
C35   C39   1.420014 A    
C17   N1    1.387335 Am   
C55   H53   1.076460 S    
C1    H2    1.110425 S    
C62   H54   1.076011 S    
O17   Ba2   2.770130 S    
C15   H35   1.111435 S    
C13   H29   1.113981 S    
C53   C61   1.391670 A    
O5    C6    1.399094 S    
Ba2   O20   2.812042 S    
O3    P6    1.756331 S    
N3    O30   1.290172 A    
C9    H19   1.109402 S    
O6    P6    1.751538 S    
O7    Ba1   2.884694 S    
C13   C14   1.519476 S    
C36   C37   1.409212 A    
C54   C56   1.393949 A    
P4    O13   1.526893 S    
P5    O18   1.543414 D    
P1    O5    1.751584 S    
C12   H27   1.110714 S    
Ba1   O13   2.744309 S    
C50   C51   1.393998 A    
C18   O27   1.221953 D    
C4    H7    1.095277 S    
C31   C47   1.434368 A    
C8    C9    1.523259 S    
C13   H30   1.110434 S    
C52   H50   1.075683 S    
N1    C18   1.388117 Am   
C3    Br1   1.937237 S    
C16   H37   1.110725 S    
O11   C2    1.401084 S    
C45   C48   1.417499 A    
O16   Ba2   2.905690 S    
H36   C16   1.110870 S    
C32   C36   1.438034 A    
C1    H22   1.108118 S    
C12   H26   1.109688 S    
O12   Ba2   2.782761 S    
O2    Ba1   2.928992 S    
C55   C59   1.409791 A    
C14   H31   1.111110 S    
P7    C60   1.842111 S    
H1    C10   1.111657 S    
C54   C57   1.391741 A    
C14   H32   1.109723 S    
C6    H11   1.099484 S    
P4    O15   1.752401 S    
C59   C60   1.414143 A    
C22   C23   1.511399 S    
C2    C3    1.524319 S    
C6    C7    1.518007 S    
N1    C23   1.467374 S    
C40   H41   1.085699 S    
P4    Ba2   3.371253 S    
Ba2   O21   2.885012 S    
C18   C27   1.418604 A    
P8    C20   1.873982 S    
C49   H46   1.083736 S    
P2    O7    1.498295 D    
C1    H3    1.110186 S    
C33   H43   1.075737 S    
N3    O29   1.293310 A    
C9    H20   1.109099 S    
C29   C41   1.507697 S    
C22   H39   1.084917 S    
C28   H51   1.086586 S    
P4    C21   1.838908 S    
C19   C23   1.363255 D    
C3    H28   1.109401 S    
C43   C44   1.504487 S    
O8    Ba1   2.769593 S    
O13   Ba2   2.929826 S    
C37   C38   1.419208 A    
C4    O15   1.392645 S    
P2    Ba1   3.425706 S    
C3    H6    1.110964 S    
P6    C41   1.875866 S    
P2    C57   1.871142 S    
C4    Br2   1.925264 S    
C43   H49   1.083740 S    
C15   H34   1.108578 S    
P8    O23   1.546828 D    
C42   C43   1.330517 D    
C21   C28   1.317365 D    
C31   C50   1.417150 A    
C54   N3    1.405981 S    
C47   C52   1.417055 A    
C24   C27   1.408700 A    
Ba1   Ba2   4.570546 S    
C50   H47   1.075692 S    
C5    H9    1.110359 S    
C25   C26   1.400774 A    
O1    Ba1   2.782379 S    
C12   H25   1.111060 S    
C2    H4    1.113731 S    
P3    O8    1.749901 S    
C61   C62   1.401362 A    
C40   C41   1.520922 S    
P2    O10   1.760345 S    
P8    O24   1.753261 S    
C10   H21   1.109210 S    
C30   C32   1.423506 A    
P1    Ba1   3.370687 S    
C7    H14   1.106783 S    
C1    C10   1.519246 S    
O16   P7    1.760379 S    
C11   H23   1.110026 S    
C14   H33   1.110744 S    
C53   C60   1.389251 A    
P2    O20   1.586538 S    
C27   C49   1.400317 A    
O19   C13   1.400884 S    
O10   C8    1.404256 S    
C20   C28   1.508394 S    
C5    H10   1.109115 S    
P7    O22   1.750426 S    
C24   C25   1.409345 A    
C58   C62   1.415458 A    
P3    O9    1.542392 D    
C33   C34   1.395187 A    
C58   C59   1.430710 A    
C29   C42   1.323201 D    
P3    C56   1.850430 S    
P1    O2    1.526888 S    
C17   O25   1.222125 D    
C57   C58   1.426732 A    
O6    C10   1.402366 S    
O3    Ba1   2.772047 S    
C34   H42   1.083677 S    
C46   C47   1.423397 A    
C30   C33   1.417464 A    
