data_mof_unit_35061.cif
_audit_creation_date              2012-12-11T14:19:13-0500
_audit_creation_method            fapswitch 2.2
_symmetry_space_group_name_H-M    P1
_symmetry_Int_Tables_number       1
_space_group_crystal_system       triclinic
_cell_length_a                    19.476994
_cell_length_b                    7.244701
_cell_length_c                    17.686055
_cell_angle_alpha                 90.383023
_cell_angle_beta                  107.602536
_cell_angle_gamma                 90.528374
_cell_volume                      2378.52176801

loop_
_atom_site_label
_atom_site_type_symbol
_atom_type_description
_atom_site_fract_x
_atom_site_fract_y
_atom_site_fract_z
_atom_type_partial_charge
O1    O     O_R   0.414820 0.494320 0.416790 -0.513536
O2    O     O_R   0.585180 0.994320 0.583210 -0.523478
O3    O     O_R   0.560270 0.819500 0.430140 -0.547814
O4    O     O_R   0.439730 0.319500 0.569860 -0.545335
C1    C     C_R   0.581363 0.655637 0.414894 0.710335
C2    C     C_R   0.418754 0.155336 0.585273 0.716829
O5    O     O_R   0.413840 0.823740 0.407440 -0.554651
O6    O     O_R   0.586160 0.323740 0.592560 -0.555049
O7    O     O_R   0.437710 0.998590 0.560350 -0.538960
O8    O     O_R   0.562290 0.498590 0.439650 -0.538999
C3    C     C_R   0.386251 0.654518 0.387613 0.599627
C4    C     C_R   0.613769 0.157469 0.611937 0.595376
O9    O     O_3   0.508000 0.662290 0.550200 -0.376323
O10   O     O_3   0.492000 0.162290 0.449800 -0.374007
V1    V     V_3+5 0.498520 0.935380 0.490690 1.411677
V2    V     V_3+5 0.501480 0.435380 0.509310 1.419552
C5    C     C_2   0.779834 0.254653 0.793721 -0.175140
C6    C     C_2   0.213369 0.762861 0.216199 -0.205736
C7    C     C_2   0.816966 0.099184 0.819930 0.340636
C8    C     C_2   0.186885 0.611816 0.171067 0.376473
H1    H     H_    0.800837 0.387129 0.820102 0.091214
H2    H     H_    0.182542 0.889318 0.206147 0.121143
C9    C     C_2   0.706445 0.252770 0.734819 -0.167405
C10   C     C_2   0.286319 0.772183 0.275756 -0.202521
C11   C     C_2   0.688763 0.155281 0.666057 0.395050
C12   C     C_2   0.313010 0.639063 0.329643 0.380465
H3    H     H_    0.666524 0.341546 0.747446 0.084993
H4    H     H_    0.317126 0.898812 0.277810 0.116898
C13   C     C_R   0.326489 0.989333 0.633756 -0.218104
C14   C     C_R   0.673725 0.491734 0.366912 -0.217795
C15   C     C_R   0.369459 0.147389 0.634927 -0.083941
C16   C     C_R   0.630926 0.648099 0.365549 -0.082603
C17   C     C_R   0.364139 0.299671 0.682739 -0.226630
C18   C     C_R   0.636599 0.798783 0.317760 -0.229853
C19   C     C_R   0.317009 0.294747 0.729056 0.089861
C20   C     C_R   0.683740 0.793657 0.271456 0.090177
C21   C     C_R   0.273606 0.136609 0.726825 0.054900
C22   C     C_R   0.726885 0.637147 0.273789 0.055854
C23   C     C_R   0.278239 0.983610 0.678822 0.090687
C24   C     C_R   0.722042 0.486004 0.321949 0.091287
C25   C     C_R   0.312483 0.445348 0.777600 -0.186305
C26   C     C_R   0.688462 0.942360 0.222741 -0.187275
C27   C     C_R   0.264829 0.440276 0.822996 -0.194932
C28   C     C_R   0.735985 0.936971 0.177210 -0.188943
C29   C     C_R   0.220851 0.284488 0.820670 0.090430
C30   C     C_R   0.779640 0.782752 0.179563 0.086842
C31   C     C_R   0.225449 0.131531 0.772644 0.055433
C32   C     C_R   0.774931 0.631766 0.227843 0.055153
C33   C     C_R   0.182022 0.973445 0.770405 0.089457
C34   C     C_R   0.818084 0.475294 0.230152 0.089195
C35   C     C_R   0.186518 0.822883 0.721816 -0.188950
C36   C     C_R   0.813470 0.326759 0.279030 -0.187627
C37   C     C_R   0.234212 0.827890 0.676451 -0.194134
C38   C     C_R   0.765858 0.332018 0.324491 -0.195148
C39   C     C_R   0.172709 0.278695 0.865840 -0.223309
C40   C     C_R   0.827549 0.776574 0.134140 -0.210196
C41   C     C_R   0.129790 0.120585 0.864829 -0.079090
C42   C     C_R   0.870249 0.620104 0.135241 -0.080817
C43   C     C_R   0.134947 0.968482 0.816806 -0.224564
C44   C     C_R   0.865003 0.469926 0.183539 -0.220542
H5    H     H_    0.329657 0.871762 0.596746 0.121229
H6    H     H_    0.670284 0.375398 0.403890 0.118692
H7    H     H_    0.397109 0.421944 0.684444 0.130315
H8    H     H_    0.603819 0.919775 0.315963 0.129959
H9    H     H_    0.345652 0.567577 0.780252 0.136074
H10   H     H_    0.655505 0.063301 0.220007 0.136037
H11   H     H_    0.262205 0.558660 0.859761 0.130980
H12   H     H_    0.738744 0.053895 0.140298 0.134896
H13   H     H_    0.169593 0.396418 0.902760 0.119942
H14   H     H_    0.830628 0.892672 0.096893 0.131622
H15   H     H_    0.101943 0.846244 0.815018 0.128440
H16   H     H_    0.897815 0.348990 0.185384 0.131858
H17   H     H_    0.153331 0.700682 0.719147 0.134009
H18   H     H_    0.846472 0.205885 0.281818 0.134436
H19   H     H_    0.236845 0.709485 0.639699 0.129004
H20   H     H_    0.763089 0.215115 0.361422 0.128131
O11   O     O_R   0.937810 0.773680 0.060480 -0.534081
O12   O     O_R   0.062190 0.273680 0.939520 -0.538873
O13   O     O_R   0.086190 0.439740 0.092580 -0.515656
O14   O     O_R   0.913810 0.939740 0.907420 -0.533116
C45   C     C_R   0.113761 0.608558 0.112428 0.602654
C46   C     C_R   0.887051 0.105657 0.885404 0.593448
O15   O     O_R   0.939760 0.444210 0.069890 -0.541972
O16   O     O_R   0.060240 0.944210 0.930110 -0.544788
O17   O     O_R   0.914790 0.269640 0.916760 -0.548997
O18   O     O_R   0.085210 0.769640 0.083240 -0.551780
C47   C     C_R   0.919308 0.612355 0.085197 0.707044
C48   C     C_R   0.080705 0.112612 0.914807 0.696469
O19   O     O_3   0.992050 0.601530 0.949880 -0.384586
O20   O     O_3   0.007950 0.101530 0.050120 -0.369283
V3    V     V_3+5 0.001480 0.328340 0.009300 1.418551
V4    V     V_3+5 0.998520 0.828340 0.990700 1.394525
O21   O     O_3   0.782256 0.929784 0.795539 -0.536566
C49   C     C_3   0.824431 0.810587 0.764333 -0.077029
H21   H     H_    0.851662 0.707716 0.809357 0.122936
H22   H     H_    0.864594 0.884138 0.741531 0.103568
H23   H     H_    0.787931 0.731487 0.713910 0.157385
O22   O     O_3   0.228561 0.454779 0.178665 -0.506462
C50   C     C_3   0.255370 0.442303 0.113146 -0.211193
H24   H     H_    0.286903 0.568193 0.108122 0.113800
H25   H     H_    0.211269 0.416935 0.056998 0.112890
H26   H     H_    0.292270 0.323225 0.122023 0.160253
O23   O     O_3   0.742036 0.057634 0.645892 -0.539697
C51   C     C_3   0.737626 0.083112 0.565470 -0.279843
H27   H     H_    0.731204 0.231179 0.548401 0.112870
H28   H     H_    0.693396 0.997743 0.525955 0.152464
H29   H     H_    0.788651 0.035965 0.556504 0.158962
O24   O     O_3   0.271378 0.484123 0.332093 -0.506184
C52   C     C_3   0.246139 0.498475 0.398701 -0.212993
H30   H     H_    0.215407 0.627902 0.397493 0.113671
H31   H     H_    0.291017 0.489831 0.455098 0.115315
H32   H     H_    0.208860 0.380899 0.397244 0.160838

loop_
_geom_bond_atom_site_label_1
_geom_bond_atom_site_label_2
_ccdc_geom_bond_type
O15   C47   A    
O11   V4    S    
O4    V2    S    
O21   C49   S    
C20   C26   A    
O1    C3    A    
O2    C4    A    
C42   C47   S    
C2    O7    A    
C51   H28   S    
O17   V3    S    
C31   C33   A    
O5    C3    A    
C5    C9    S    
C6    C10   S    
C19   C21   A    
C10   C12   D    
C32   C34   A    
C36   H18   S    
C52   H31   S    
C41   C43   A    
C44   H16   S    
C42   C44   A    
O24   C52   S    
C17   C19   A    
C28   C30   A    
C33   C35   A    
C34   C36   A    
C15   C17   A    
C9    H3    S    
C21   C31   A    
C7    C46   S    
O13   V3    S    
C45   O18   A    
C7    O21   S    
O6    C4    A    
C1    C16   S    
O5    V1    S    
C2    C15   S    
O6    V2    S    
C22   C24   A    
C8    C45   S    
C25   C27   A    
C37   H19   S    
C26   C28   A    
C51   H27   S    
C36   C38   A    
C30   C32   A    
C29   C31   A    
C21   C23   A    
C13   H5    S    
C35   H17   S    
O4    C2    A    
C52   H32   S    
C12   O24   S    
O13   C45   A    
C11   O23   S    
C25   H9    S    
C3    C12   S    
C5    H1    S    
C35   C37   A    
C16   C18   A    
O14   V4    S    
C50   H24   S    
C17   H7    S    
C13   C23   A    
C18   H8    S    
C14   C24   A    
O1    V2    S    
O19   V4    S    
C49   H22   S    
O2    V1    S    
C27   C29   A    
C29   C39   A    
C39   H13   S    
C38   H20   S    
O14   C46   A    
C50   H25   S    
C40   H14   S    
C14   H6    S    
C28   H12   S    
O3    V1    S    
O12   C48   A    
C6    H2    S    
C22   C32   A    
C10   H4    S    
O3    C1    A    
C33   C43   A    
O12   V3    S    
C46   O17   A    
O15   V3    S    
C24   C38   A    
C49   H23   S    
C41   C48   S    
C4    C11   S    
C34   C44   A    
C39   C41   A    
O7    V1    S    
C1    O8    A    
C13   C15   A    
O8    V2    S    
C52   H30   S    
C14   C16   A    
O20   V3    S    
C23   C37   A    
O16   C48   A    
C20   C22   A    
C5    C7    D    
C18   C20   A    
C40   C42   A    
C6    C8    D    
C9    C11   D    
C49   H21   S    
C19   C25   A    
C50   H26   S    
C8    O22   S    
O11   C47   A    
C27   H11   S    
O22   C50   S    
O9    V2    S    
C30   C40   A    
O23   C51   S    
C26   H10   S    
O10   V1    S    
O18   V4    S    
O16   V4    S    
C51   H29   S    
C43   H15   S    
