data_mof_unit_9457.cif
_audit_creation_date              2012-12-11T17:04:50-0500
_audit_creation_method            fapswitch 2.2
_symmetry_space_group_name_H-M    P1
_symmetry_Int_Tables_number       1
_space_group_crystal_system       triclinic
_cell_length_a                    17.281451
_cell_length_b                    24.238843
_cell_length_c                    14.825917
_cell_angle_alpha                 90.052646
_cell_angle_beta                  125.283322
_cell_angle_gamma                 90.109131
_cell_volume                      5069.49151083

loop_
_atom_site_label
_atom_site_type_symbol
_atom_type_description
_atom_site_fract_x
_atom_site_fract_y
_atom_site_fract_z
_atom_type_partial_charge
C1    C     C_R   0.854094 0.653208 0.906671 -0.154848
C2    C     C_R   0.930343 0.501447 0.628799 0.085296
C3    C     C_R   0.759466 0.046156 0.303086 -0.153836
C4    C     C_R   0.850025 0.348969 0.909686 -0.135689
C5    C     C_R   0.187934 0.374345 0.088765 -0.128487
C6    C     C_R   0.350021 0.848971 0.909684 -0.135645
C7    C     C_R   0.687937 0.874348 0.088767 -0.128515
C8    C     C_R   0.942001 0.653558 0.089506 -0.124388
C9    C     C_R   0.099847 0.624326 0.908412 -0.097353
C10   C     C_R   0.442001 0.153558 0.089505 -0.124385
C11   C     C_R   0.599849 0.124325 0.908414 -0.097350
C12   C     C_R   0.883420 0.685868 0.997023 0.110604
C13   C     C_R   0.450139 0.001256 0.276272 0.068560
C14   C     C_R   0.191461 0.634984 0.000801 0.080775
C15   C     C_R   0.383419 0.185867 0.997020 0.110602
C16   C     C_R   0.691464 0.134981 0.000804 0.080778
C17   C     C_R   0.430344 0.001447 0.628799 0.085308
C18   C     C_R   0.674926 0.500828 0.722692 0.036458
C19   C     C_R   0.308775 0.499888 0.360456 0.045608
C20   C     C_R   0.174914 0.000837 0.722559 0.036517
C21   C     C_R   0.808694 0.999880 0.360530 0.045574
C22   C     C_3   0.495663 0.465890 0.628300 -0.152710
C23   C     C_3   0.464538 0.448514 0.511402 -0.161542
C24   C     C_3   0.995516 0.966262 0.628720 -0.152346
C25   C     C_R   0.192700 0.622789 0.092980 -0.103349
C26   C     C_3   0.964213 0.948423 0.511979 -0.161657
C27   C     C_3   0.429377 0.516992 0.579228 -0.133773
C28   C     C_3   0.544138 0.483511 0.523199 -0.129654
C29   C     C_3   0.929460 0.017441 0.579125 -0.133971
C30   C     C_3   0.043939 0.983067 0.523300 -0.129866
C31   C     C_3   0.400787 0.499464 0.464526 0.172092
C32   C     C_3   0.574158 0.500927 0.638707 0.172536
C33   C     C_3   0.900702 0.999453 0.464588 0.172107
C34   C     C_3   0.074131 0.000944 0.638644 0.172573
C35   C     C_3   0.479819 0.534338 0.475879 -0.153183
C36   C     C_R   0.354093 0.153207 0.906669 -0.154825
C37   C     C_3   0.510360 0.551923 0.592029 -0.162706
C38   C     C_3   0.979857 0.033973 0.475473 -0.152886
C39   C     C_3   0.010559 0.052016 0.591444 -0.162931
C40   C     C_R   0.874181 0.240422 0.104234 0.157197
C41   C     C_R   0.222104 0.304600 0.888122 0.165124
C42   C     C_R   0.374185 0.740420 0.104232 0.157186
C43   C     C_R   0.722128 0.804614 0.888123 0.165136
C44   C     C_R   0.855246 0.260688 0.005488 -0.002315
C45   C     C_R   0.251890 0.332090 0.985973 -0.001520
C46   C     C_R   0.355243 0.760689 0.005484 -0.002310
C47   C     C_R   0.692703 0.122784 0.092983 -0.103374
C48   C     C_R   0.751901 0.832095 0.985981 -0.001536
C49   C     C_R   0.804549 0.227764 0.909946 -0.242393
C50   C     C_R   0.345912 0.324827 0.078062 -0.246573
C51   C     C_R   0.304543 0.727766 0.909940 -0.242384
C52   C     C_R   0.845916 0.824826 0.078079 -0.246571
C53   C     C_R   0.942081 0.349518 0.093330 -0.144535
C54   C     C_R   0.094268 0.376452 0.903991 -0.133954
C55   C     C_R   0.442079 0.849518 0.093329 -0.144547
C56   C     C_R   0.594271 0.876453 0.903993 -0.133961
C57   C     C_R   0.263677 0.678122 0.910800 0.199031
C58   C     C_R   0.878996 0.317846 0.002133 0.088921
C59   C     C_R   0.900081 0.781246 0.079358 0.193049
C60   C     C_R   0.763683 0.178119 0.910806 0.199030
C61   C     C_R   0.400076 0.281247 0.079340 0.193054
C62   C     C_R   0.268815 0.663415 0.006221 -0.031176
C63   C     C_R   0.856403 0.743759 0.989081 -0.047948
C64   C     C_R   0.768818 0.163413 0.006226 -0.031186
C65   C     C_R   0.356393 0.243755 0.989073 -0.047942
C66   C     C_R   0.331533 0.692078 0.104512 0.124948
C67   C     C_R   0.773281 0.760925 0.889911 0.137134
C68   C     C_R   0.831530 0.192079 0.104514 0.124980
C69   C     C_R   0.182652 0.361204 0.993926 0.091248
C70   C     C_R   0.273257 0.260911 0.889910 0.137122
C71   C     C_3   0.422901 0.670238 0.202304 -0.477747
C72   C     C_3   0.685410 0.729476 0.805561 -0.504462
C73   C     C_3   0.922894 0.170243 0.202315 -0.477830
C74   C     C_3   0.185389 0.229453 0.805600 -0.504473
C75   C     C_3   0.969041 0.222987 0.202610 -0.500369
C76   C     C_3   0.129308 0.277452 0.803716 -0.504288
C77   C     C_3   0.469048 0.722982 0.202599 -0.500378
C78   C     C_3   0.629329 0.777476 0.803678 -0.504279
C79   C     C_R   0.881493 0.551916 0.456979 0.143723
C80   C     C_R   0.378992 0.817847 0.002131 0.088913
C81   C     C_R   0.887488 0.551995 0.368040 0.151131
C82   C     C_R   0.381499 0.051917 0.456984 0.143736
C83   C     C_R   0.387494 0.051996 0.368044 0.151128
C84   C     C_R   0.890151 0.502360 0.510627 0.028931
C85   C     C_R   0.900336 0.502433 0.329389 0.035610
C86   C     C_R   0.390153 0.002361 0.510628 0.028958
C87   C     C_R   0.400337 0.002434 0.329389 0.035608
C88   C     C_R   0.875228 0.452871 0.452634 -0.184590
C89   C     C_R   0.879850 0.452967 0.361427 -0.181407
C90   C     C_R   0.375227 0.952872 0.452633 -0.184589
C91   C     C_R   0.682656 0.861206 0.993929 0.091263
C92   C     C_R   0.379847 0.952968 0.361425 -0.181418
C93   C     C_3   0.941342 0.605365 0.403654 -0.486399
C94   C     C_3   0.933768 0.605471 0.499870 -0.491308
C95   C     C_3   0.441355 0.105364 0.403664 -0.486415
C96   C     C_3   0.433782 0.105469 0.499880 -0.491314
C97   C     C_R   0.978625 0.546929 0.246366 -0.134771
C98   C     C_R   0.947218 0.546735 0.694246 -0.124219
C99   C     C_R   0.478625 0.046929 0.246365 -0.134776
C100  C     C_R   0.447219 0.046735 0.694247 -0.124206
C101  C     C_R   0.730715 0.454524 0.749681 -0.136098
C102  C     C_R   0.950139 0.501255 0.276272 0.068557
C103  C     C_R   0.259136 0.454266 0.300224 -0.136896
C104  C     C_R   0.230704 0.954527 0.749617 -0.136280
C105  C     C_R   0.759086 0.954263 0.300266 -0.136723
C106  C     C_R   0.982613 0.454858 0.252182 -0.119592
C107  C     C_R   0.947684 0.455417 0.692991 -0.133361
C108  C     C_R   0.482612 0.954858 0.252182 -0.119581
C109  C     C_R   0.447684 0.955417 0.692991 -0.133357
C110  C     C_R   0.730608 0.547023 0.749115 -0.129930
C111  C     C_R   0.259499 0.546160 0.303051 -0.153712
C112  C     C_R   0.230607 0.047031 0.749055 -0.129761
H1    H     H_    0.820756 0.667018 0.822645 0.103210
H2    H     H_    0.530694 0.594229 0.627160 0.116098
H3    H     H_    0.971760 0.061525 0.410704 0.114579
H4    H     H_    0.031063 0.094410 0.626061 0.115967
H5    H     H_    0.795521 0.240605 0.834565 0.158092
H6    H     H_    0.374732 0.349967 0.151334 0.161216
H7    H     H_    0.295513 0.740609 0.834558 0.158091
H8    H     H_    0.874732 0.849961 0.151357 0.161232
H9    H     H_    0.448273 0.633147 0.182419 0.204654
H10   H     H_    0.675064 0.691224 0.838870 0.203102
H11   H     H_    0.948273 0.133152 0.182441 0.204637
H12   H     H_    0.251793 0.627368 0.178266 0.102560
H13   H     H_    0.175069 0.191207 0.838940 0.203148
H14   H     H_    0.421422 0.665842 0.275934 0.182543
H15   H     H_    0.677974 0.724257 0.726375 0.186907
H16   H     H_    0.921407 0.165851 0.275939 0.182603
H17   H     H_    0.177930 0.224223 0.726405 0.186890
H18   H     H_    0.021972 0.216873 0.183539 0.201225
H19   H     H_    0.086992 0.266656 0.836051 0.203642
H20   H     H_    0.521973 0.716868 0.183518 0.201224
H21   H     H_    0.586989 0.766674 0.835981 0.203627
H22   H     H_    0.993695 0.249275 0.276091 0.185020
H23   H     H_    0.320753 0.167018 0.822643 0.103196
H24   H     H_    0.089842 0.299703 0.723486 0.190155
H25   H     H_    0.493711 0.749267 0.276088 0.185017
H26   H     H_    0.589886 0.799737 0.723457 0.190155
H27   H     H_    0.872790 0.413454 0.484946 0.130938
H28   H     H_    0.880357 0.413677 0.327168 0.130523
H29   H     H_    0.372787 0.913456 0.484943 0.130936
H30   H     H_    0.380351 0.913678 0.327163 0.130524
H31   H     H_    0.900714 0.639297 0.344113 0.195478
H32   H     H_    0.003898 0.601470 0.580150 0.234701
H33   H     H_    0.400731 0.139298 0.344127 0.195478
H34   H     H_    0.751798 0.127355 0.178271 0.102576
H35   H     H_    0.503911 0.101465 0.580159 0.234702
H36   H     H_    0.988151 0.335436 0.177738 0.097147
H37   H     H_    0.067152 0.373852 0.817949 0.110786
H38   H     H_    0.488149 0.835435 0.177736 0.097151
H39   H     H_    0.567156 0.873854 0.817951 0.110789
H40   H     H_    0.016089 0.601107 0.431201 0.216252
H41   H     H_    0.888175 0.639167 0.495518 0.189626
H42   H     H_    0.516100 0.101102 0.431208 0.216251
H43   H     H_    0.388194 0.139168 0.495533 0.189631
H44   H     H_    0.962011 0.589432 0.247934 0.109455
H45   H     H_    0.505025 0.438169 0.693463 0.123572
H46   H     H_    0.924501 0.588527 0.666602 0.096352
H47   H     H_    0.462011 0.089432 0.247933 0.109452
H48   H     H_    0.424502 0.088527 0.666603 0.096352
H49   H     H_    0.707656 0.411983 0.732845 0.107437
H50   H     H_    0.272650 0.411888 0.327885 0.089769
H51   H     H_    0.207643 0.911986 0.732788 0.107455
H52   H     H_    0.772579 0.911882 0.327906 0.089706
H53   H     H_    0.972841 0.412206 0.264102 0.093304
H54   H     H_    0.927767 0.413404 0.664026 0.086856
H55   H     H_    0.472840 0.912206 0.264102 0.093302
H56   H     H_    0.444833 0.406084 0.476859 0.117420
H57   H     H_    0.427768 0.913404 0.664025 0.086852
H58   H     H_    0.708450 0.589660 0.732927 0.095842
H59   H     H_    0.274192 0.588148 0.333531 0.106065
H60   H     H_    0.208471 0.089671 0.732888 0.095730
H61   H     H_    0.774162 0.088146 0.333558 0.106111
H62   H     H_    0.810324 0.334648 0.825114 0.095402
H63   H     H_    0.247210 0.367648 0.173296 0.099848
H64   H     H_    0.310317 0.834651 0.825111 0.095396
H65   H     H_    0.747215 0.867658 0.173301 0.099882
H66   H     H_    0.984391 0.666685 0.174492 0.138188
H67   H     H_    0.004807 0.938844 0.694221 0.123622
H68   H     H_    0.071283 0.631292 0.822828 0.132749
H69   H     H_    0.484389 0.166686 0.174492 0.138180
H70   H     H_    0.571287 0.131291 0.822830 0.132747
H71   H     H_    0.379246 0.530581 0.598700 0.132032
H72   H     H_    0.592841 0.469854 0.501529 0.124500
H73   H     H_    0.879444 0.031394 0.598516 0.132073
H74   H     H_    0.092516 0.969044 0.501697 0.124547
H75   H     H_    0.944291 0.905912 0.477928 0.117318
H76   H     H_    0.471646 0.562192 0.411445 0.114439
I1    I     I_    0.206786 0.625568 0.771650 -0.494891
I2    I     I_    0.043663 0.777008 0.218271 -0.482632
I3    I     I_    0.706796 0.125563 0.771660 -0.494921
I4    I     I_    0.543667 0.277016 0.218238 -0.482629
N1    N     N_R   0.892620 0.603790 0.941770 -0.041401
N2    N     N_R   0.973690 0.529110 0.793240 -0.038905
N3    N     N_R   0.526310 0.029110 0.206760 -0.040613
N4    N     N_R   0.473690 0.029110 0.793240 -0.038909
N5    N     N_R   0.818570 0.472310 0.793020 -0.040918
N6    N     N_R   0.181430 0.472310 0.206980 -0.037035
N7    N     N_R   0.318570 0.972310 0.793020 -0.040894
N8    N     N_R   0.681430 0.972310 0.206980 -0.037056
N9    N     N_R   0.026930 0.472300 0.207330 -0.042109
N10   N     N_R   0.973070 0.472300 0.792670 -0.038623
N11   N     N_R   0.526930 0.972300 0.207330 -0.042104
N12   N     N_R   0.107380 0.603790 0.058230 -0.040982
N13   N     N_R   0.473070 0.972300 0.792670 -0.038624
N14   N     N_R   0.817960 0.529130 0.792460 -0.041800
N15   N     N_R   0.182040 0.529130 0.207540 -0.036931
N16   N     N_R   0.317960 0.029130 0.792460 -0.041795
N17   N     N_R   0.682040 0.029130 0.207540 -0.036934
N18   N     N_R   0.894850 0.397640 0.943830 -0.039385
N19   N     N_R   0.105150 0.397640 0.056170 -0.042029
N20   N     N_R   0.394850 0.897640 0.943830 -0.039386
N21   N     N_R   0.605150 0.897640 0.056170 -0.042033
N22   N     N_R   0.950040 0.603780 0.055950 -0.045380
N23   N     N_R   0.392620 0.103790 0.941770 -0.041411
N24   N     N_R   0.049960 0.603780 0.944050 -0.048624
N25   N     N_R   0.450040 0.103780 0.055950 -0.045381
N26   N     N_R   0.549960 0.103780 0.944050 -0.048624
N27   N     N_R   0.607380 0.103790 0.058230 -0.040976
N28   N     N_R   0.952270 0.397640 0.058010 -0.040442
N29   N     N_R   0.047730 0.397640 0.941990 -0.042580
N30   N     N_R   0.452270 0.897640 0.058010 -0.040446
N31   N     N_R   0.547730 0.897640 0.941990 -0.042579
N32   N     N_R   0.026310 0.529110 0.206760 -0.040620
Ni1   Ni    Ni4+2 0.934160 0.565860 0.869070 0.210754
Ni2   Ni    Ni4+2 0.065840 0.565860 0.130930 0.231631
Ni3   Ni    Ni4+2 0.434160 0.065860 0.869070 0.210761
Ni4   Ni    Ni4+2 0.565840 0.065860 0.130930 0.231617
Ni5   Ni    Ni4+2 0.067260 0.435560 0.132230 0.212495
Ni6   Ni    Ni4+2 0.932740 0.435560 0.867770 0.212584
Ni7   Ni    Ni4+2 0.567260 0.935560 0.132230 0.212483
Ni8   Ni    Ni4+2 0.432740 0.935560 0.867770 0.212583

loop_
_geom_bond_atom_site_label_1
_geom_bond_atom_site_label_2
_ccdc_geom_bond_type
C44   C49   A    
C3    N17   A    
C83   C87   A    
C93   C94   S    
C38   H3    S    
C99   H47   S    
C73   C75   S    
N26   Ni3   S    
C111  N15   A    
C2    C84   S    
C95   C96   S    
C95   H33   S    
C9    C14   A    
C25   N12   A    
C19   C31   S    
C104  H51   S    
C76   H24   S    
N6    Ni5   S    
N18   N28   A    
C57   C62   A    
N20   N30   A    
N5    Ni6   S    
C43   C78   S    
C1    C12   A    
C98   N2    A    
N13   Ni8   S    
C49   C60   A    
C22   C32   S    
N3    Ni4   S    
C55   H38   S    
C33   C38   S    
C30   H74   S    
N2    Ni1   S    
C35   C37   S    
C24   C26   S    
C108  N11   A    
C8    N22   A    
C10   C15   A    
N23   N25   A    
C36   N23   A    
C38   C39   S    
N20   Ni8   S    
C76   H19   S    
C101  N5    A    
C96   H43   S    
N3    N11   A    
C52   H8    S    
C65   C70   A    
C15   C65   S    
C99   N3    A    
C2    C107  A    
C4    N18   A    
C7    H65   S    
C67   C72   S    
C42   C46   A    
C97   H44   S    
N32   Ni2   S    
N4    N13   A    
C24   C29   S    
C72   C78   S    
N15   Ni2   S    
C20   C112  A    
C19   C103  A    
C3    H61   S    
C105  N8    A    
C49   H5    S    
C98   H46   S    
C29   C33   S    
C44   C58   S    
C35   H76   S    
C73   H11   S    
C48   C91   S    
N29   Ni6   S    
C70   C74   S    
C61   I4    S    
C51   H7    S    
C71   H14   S    
C51   C57   A    
N8    Ni7   S    
N27   Ni4   S    
C92   H30   S    
C43   C48   A    
N23   Ni3   S    
C97   C102  A    
N21   Ni7   S    
C75   H18   S    
C81   C85   A    
N10   Ni6   S    
C20   C34   S    
C53   N28   A    
N9    Ni5   S    
N4    Ni3   S    
C83   C95   S    
C4    H62   S    
C87   C92   A    
C5    H63   S    
C29   C39   S    
N5    N14   A    
C112  H60   S    
C11   H70   S    
C1    H1    S    
C24   H67   S    
C13   C108  A    
C78   H26   S    
C16   C47   A    
C17   C100  A    
C109  H57   S    
C54   H37   S    
C100  N4    A    
C9    N24   A    
C5    N19   A    
C63   C67   A    
C75   H22   S    
C82   C96   S    
C56   C91   A    
C62   C66   A    
C72   H15   S    
C45   C69   S    
C17   C86   S    
C106  H53   S    
C18   C110  A    
C28   C32   S    
C28   C35   S    
C79   C94   S    
C86   C90   A    
C79   C81   A    
C12   C63   S    
C30   C34   S    
C54   N29   A    
C37   H2    S    
C68   C73   S    
C82   C86   A    
C103  N6    A    
C5    C69   A    
C46   C51   A    
C82   C83   A    
C53   H36   S    
C24   C34   S    
C34   C39   S    
C17   C109  A    
C77   H20   S    
C23   C31   S    
C13   C99   A    
C1    N1    A    
N7    Ni8   S    
N1    N22   A    
C88   H27   S    
C57   I1    S    
C52   C59   A    
C61   C65   A    
N19   N29   A    
C81   C93   S    
C11   C16   A    
C100  H48   S    
C26   C33   S    
C90   C92   A    
C66   C71   S    
C40   C44   A    
C8    C12   A    
C89   H28   S    
C7    C91   A    
C13   C87   S    
N14   Ni1   S    
N18   Ni6   S    
C105  H52   S    
C110  N14   A    
C32   C37   S    
C56   H39   S    
C109  N13   A    
C11   N26   A    
C112  N16   A    
C25   H12   S    
C7    N21   A    
C9    H68   S    
C74   C76   S    
C107  N10   A    
C55   N30   A    
C94   H41   S    
N28   Ni5   S    
N17   Ni4   S    
C108  H55   S    
N30   Ni7   S    
C26   C30   S    
N11   Ni7   S    
C22   C27   S    
C27   C31   S    
C47   H34   S    
C6    C80   A    
C104  N7    A    
C31   C35   S    
C3    C21   A    
C23   C28   S    
N12   Ni2   S    
C36   H23   S    
C64   C68   A    
C15   C36   A    
C71   C77   S    
N31   Ni8   S    
C26   H75   S    
C50   C61   A    
C96   H35   S    
C54   C69   A    
C103  H50   S    
C85   C89   A    
N19   Ni5   S    
C72   H10   S    
N6    N15   A    
C50   H6    S    
C71   H9    S    
N24   Ni1   S    
C77   H25   S    
C59   I2    S    
C93   H31   S    
C56   N31   A    
C53   C58   A    
C40   C75   S    
C20   C104  A    
C22   H45   S    
C19   C111  A    
C73   H16   S    
N12   N24   A    
N2    N10   A    
C59   C63   A    
N8    N17   A    
N9    N32   A    
C97   N32   A    
C60   C64   A    
C95   H42   S    
C94   H32   S    
C21   C33   S    
C101  H49   S    
C28   H72   S    
N1    Ni1   S    
N16   Ni3   S    
C2    C98   A    
C106  N9    A    
C46   C80   S    
C55   C80   A    
N21   N31   A    
N26   N27   A    
C79   C84   A    
C84   C88   A    
C47   N27   A    
C45   C50   A    
C27   C37   S    
C60   I3    S    
N7    N16   A    
C6    H64   S    
C29   H73   S    
C18   C32   S    
C102  C106  A    
C111  H59   S    
C14   C25   A    
N22   Ni2   S    
C78   H21   S    
C27   H71   S    
C107  H54   S    
C90   H29   S    
N25   Ni4   S    
C23   H56   S    
C74   H13   S    
C8    H66   S    
C48   C52   A    
C6    N20   A    
C88   C89   A    
C110  H58   S    
C42   C77   S    
C43   C67   A    
C39   H4    S    
C40   C68   A    
C74   H17   S    
C4    C58   A    
C42   C66   A    
C10   H69   S    
C41   C45   A    
C22   C23   S    
C93   H40   S    
C16   C64   S    
C30   C38   S    
C18   C101  A    
C21   C105  A    
C85   C102  S    
C10   N25   A    
C41   C70   A    
C41   C76   S    
C14   C62   S    
