data_mof_unit_16291.cif
_audit_creation_date              2012-12-10T19:46:56-0500
_audit_creation_method            fapswitch 2.2
_symmetry_space_group_name_H-M    P1
_symmetry_Int_Tables_number       1
_space_group_crystal_system       triclinic
_cell_length_a                    10.897351
_cell_length_b                    10.970481
_cell_length_c                    13.096645
_cell_angle_alpha                 90.279487
_cell_angle_beta                  91.014203
_cell_angle_gamma                 89.911089
_cell_volume                      1565.42760757

loop_
_atom_site_label
_atom_site_type_symbol
_atom_type_description
_atom_site_fract_x
_atom_site_fract_y
_atom_site_fract_z
_atom_type_partial_charge
C1    C     C_R   0.494945 0.259484 0.499722 0.940892
C2    C     C_R   0.504854 0.740358 0.500458 0.929303
C3    C     C_R   0.872813 0.509033 0.503032 -0.038331
C4    C     C_R   0.126880 0.495877 0.497047 -0.062213
C5    C     C_R   0.942048 0.520866 0.594647 0.032067
C6    C     C_R   0.057547 0.485894 0.405338 0.039553
C7    C     C_R   0.610007 0.193752 0.159392 -0.146145
C8    C     C_R   0.385354 0.795400 0.837261 -0.150832
C9    C     C_R   0.556737 0.133416 0.241227 -0.029638
C10   C     C_R   0.442463 0.855352 0.757083 -0.024531
C11   C     C_R   0.616684 0.131036 0.337043 0.205759
C12   C     C_R   0.381852 0.867026 0.662041 0.200231
C13   C     C_R   0.729696 0.191171 0.350414 -0.044886
C14   C     C_R   0.264470 0.816318 0.647606 -0.085939
C15   C     C_R   0.783929 0.248743 0.267543 -0.096345
C16   C     C_R   0.206877 0.758620 0.728762 -0.091230
C17   C     C_R   0.723892 0.250682 0.172369 -0.112876
C18   C     C_R   0.267359 0.747725 0.823292 -0.081829
C19   C     C_R   0.571265 0.936639 0.425983 0.379128
C20   C     C_R   0.432935 0.062919 0.577158 0.362866
C21   C     C_R   0.506201 0.872947 0.501649 -0.260384
C22   C     C_R   0.495291 0.126652 0.499577 -0.262094
C23   C     C_R   0.259406 0.496019 0.498798 0.861546
C24   C     C_R   0.740390 0.506312 0.501227 0.853029
C25   C     C_R   0.440719 0.935362 0.578570 -0.180331
C26   C     C_R   0.560930 0.063915 0.422738 -0.183825
C27   C     C_1   0.499934 0.499963 0.173517 0.205421
C28   C     C_1   0.500006 0.499812 0.826483 0.224251
C29   C     C_1   0.499908 0.499812 0.050693 -0.039725
C30   C     C_1   0.499983 0.499744 0.949307 -0.048910
C31   C     C_R   0.137433 0.527047 0.129080 -0.154458
C32   C     C_R   0.860425 0.486618 0.871454 -0.151985
C33   C     C_R   0.102221 0.550563 0.229092 -0.151624
C34   C     C_R   0.897477 0.461098 0.772233 -0.138662
C35   C     C_R   0.110263 0.459538 0.303849 0.028865
C36   C     C_R   0.888813 0.549844 0.695582 0.028999
C37   C     C_R   0.157074 0.342883 0.277467 -0.003530
C38   C     C_R   0.839957 0.666609 0.719392 -0.019045
C39   C     C_R   0.195133 0.321711 0.176849 -0.234920
C40   C     C_R   0.800036 0.689610 0.819327 -0.241936
C41   C     C_R   0.182542 0.411895 0.101603 0.012192
C42   C     C_R   0.812649 0.601411 0.896339 0.002563
C43   C     C_R   0.931247 0.495574 0.409642 -0.168761
C44   C     C_R   0.068460 0.510854 0.590423 -0.201687
Cu1   Cu    Cu3+1 0.499990 0.499990 0.592680 1.053301
Cu2   Cu    Cu3+1 0.500010 0.500010 0.407320 1.042658
H1    H     H_    0.777020 0.190087 0.423832 0.129874
H2    H     H_    0.216647 0.824735 0.574777 0.135078
H3    H     H_    0.873298 0.290280 0.276548 0.144081
H4    H     H_    0.114712 0.723835 0.718902 0.143838
H5    H     H_    0.127148 0.598495 0.072776 0.168194
H6    H     H_    0.870817 0.416693 0.929058 0.175909
H7    H     H_    0.065200 0.639467 0.247862 0.165985
H8    H     H_    0.935973 0.372241 0.755471 0.165144
H9    H     H_    0.229485 0.232445 0.155957 0.209212
H10   H     H_    0.763908 0.778733 0.838490 0.202419
H11   H     H_    0.877977 0.489762 0.339104 0.155015
H12   H     H_    0.121783 0.517630 0.660894 0.179437
H13   H     H_    0.765941 0.295637 0.108507 0.169337
H14   H     H_    0.222461 0.703143 0.885935 0.167366
H15   H     H_    0.563519 0.195472 0.085683 0.165084
H16   H     H_    0.432104 0.786870 0.910493 0.161653
H17   H     H_    0.469293 0.088083 0.230008 0.165408
H18   H     H_    0.533082 0.893701 0.769132 0.165095
N1    N     N_1   0.500030 0.500030 0.268070 -0.123663
N2    N     N_1   0.499970 0.499970 0.731930 -0.116186
O1    O     O_R   0.499980 0.319630 0.578260 -0.505917
O2    O     O_R   0.500020 0.680370 0.421740 -0.522063
O3    O     O_R   0.500000 0.319650 0.421740 -0.603327
O4    O     O_R   0.500000 0.680350 0.578260 -0.604408
O5    O     O_R   0.319630 0.500000 0.578260 -0.550895
O6    O     O_R   0.680370 0.500000 0.421740 -0.569804
O7    O     O_R   0.319650 0.500020 0.421740 -0.600994
O8    O     O_R   0.680350 0.499980 0.578260 -0.603341
C45   C     C_2   0.212257 0.383846 0.993918 0.824983
O9    O     O_2   0.193733 0.459659 0.927187 -0.625254
O10   O     O_R   0.260340 0.269791 0.968079 -0.746159
H19   H     H_    0.274312 0.261085 0.892141 0.394613
C46   C     C_2   0.779818 0.630149 0.003345 0.831535
O11   O     O_2   0.730720 0.727278 0.024187 -0.573939
O12   O     O_R   0.805805 0.546422 0.081044 -0.797913
H20   H     H_    0.779903 0.576676 0.150721 0.348251
S1    S     S_3+6 0.669661 0.857348 0.338428 0.011614
O13   O     O_2   0.734542 0.754746 0.392352 -0.295836
O14   O     O_2   0.591605 0.806210 0.252709 -0.280454
O15   O     O_3   0.778490 0.946087 0.288160 -0.521435
H21   H     H_    0.818034 0.894619 0.235759 0.387083
S2    S     S_3+6 0.343512 0.143073 0.670855 -0.002664
O16   O     O_2   0.254909 0.063607 0.726578 -0.304535
O17   O     O_2   0.430036 0.198714 0.748516 -0.276955
O18   O     O_3   0.261862 0.254760 0.614326 -0.536495
H22   H     H_    0.176881 0.223440 0.608210 0.378932
C47   C     C_2   0.162026 0.239488 0.350422 0.837201
O19   O     O_2   0.088026 0.232369 0.419222 -0.615396
O20   O     O_R   0.249606 0.147464 0.338264 -0.780821
H23   H     H_    0.243711 0.081634 0.392026 0.338124
C48   C     C_2   0.834744 0.768486 0.644670 0.847878
O21   O     O_2   0.904838 0.771424 0.572874 -0.568243
O22   O     O_R   0.751493 0.864053 0.658537 -0.783274
H24   H     H_    0.757456 0.928806 0.603876 0.345674

loop_
_geom_bond_atom_site_label_1
_geom_bond_atom_site_label_2
_ccdc_geom_bond_type
C47   O19   D    
C27   C29   S    
O20   H23   S    
O12   H20   S    
C39   C41   A    
O10   H19   S    
C3    C43   A    
C19   C21   A    
C16   H4    S    
C2    O2    A    
Cu1   O5    S    
C20   C25   A    
C5    C36   S    
C6    C35   S    
C7    C9    A    
C19   C26   A    
C32   H6    S    
Cu2   O3    S    
C33   C35   A    
C7    H15   S    
S1    O13   D    
C44   H12   S    
C40   H10   S    
Cu1   O1    S    
C31   C33   A    
Cu2   O6    S    
C40   C42   A    
C1    C22   S    
C47   O20   S    
C3    C24   S    
C23   O7    A    
C38   C48   S    
C19   S1    S    
C48   O22   S    
C48   O21   D    
C33   H7    S    
C39   H9    S    
C23   O5    A    
Cu2   N1    S    
C4    C6    A    
C31   H5    S    
O18   H22   S    
C46   O12   S    
C4    C23   S    
O15   H21   S    
C14   H2    S    
C4    C44   A    
C11   C26   S    
C7    C17   A    
Cu1   Cu2   S    
C8    C18   A    
Cu1   O8    S    
C32   C34   A    
C28   N2    T    
C45   O9    D    
Cu2   O2    S    
C29   C30   T    
C27   N1    T    
C41   C45   S    
C45   O10   S    
O22   H24   S    
S2    O18   S    
C2    C21   S    
C37   C47   S    
C16   C18   A    
C9    C11   A    
C10   C12   A    
C17   H13   S    
C18   H14   S    
S1    O14   D    
C5    C44   A    
S2    O17   D    
C34   H8    S    
C6    C43   A    
C13   C15   A    
C14   C16   A    
C24   O6    A    
C13   H1    S    
C15   C17   A    
C21   C25   A    
C31   C41   A    
C35   C37   A    
Cu1   O4    S    
C9    H17   S    
C10   H18   S    
C20   C22   A    
C3    C5    A    
C12   C25   S    
C36   C38   A    
C12   C14   A    
C37   C39   A    
C38   C40   A    
C11   C13   A    
C24   O8    A    
C20   S2    S    
C28   C30   S    
C1    O1    A    
C34   C36   A    
C15   H3    S    
C1    O3    A    
C43   H11   S    
C46   O11   D    
C42   C46   S    
S1    O15   S    
S2    O16   D    
C8    C10   A    
C22   C26   A    
Cu1   N2    S    
C32   C42   A    
C2    O4    A    
Cu2   O7    S    
C8    H16   S    
