data_mof_unit_51168.cif
_audit_creation_date              2012-12-11T15:47:03-0500
_audit_creation_method            fapswitch 2.2
_symmetry_space_group_name_H-M    P1
_symmetry_Int_Tables_number       1
_space_group_crystal_system       triclinic
_cell_length_a                    11.490217
_cell_length_b                    11.551412
_cell_length_c                    19.549921
_cell_angle_alpha                 90.301032
_cell_angle_beta                  89.878605
_cell_angle_gamma                 59.384751
_cell_volume                      2233.05905379

loop_
_atom_site_label
_atom_site_type_symbol
_atom_type_description
_atom_site_fract_x
_atom_site_fract_y
_atom_site_fract_z
_atom_type_partial_charge
C1    C     C_R   0.618902 0.090465 0.606905 0.553532
C2    C     C_1   0.636746 0.127981 0.674130 0.008398
C3    C     C_R   0.655757 0.669127 0.192747 0.014016
C4    C     C_R   0.614223 0.743183 0.598018 0.537563
C5    C     C_R   0.558378 0.660282 0.231898 0.050707
C6    C     C_R   0.558715 0.668066 0.301197 0.085141
C7    C     C_R   0.744288 0.709029 0.296053 -0.178570
C8    C     C_R   0.744600 0.701304 0.224840 -0.180905
C9    C     C_3   0.525137 0.550232 0.235240 -0.254614
C10   C     C_3   0.525277 0.560878 0.312115 -0.267217
C11   C     C_R   0.653667 0.686942 0.334646 0.011995
C12   C     C_1   0.652320 0.683117 0.664208 0.003460
C13   C     C_R   0.157520 0.190607 0.188135 -0.023737
C14   C     C_R   0.177641 0.280772 0.226490 0.010695
C15   C     C_R   0.199079 0.263344 0.295232 -0.025341
C16   C     C_R   0.240597 0.145600 0.598141 0.543547
C17   C     C_R   0.205496 0.051465 0.289147 0.227309
C18   C     C_R   0.182495 0.070144 0.218609 -0.134506
C19   C     C_3   0.091724 0.430403 0.234761 -0.257244
C20   C     C_3   0.116383 0.410242 0.310862 -0.269448
C21   C     C_R   0.204865 0.154707 0.329210 0.036962
C22   C     C_R   0.663438 0.168164 0.187636 0.015439
C23   C     C_1   0.126812 0.198844 0.859250 0.003682
C24   C     C_R   0.756385 0.045301 0.218077 -0.034922
C25   C     C_R   0.738929 0.015425 0.283898 -0.000898
C26   C     C_R   0.521405 0.218910 0.288622 -0.150287
C27   C     C_R   0.539580 0.249980 0.221298 -0.161827
C28   C     C_R   0.618511 0.079901 0.394717 0.570547
C29   C     C_3   0.906226 0.981353 0.226911 -0.177808
C30   C     C_3   0.886411 0.950906 0.299570 0.292606
C31   C     C_R   0.626766 0.105842 0.322273 0.038334
C32   C     C_R   0.082033 0.231014 0.928601 0.535525
C33   C     C_R   0.709834 0.545751 0.922631 0.540653
C34   C     C_1   0.170882 0.170725 0.727661 -0.029400
C35   C     C_R   0.735052 0.226887 0.922261 0.533849
C36   C     C_R   0.085341 0.234700 0.124325 0.551083
C37   C     C_R   0.681431 0.612673 0.125197 0.555321
C38   C     C_R   0.706621 0.209131 0.126340 0.549543
C39   C     C_R   0.619211 0.736880 0.403189 0.539078
C40   C     C_R   0.246888 0.138943 0.400279 0.567332
C41   C     C_1   0.699628 0.580608 0.851792 -0.002024
C42   C     C_1   0.673846 0.644411 0.722408 -0.026634
C43   C     C_1   0.690032 0.608355 0.791992 -0.029301
C44   C     C_1   0.149923 0.182528 0.798872 -0.030695
C45   C     C_1   0.194595 0.161387 0.667323 0.007561
C46   C     C_1   0.699004 0.206050 0.855335 0.004041
C47   C     C_1   0.652843 0.156165 0.731244 -0.026317
C48   C     C_1   0.675110 0.185017 0.798277 -0.027013
Cl1   Cl    Cl    0.223012 0.903129 0.323945 -0.570352
Cr1   Cr    Cr6+3 0.404720 0.198220 0.499960 1.032688
Cr2   Cr    Cr6+3 0.698290 0.897110 0.500380 1.050646
Cr3   Cr    Cr6+3 0.396970 0.904720 0.499610 1.092902
Cr4   Cr    Cr6+3 0.926290 0.152010 0.028150 1.021311
Cr5   Cr    Cr6+3 0.921440 0.451830 0.027490 1.025107
Cr6   Cr    Cr6+3 0.626370 0.446880 0.028730 1.024214
F1    F     F_    0.912787 0.024885 0.346490 -0.565116
H1    H     H_    0.813690 0.732714 0.320795 0.125630
H2    H     H_    0.819411 0.711077 0.195699 0.124700
H3    H     H_    0.609099 0.452471 0.215970 0.157889
H4    H     H_    0.423658 0.581856 0.213933 0.151685
H5    H     H_    0.423597 0.600325 0.335490 0.192533
H6    H     H_    0.608559 0.469799 0.336818 0.146849
H7    H     H_    0.173080 0.995749 0.189055 0.150188
H8    H     H_    0.984662 0.468537 0.221067 0.166271
H9    H     H_    0.138583 0.484186 0.210899 0.135884
H10   H     H_    0.178386 0.451574 0.330951 0.147788
H11   H     H_    0.023558 0.437285 0.340968 0.150441
H12   H     H_    0.429494 0.288201 0.315726 0.141111
H13   H     H_    0.461990 0.341991 0.198128 0.121967
H14   H     H_    0.940954 0.055048 0.223523 0.189524
H15   H     H_    0.963666 0.889501 0.194694 0.091063
H16   H     H_    0.936850 0.841878 0.310986 0.112233
O1    O     O_R   0.267750 0.231960 0.575440 -0.510616
O2    O     O_R   0.596230 0.579400 0.952760 -0.498709
O3    O     O_R   0.639160 0.321170 0.958690 -0.499014
O4    O     O_R   0.527290 0.186640 0.570530 -0.479049
O5    O     O_R   0.821370 0.124220 0.104400 -0.514728
O6    O     O_R   0.037020 0.167050 0.097880 -0.508536
O7    O     O_R   0.056310 0.349620 0.102920 -0.511472
O8    O     O_R   0.797790 0.564880 0.097980 -0.501460
O9    O     O_R   0.596000 0.584270 0.104310 -0.514967
O10   O     O_R   0.638950 0.325690 0.099180 -0.505086
O11   O     O_3   0.824700 0.350240 0.028120 -0.286039
O12   O     O_R   0.685950 0.784660 0.430010 -0.536132
O13   O     O_R   0.728110 0.003450 0.576380 -0.481532
O14   O     O_R   0.682980 0.789190 0.570500 -0.510499
O15   O     O_R   0.499300 0.771880 0.575540 -0.498946
O16   O     O_R   0.285350 0.030870 0.569740 -0.486334
O17   O     O_R   0.270960 0.227070 0.423890 -0.541566
O18   O     O_R   0.530270 0.182120 0.430040 -0.496659
O19   O     O_R   0.731320 0.998570 0.424830 -0.438025
O20   O     O_R   0.502510 0.767000 0.423980 -0.470653
O21   O     O_R   0.288320 0.026340 0.429250 -0.428626
O22   O     O_3   0.499990 0.000020 0.499980 -0.309856
O23   O     O_R   0.821590 0.119350 0.952850 -0.491467
O24   O     O_R   0.037230 0.162540 0.957390 -0.506987
O25   O     O_R   0.056530 0.344750 0.951370 -0.507195
O26   O     O_R   0.798000 0.560370 0.957490 -0.482212

loop_
_geom_bond_atom_site_label_1
_geom_bond_atom_site_label_2
_ccdc_geom_bond_type
C25   C31   A    
Cr4   O23   S    
C20   H11   S    
C19   C20   S    
C40   O21   A    
Cr2   O13   S    
C7    C8    A    
C4    O15   A    
C7    C11   A    
C35   O3    A    
C26   C27   A    
C13   C18   A    
C20   H10   S    
C39   O12   A    
C33   O26   A    
C5    C6    A    
C18   H7    S    
C4    O14   A    
C22   C38   S    
C32   O25   A    
C1    C2    S    
C24   C29   S    
C12   C42   T    
Cr2   O19   S    
Cr6   O2    S    
Cr1   O18   S    
Cr5   O25   S    
Cr3   O22   S    
C40   O17   A    
C4    C12   S    
C9    C10   S    
C27   H13   S    
Cr6   O3    S    
C26   C31   A    
C13   C14   A    
C38   O10   A    
Cr4   O24   S    
C41   C43   T    
C37   O9    A    
C10   H6    S    
Cr2   O14   S    
Cr5   O11   S    
Cr5   O8    S    
C28   C31   S    
C1    O13   A    
C15   C20   S    
C37   O8    A    
C46   C48   T    
C16   O1    A    
Cr3   O16   S    
C34   C44   S    
C24   C25   A    
C13   C36   S    
C3    C8    A    
Cr1   O1    S    
C17   Cl1   S    
C6    C11   A    
Cr1   O22   S    
C29   H14   S    
C30   F1    S    
C17   C21   A    
C23   C44   T    
C9    H3    S    
Cr4   O5    S    
C5    C9    S    
C29   C30   S    
Cr1   O4    S    
Cr1   O17   S    
C47   C48   S    
C19   H8    S    
C17   C18   A    
Cr3   O21   S    
C34   C45   T    
Cr6   O10   S    
C11   C39   S    
C32   O24   A    
C22   C27   A    
C22   C24   A    
Cr3   O20   S    
C10   H5    S    
Cr6   O9    S    
C42   C43   S    
Cr6   O11   S    
C39   O20   A    
Cr5   O7    S    
C25   C30   S    
C8    H2    S    
C1    O4    A    
C14   C19   S    
Cr3   O15   S    
C3    C5    A    
C36   O7    A    
C16   C45   S    
C6    C10   S    
C30   H16   S    
C38   O5    A    
C35   O23   A    
C2    C47   T    
Cr4   O11   S    
C9    H4    S    
C33   C41   S    
C23   C32   S    
Cr4   O6    S    
C26   H12   S    
C36   O6    A    
C21   C40   S    
C19   H9    S    
C28   O19   A    
Cr2   O22   S    
C33   O2    A    
C15   C21   A    
C3    C37   S    
C16   O16   A    
C14   C15   A    
Cr5   O26   S    
C28   O18   A    
C35   C46   S    
Cr2   O12   S    
C7    H1    S    
C29   H15   S    
