data_mof_unit_53536.cif
_audit_creation_date              2012-12-10T19:10:04-0500
_audit_creation_method            fapswitch 2.2
_symmetry_space_group_name_H-M    P1
_symmetry_Int_Tables_number       1
_space_group_crystal_system       triclinic
_cell_length_a                    10.894391
_cell_length_b                    10.746888
_cell_length_c                    9.603811
_cell_angle_alpha                 90.276373
_cell_angle_beta                  90.890346
_cell_angle_gamma                 90.558467
_cell_volume                      1124.21879261

loop_
_atom_site_label
_atom_site_type_symbol
_atom_type_description
_atom_site_fract_x
_atom_site_fract_y
_atom_site_fract_z
_atom_type_partial_charge
C1    C     C_R   0.499550 0.262808 0.499531 0.785721
C2    C     C_R   0.198230 0.387032 0.969992 -0.108341
C3    C     C_R   0.931853 0.477212 0.377354 -0.254786
C4    C     C_R   0.871603 0.484051 0.504049 -0.092389
C5    C     C_R   0.941287 0.480662 0.628898 0.001107
C6    C     C_R   0.068000 0.492265 0.623266 -0.250699
C7    C     C_R   0.128338 0.490299 0.495875 -0.086426
C8    C     C_R   0.058845 0.475642 0.371303 -0.004660
C9    C     C_R   0.897745 0.536336 0.874874 -0.164418
C10   C     C_R   0.849783 0.506367 0.004145 -0.147058
C11   C     C_R   0.793606 0.390402 0.024951 -0.101408
C12   C     C_R   0.262368 0.496916 0.498526 0.783087
C13   C     C_R   0.785897 0.303988 0.916156 -0.141646
C14   C     C_R   0.833116 0.333961 0.786184 -0.090665
C15   C     C_R   0.888089 0.451005 0.764785 0.147517
C16   C     C_R   0.395508 0.063637 0.540844 0.108963
C17   C     C_R   0.497937 0.129640 0.496027 -0.068486
C18   C     C_R   0.592265 0.065333 0.429710 -0.225994
C19   C     C_R   0.591915 0.935279 0.430542 -0.226503
C20   C     C_R   0.496930 0.870542 0.497050 -0.042279
C21   C     C_R   0.394133 0.935938 0.539931 0.105163
C22   C     C_3   0.317177 0.929545 0.667118 -0.463297
C23   C     C_R   0.498231 0.737237 0.499970 0.802360
C24   C     C_3   0.321088 0.071467 0.669513 -0.490278
C25   C     C_R   0.499659 0.609213 0.074255 0.207282
C26   C     C_R   0.490700 0.392264 0.073258 -0.066796
C27   C     C_R   0.491190 0.392224 0.925338 -0.093044
C28   C     C_R   0.500637 0.609402 0.927152 0.282942
C29   C     C_3   0.598260 0.708393 0.927234 0.150160
C30   C     C_3   0.593703 0.710236 0.085267 -0.539905
C31   C     C_R   0.737517 0.493947 0.501398 0.779289
C32   C     C_R   0.187726 0.511690 0.010458 -0.134213
C33   C     C_R   0.143975 0.541577 0.142435 -0.110282
C34   C     C_R   0.112454 0.446390 0.235076 0.146719
C35   C     C_R   0.124379 0.321552 0.194374 -0.131852
C36   C     C_R   0.167172 0.292120 0.062052 -0.144887
Cu1   Cu    Cu3+1 0.499990 0.499980 0.640670 0.950918
Cu2   Cu    Cu3+1 0.500010 0.500020 0.359330 0.939333
H1    H     H_    0.231734 0.363571 0.867829 0.134695
H2    H     H_    0.755072 0.367245 0.124697 0.134493
H3    H     H_    0.742570 0.214260 0.932290 0.114891
H4    H     H_    0.826843 0.266406 0.702221 0.102729
H5    H     H_    0.668312 0.115267 0.383729 0.137543
H6    H     H_    0.667751 0.885710 0.385095 0.139807
H7    H     H_    0.224032 0.890995 0.643671 0.181173
H8    H     H_    0.364263 0.886791 0.757591 0.264134
H9    H     H_    0.229995 0.114167 0.649642 0.189020
H10   H     H_    0.373935 0.110758 0.759713 0.203782
H11   H     H_    0.484483 0.304249 0.126473 0.147321
H12   H     H_    0.212645 0.585131 0.939252 0.120411
H13   H     H_    0.485256 0.304131 0.871195 0.143593
H14   H     H_    0.686116 0.676769 0.882493 0.133631
H15   H     H_    0.679656 0.679637 0.137400 0.174563
H16   H     H_    0.554903 0.797131 0.129039 0.220727
H17   H     H_    0.134026 0.638236 0.172170 0.109769
H18   H     H_    0.099189 0.247316 0.264604 0.113811
H19   H     H_    0.175958 0.195795 0.030682 0.124857
H20   H     H_    0.879558 0.467974 0.282479 0.157437
H21   H     H_    0.119742 0.496782 0.719872 0.160618
H22   H     H_    0.941345 0.626239 0.860205 0.114877
H23   H     H_    0.856407 0.574163 0.087192 0.115711
N1    N     N_R   0.500790 0.500930 0.147930 -0.182711
N2    N     N_R   0.500790 0.500890 0.852020 -0.214271
O1    O     O_R   0.500000 0.319640 0.618810 -0.592371
O2    O     O_R   0.500010 0.319680 0.381230 -0.593124
O3    O     O_R   0.319640 0.499990 0.618790 -0.595609
O4    O     O_R   0.319650 0.500030 0.381210 -0.565767
O5    O     O_R   0.499990 0.680320 0.618770 -0.541877
O6    O     O_R   0.500000 0.680360 0.381190 -0.587069
O7    O     O_R   0.680350 0.499970 0.618790 -0.570568
O8    O     O_R   0.680360 0.500010 0.381210 -0.593728
O9    O     O_3   0.555400 0.819319 0.869636 -0.735799
H24   H     H_    0.626131 0.878172 0.872574 0.323053

loop_
_geom_bond_atom_site_label_1
_geom_bond_atom_site_label_2
_ccdc_geom_bond_type
C33   H17   S    
C16   C21   A    
C23   O6    A    
C19   C20   A    
C13   H3    S    
C7    C8    A    
C12   O4    A    
C25   C28   A    
C30   H16   S    
C26   C27   A    
Cu1   Cu2   S    
C28   C29   S    
C18   C19   A    
C5    C6    A    
Cu1   O5    S    
C2    C32   A    
C34   C35   A    
C2    H1    S    
C31   O7    A    
C35   C36   A    
C16   C17   A    
C1    O2    A    
Cu2   O2    S    
C13   C14   A    
C9    C10   A    
C14   H4    S    
C29   O9    S    
C31   O8    A    
Cu2   O6    S    
C16   C24   S    
Cu1   O7    S    
Cu1   N2    S    
C27   H13   S    
C33   C34   A    
C7    C12   S    
C30   H15   S    
C24   H10   S    
C3    C8    A    
C26   H11   S    
O9    H24   S    
C12   O3    A    
C23   O5    A    
C28   N2    A    
C29   C30   S    
C20   C23   S    
Cu1   O3    S    
C17   C18   A    
C8    C34   S    
C20   C21   A    
C32   H12   S    
C27   N2    A    
C22   H8    S    
C36   H19   S    
C22   C24   S    
C10   H23   S    
C3    C4    A    
C1    O1    A    
Cu1   O1    S    
C19   H6    S    
C2    C36   A    
C25   C30   S    
Cu2   O8    S    
C35   H18   S    
C24   H9    S    
C6    H21   S    
C4    C5    A    
C6    C7    A    
C1    C17   S    
C9    H22   S    
C32   C33   A    
C26   N1    A    
C18   H5    S    
C11   C13   A    
C25   N1    A    
C9    C15   A    
C11   H2    S    
C5    C15   S    
C4    C31   S    
C10   C11   A    
C3    H20   S    
C22   H7    S    
Cu2   O4    S    
C14   C15   A    
C21   C22   S    
Cu2   N1    S    
C29   H14   S    
