data_mof_unit_11977.cif
_audit_creation_date              2012-12-10T17:35:03-0500
_audit_creation_method            fapswitch 2.2
_symmetry_space_group_name_H-M    P1
_symmetry_Int_Tables_number       1
_space_group_crystal_system       triclinic
_cell_length_a                    12.518921
_cell_length_b                    13.27644
_cell_length_c                    13.798475
_cell_angle_alpha                 108.436088
_cell_angle_beta                  74.082528
_cell_angle_gamma                 117.493361
_cell_volume                      1907.43416177

loop_
_atom_site_label
_atom_site_type_symbol
_atom_type_description
_atom_site_fract_x
_atom_site_fract_y
_atom_site_fract_z
_atom_type_partial_charge
C1    C     C_R   0.144076 0.713497 0.509236 0.809787
C2    C     C_1   0.967054 0.498844 0.791295 -0.198287
C3    C     C_R   0.727680 0.965857 0.365387 -0.192517
C4    C     C_R   0.773731 0.162425 0.465934 -0.039892
C5    C     C_R   0.183363 0.921183 0.579077 -0.194635
C6    C     C_R   0.262639 0.037741 0.601787 -0.149516
C7    C     C_R   0.386871 0.072221 0.566431 -0.199359
C8    C     C_R   0.434503 0.990420 0.503078 0.080129
C9    C     C_R   0.351278 0.873668 0.470522 0.096677
C10   C     C_R   0.561717 0.020758 0.469834 0.068916
C11   C     C_R   0.602644 0.937195 0.398725 0.167593
C12   C     C_R   0.981308 0.500856 0.685789 0.839014
C13   C     C_R   0.518400 0.827111 0.359023 -0.247851
C14   C     C_R   0.394734 0.796635 0.392538 -0.196752
C15   C     C_R   0.649927 0.131782 0.504974 -0.258651
C16   C     C_R   0.812931 0.078343 0.398235 -0.198739
C17   C     C_R   0.226507 0.837618 0.516002 -0.098706
C18   C     C_R   0.671333 0.706376 0.637367 -0.279868
C19   C     C_R   0.231148 0.328957 0.384421 0.077974
C20   C     C_R   0.296885 0.272081 0.391472 -0.254266
C21   C     C_R   0.391797 0.332117 0.449458 -0.150617
C22   C     C_R   0.434018 0.453320 0.488296 -0.081196
C23   C     C_R   0.856322 0.286072 0.485384 0.767313
C24   C     C_R   0.349105 0.501317 0.499216 0.180245
C25   C     C_R   0.548489 0.524079 0.528294 -0.043039
C26   C     C_R   0.568679 0.637618 0.587731 0.068405
C27   C     C_R   0.484375 0.681798 0.600985 -0.352276
C28   C     C_R   0.368315 0.609665 0.574536 0.456602
C29   C     C_R   0.650964 0.494806 0.502540 0.250655
C30   C     C_R   0.757560 0.664398 0.625381 0.054071
C31   C     C_R   0.015977 0.495322 0.313617 0.786055
C32   C     C_1   0.025890 0.492527 0.207603 -0.175953
C33   C     C_2   0.038176 0.487657 0.012908 -0.168498
C34   C     C_2   0.951296 0.499699 0.985517 -0.161985
C35   C     C_1   0.957895 0.498703 0.880089 -0.005384
C36   C     C_1   0.032686 0.490173 0.118558 0.000219
Cu1   Cu    Cu3+1 0.899780 0.525060 0.522890 0.920061
Cu2   Cu    Cu3+1 0.100220 0.474940 0.477110 0.961847
H1    H     H_    0.876109 0.511904 0.042116 0.155145
H2    H     H_    0.333920 0.712667 0.354218 0.167109
H3    H     H_    0.836600 0.716620 0.664256 0.124823
H4    H     H_    0.503272 0.770829 0.643747 0.167912
H5    H     H_    0.683862 0.791660 0.686546 0.138805
H6    H     H_    0.153414 0.280536 0.343750 0.119977
H7    H     H_    0.423120 0.280733 0.471540 0.137727
H8    H     H_    0.269356 0.179871 0.357777 0.142978
H9    H     H_    0.113844 0.476303 0.956325 0.147636
H10   H     H_    0.908457 0.100807 0.367155 0.143043
H11   H     H_    0.548166 0.764285 0.301088 0.142186
H12   H     H_    0.759201 0.902266 0.311110 0.131677
H13   H     H_    0.624884 0.197581 0.561556 0.150787
H14   H     H_    0.088450 0.896053 0.613508 0.147920
H15   H     H_    0.442430 0.163955 0.588521 0.122429
H16   H     H_    0.228105 0.101583 0.650109 0.141993
N1    N     N_R   0.748810 0.563010 0.557590 -0.194017
N2    N     N_R   0.250540 0.437620 0.443020 -0.197212
O1    O     O_R   0.025040 0.682470 0.528790 -0.593008
O2    O     O_R   0.194310 0.640150 0.490130 -0.522021
O3    O     O_R   0.903380 0.524130 0.659910 -0.576656
O4    O     O_R   0.072660 0.481800 0.621240 -0.526113
O5    O     O_R   0.805690 0.359850 0.509870 -0.607575
O6    O     O_R   0.974960 0.317530 0.471210 -0.591525
O7    O     O_R   0.927340 0.518200 0.378760 -0.588181
O8    O     O_R   0.096620 0.475870 0.340090 -0.586290
C37   C     C_3   0.663529 0.406996 0.401250 -0.347568
C38   C     C_3   0.672042 0.448618 0.306095 -0.361010
C39   C     C_3   0.678360 0.357623 0.206577 -0.849093
H17   H     H_    0.760055 0.340383 0.196018 0.256460
H18   H     H_    0.595373 0.275083 0.208933 0.257354
H19   H     H_    0.683837 0.389825 0.139534 0.239205
H20   H     H_    0.591843 0.466175 0.311744 0.228425
H21   H     H_    0.754802 0.530997 0.301441 0.232069
H22   H     H_    0.741253 0.387640 0.389218 0.251645
H23   H     H_    0.594268 0.318167 0.399510 0.154192
O9    O     O_3   0.276185 0.645414 0.626757 -0.531106
C40   C     C_3   0.268244 0.672553 0.736364 0.067639
H24   H     H_    0.355038 0.707239 0.766506 0.119116
H25   H     H_    0.208461 0.592670 0.765961 0.156472
C41   C     C_3   0.215916 0.763765 0.783366 -0.798268
H26   H     H_    0.128514 0.734731 0.756195 0.238392
H27   H     H_    0.199928 0.779070 0.869006 0.204881
H28   H     H_    0.281106 0.846826 0.760095 0.244070

loop_
_geom_bond_atom_site_label_1
_geom_bond_atom_site_label_2
_ccdc_geom_bond_type
C19   N2    A    
C2    C35   T    
Cu2   O4    S    
C19   C20   A    
C18   C26   A    
C40   C41   S    
C9    C14   A    
C2    C12   S    
C16   H10   S    
C7    C8    A    
C26   C27   A    
C32   C36   T    
C40   H25   S    
C10   C15   A    
C5    C6    A    
C5    C17   A    
C33   C36   S    
C37   H22   S    
C34   C35   S    
Cu2   O2    S    
C12   O3    A    
C23   O6    A    
C38   H21   S    
C31   C32   S    
C8    C9    A    
C22   C25   A    
C5    H14   S    
C18   C30   A    
C15   H13   S    
C21   H7    S    
C38   C39   S    
C21   C22   A    
C1    O2    A    
C6    H16   S    
Cu1   O7    S    
C3    H12   S    
Cu2   O8    S    
C25   C29   A    
C39   H17   S    
C31   O7    A    
C40   H24   S    
C41   H27   S    
C4    C23   S    
C29   N1    A    
C25   C26   A    
C37   H23   S    
C34   H1    S    
C39   H18   S    
Cu1   N1    S    
C4    C16   A    
O9    C40   S    
Cu1   Cu2   S    
C1    O1    A    
C38   H20   S    
C33   C34   D    
C30   H3    S    
Cu1   O3    S    
C13   H11   S    
C9    C17   A    
C33   H9    S    
C29   C37   S    
C7    H15   S    
C19   H6    S    
C31   O8    A    
C24   C28   A    
C41   H28   S    
Cu1   O5    S    
C6    C7    A    
C24   N2    A    
C30   N1    A    
C1    C17   S    
C39   H19   S    
C4    C15   A    
C18   H5    S    
C11   C13   A    
C27   H4    S    
C22   C24   A    
Cu1   O1    S    
C3    C11   A    
C10   C11   A    
C14   H2    S    
C41   H26   S    
C12   O4    A    
C23   O5    A    
Cu2   N2    S    
C20   C21   A    
C8    C10   A    
C37   C38   S    
C27   C28   A    
C13   C14   A    
C28   O9    S    
C20   H8    S    
C3    C16   A    
Cu2   O6    S    
