data_mof_unit_25439.cif
_audit_creation_date              2012-10-26T19:52:45-0400
_audit_creation_method            fapswitch 2.2
_symmetry_space_group_name_H-M    P1
_symmetry_Int_Tables_number       1
_space_group_crystal_system       triclinic
_cell_length_a                    15.070806
_cell_length_b                    10.848126
_cell_length_c                    9.577555
_cell_angle_alpha                 90.144629
_cell_angle_beta                  89.998864
_cell_angle_gamma                 91.169314
_cell_volume                      1565.50342641

loop_
_atom_site_label
_atom_site_type_symbol
_atom_type_description
_atom_site_fract_x
_atom_site_fract_y
_atom_site_fract_z
_atom_type_partial_charge
C1    C     C_R   0.496628 0.262500 0.499910 0.548172
C2    C     C_R   0.185633 0.465270 0.623164 -0.124964
C3    C     C_R   0.231778 0.495057 0.500266 -0.008739
C4    C     C_R   0.328699 0.498835 0.500056 0.555648
C5    C     C_R   0.185442 0.519830 0.377328 -0.127018
C6    C     C_R   0.475669 0.063738 0.623259 -0.005468
C7    C     C_R   0.482670 0.129903 0.499284 -0.053655
C8    C     C_R   0.466729 0.065789 0.373640 -0.123489
C9    C     C_R   0.461788 0.936547 0.372453 0.203752
C10   C     C_R   0.477858 0.870328 0.497327 -0.010200
C11   C     C_R   0.474705 0.937367 0.621348 0.032869
C12   C     C_R   0.907530 0.512702 0.374941 0.016639
C13   C     C_3   0.520319 0.927601 0.757637 0.128089
C14   C     C_3   0.524068 0.069177 0.759815 -0.105510
C15   C     C_R   0.575314 0.529347 0.074433 0.143820
C16   C     C_R   0.493937 0.737512 0.499515 0.568947
C17   C     C_R   0.427372 0.461993 0.074009 0.017634
C18   C     C_R   0.427027 0.463294 0.925741 0.008841
C19   C     C_R   0.576558 0.527021 0.926843 0.171044
C20   C     C_3   0.629082 0.646649 0.926128 -0.143376
C21   C     C_3   0.625079 0.648341 0.084183 -0.228924
C22   C     C_R   0.671220 0.496264 0.499761 0.536191
C23   C     C_R   0.951486 0.426030 0.744096 -0.112387
C24   C     C_R   0.815209 0.514277 0.375740 -0.133743
C25   C     C_R   0.767962 0.488146 0.498472 -0.013615
C26   C     C_R   0.813420 0.453478 0.619256 -0.149809
C27   C     C_R   0.905981 0.453893 0.621239 -0.001620
C28   C     C_R   0.953368 0.484210 0.498908 0.057851
C29   C     C_3   0.471485 0.130962 0.876675 -0.332349
C30   C     C_3   0.724292 0.638194 0.872422 -0.431248
C31   C     C_3   0.090360 0.400168 0.883734 -0.409518
C32   C     C_R   0.044499 0.429258 0.748004 0.006079
C33   C     C_R   0.092613 0.459987 0.625124 0.029476
C34   C     C_R   0.046427 0.486525 0.500301 0.047576
C35   C     C_R   0.093157 0.516351 0.376472 0.013652
C36   C     C_R   0.046963 0.542886 0.253551 -0.128343
C37   C     C_R   0.954615 0.541100 0.252747 -0.133983
Cl1   Cl    Cl    0.432978 0.865131 0.213806 -0.543021
Cl2   Cl    Cl    0.445484 0.853561 0.877428 -0.546978
Cu1   Cu    Cu3+1 0.500000 0.499980 0.640670 0.970943
Cu2   Cu    Cu3+1 0.500000 0.500020 0.359330 0.984621
H1    H     H_    0.780430 0.537284 0.281040 0.115067
H2    H     H_    0.914237 0.403091 0.837716 0.103190
H3    H     H_    0.222943 0.445247 0.716565 0.125708
H4    H     H_    0.221164 0.543034 0.282333 0.139185
H5    H     H_    0.082317 0.565998 0.158348 0.115938
H6    H     H_    0.920032 0.562763 0.156925 0.105317
H7    H     H_    0.460261 0.115105 0.276039 0.163469
H8    H     H_    0.479209 0.232131 0.867701 0.131653
H9    H     H_    0.399652 0.106138 0.871351 0.191791
H10   H     H_    0.498216 0.103463 0.979792 0.175554
H11   H     H_    0.725174 0.644038 0.757178 0.168070
H12   H     H_    0.586888 0.886712 0.747324 0.081733
H13   H     H_    0.764287 0.717791 0.912509 0.133657
H14   H     H_    0.755537 0.551894 0.908025 0.127352
H15   H     H_    0.132906 0.318679 0.869853 0.135169
H16   H     H_    0.131809 0.480554 0.917692 0.130150
H17   H     H_    0.042159 0.378856 0.968501 0.131397
H18   H     H_    0.592780 0.107506 0.748957 0.111135
H19   H     H_    0.368120 0.431748 0.128619 0.113623
H20   H     H_    0.367546 0.433941 0.871047 0.108835
H21   H     H_    0.592707 0.721878 0.877856 0.205774
H22   H     H_    0.690043 0.639076 0.136815 0.110147
H23   H     H_    0.776728 0.426570 0.711836 0.120730
H24   H     H_    0.584141 0.723895 0.125966 0.214392
N1    N     N_R   0.500570 0.500930 0.147930 -0.222190
N2    N     N_R   0.500570 0.500890 0.852020 -0.225289
O1    O     O_R   0.500000 0.319640 0.618810 -0.508548
O2    O     O_R   0.500010 0.319680 0.381230 -0.514157
O3    O     O_R   0.370250 0.499950 0.618800 -0.505961
O4    O     O_R   0.370260 0.499990 0.381220 -0.506206
O5    O     O_R   0.499990 0.680320 0.618770 -0.474381
O6    O     O_R   0.500000 0.680360 0.381190 -0.448022
O7    O     O_R   0.629740 0.500010 0.618780 -0.515690
O8    O     O_R   0.629750 0.500050 0.381200 -0.512480

loop_
_geom_bond_atom_site_label_1
_geom_bond_atom_site_label_2
_ccdc_geom_bond_type
C24   H1    S    
C35   C36   A    
C16   O5    A    
C4    O3    A    
C7    C8    A    
C20   C30   S    
C15   C19   A    
C14   H18   S    
C30   H13   S    
C17   N1    A    
Cu1   O3    S    
C12   C28   A    
C31   H17   S    
C36   C37   A    
C6    C14   S    
C1    O1    A    
C23   H2    S    
C34   C35   A    
C12   C37   A    
C26   H23   S    
C19   C20   S    
C2    H3    S    
C8    C9    A    
C22   C25   S    
C19   N2    A    
C23   C27   A    
C31   H15   S    
C37   H6    S    
C9    C10   A    
Cu2   O4    S    
C28   C34   A    
C13   C14   S    
C22   O8    A    
C17   C18   A    
C13   H12   S    
C29   H9    S    
C21   H22   S    
C16   O6    A    
C24   C25   A    
C6    C11   A    
C29   H8    S    
C25   C26   A    
C15   N1    A    
C5    H4    S    
Cu1   N2    S    
C1    O2    A    
C8    H7    S    
Cu2   O8    S    
C31   C32   S    
C33   C34   A    
C26   C27   A    
C36   H5    S    
Cu2   N1    S    
C2    C33   A    
Cu1   Cu2   S    
C22   O7    A    
C14   C29   S    
C3    C4    S    
Cu2   O2    S    
C29   H10   S    
C30   H11   S    
Cu1   O5    S    
C21   H24   S    
C1    C7    S    
C3    C5    A    
C18   H20   S    
C6    C7    A    
C30   H14   S    
C12   C24   A    
C23   C32   A    
C31   H16   S    
C2    C3    A    
C18   N2    A    
C10   C16   S    
C32   C33   A    
C11   C13   S    
C5    C35   A    
C9    Cl1   S    
Cu1   O7    S    
C20   H21   S    
C13   Cl2   S    
C10   C11   A    
C17   H19   S    
Cu2   O6    S    
C15   C21   S    
C20   C21   S    
Cu1   O1    S    
C27   C28   A    
C4    O4    A    
