data_mof_unit_33708.cif
_audit_creation_date              2012-12-10T17:29:13-0500
_audit_creation_method            fapswitch 2.2
_symmetry_space_group_name_H-M    P1
_symmetry_Int_Tables_number       1
_space_group_crystal_system       triclinic
_cell_length_a                    12.003928
_cell_length_b                    12.889508
_cell_length_c                    13.132538
_cell_angle_alpha                 87.406585
_cell_angle_beta                  113.432263
_cell_angle_gamma                 93.414131
_cell_volume                      1860.53203497

loop_
_atom_site_label
_atom_site_type_symbol
_atom_type_description
_atom_site_fract_x
_atom_site_fract_y
_atom_site_fract_z
_atom_type_partial_charge
C1    C     C_R   0.477295 0.299477 0.498054 0.880463
C2    C     C_R   0.609688 0.484854 0.828955 -0.119340
C3    C     C_R   0.536223 0.811848 0.503073 -0.055810
C4    C     C_R   0.566178 0.491488 0.708500 0.863027
C5    C     C_R   0.464154 0.188147 0.497888 -0.052200
C6    C     C_R   0.358484 0.029185 0.517523 -0.219351
C7    C     C_R   0.365149 0.136730 0.512182 -0.210665
C8    C     C_R   0.555290 0.132852 0.487067 -0.278480
C9    C     C_R   0.549871 0.026087 0.493045 0.185654
C10   C     C_R   0.450816 0.973910 0.508566 0.186274
C11   C     C_R   0.445244 0.867119 0.514231 -0.279843
C12   C     C_R   0.556325 0.480726 0.988464 0.087074
C13   C     C_R   0.635443 0.863307 0.489200 -0.206871
C14   C     C_R   0.642248 0.970843 0.484158 -0.220536
C15   C     C_R   0.009392 0.602017 0.399774 -0.340522
C16   C     C_R   0.522795 0.700519 0.502199 0.890837
C17   C     C_R   0.129499 0.592108 0.409586 0.016625
C18   C     C_R   0.157489 0.455012 0.542505 -0.036957
C19   C     C_R   0.037328 0.462547 0.535910 0.095634
C20   C     C_R   0.962296 0.537096 0.463443 0.092191
C21   C     C_R   0.842016 0.544465 0.456698 -0.050915
C22   C     C_R   0.870537 0.407933 0.590416 0.017340
C23   C     C_R   0.529819 0.450655 0.879347 0.092857
C24   C     C_R   0.990339 0.397651 0.599668 -0.331319
C25   C     C_R   0.433295 0.503635 0.291487 0.875645
C26   C     C_R   0.261683 0.398218 0.008840 -0.199184
C27   C     C_R   0.391133 0.490270 0.173062 -0.057730
C28   C     C_R   0.725997 0.526634 0.893328 -0.193423
C29   C     C_R   0.759679 0.541296 0.005902 -0.147318
C30   C     C_R   0.675089 0.521261 0.053056 -0.189070
C31   C     C_R   0.462832 0.469067 0.028239 0.081797
C32   C     C_R   0.352550 0.412736 0.966949 0.181394
C33   C     C_R   0.335889 0.370081 0.866122 -0.254749
C34   C     C_R   0.423518 0.388759 0.822679 -0.207310
C35   C     C_R   0.475492 0.513532 0.126850 -0.253363
C36   C     C_R   0.281985 0.435263 0.113131 -0.200496
H1    H     H_    0.216101 0.416242 0.149147 0.156269
H2    H     H_    0.045619 0.339402 0.656236 0.135449
H3    H     H_    0.164976 0.642548 0.360344 0.129955
H4    H     H_    0.254352 0.323682 0.819992 0.135813
H5    H     H_    0.177692 0.354550 0.963255 0.135662
H6    H     H_    0.553628 0.563150 0.172630 0.139191
H7    H     H_    0.789318 0.551192 0.855914 0.158350
H8    H     H_    0.706016 0.535702 0.140525 0.130859
H9    H     H_    0.849872 0.572635 0.055810 0.141721
H10   H     H_    0.408161 0.353205 0.744891 0.153795
H11   H     H_    0.369020 0.827259 0.526243 0.162758
H12   H     H_    0.706130 0.820684 0.480464 0.158377
H13   H     H_    0.215482 0.397331 0.597167 0.116034
H14   H     H_    0.282136 0.989438 0.529233 0.139023
H15   H     H_    0.718658 0.010607 0.472568 0.138908
H16   H     H_    0.294470 0.179396 0.520886 0.156321
H17   H     H_    0.631441 0.172674 0.474890 0.162374
H18   H     H_    0.783314 0.601395 0.401069 0.116945
H19   H     H_    0.835199 0.357663 0.639889 0.128986
H20   H     H_    0.953976 0.660068 0.342937 0.140776
N1    N     N_R   0.798200 0.480260 0.519790 -0.095806
N2    N     N_R   0.201820 0.519740 0.480210 -0.097012
O1    O     O_R   0.579910 0.341070 0.505280 -0.624344
O2    O     O_R   0.388440 0.353740 0.492580 -0.632363
O3    O     O_R   0.643280 0.490550 0.663120 -0.617120
O4    O     O_R   0.451810 0.503220 0.650420 -0.608079
O5    O     O_R   0.611560 0.646260 0.507420 -0.625138
O6    O     O_R   0.420090 0.658930 0.494720 -0.623237
O7    O     O_R   0.548190 0.496780 0.349580 -0.613869
O8    O     O_R   0.356720 0.509450 0.336880 -0.619911
Zn1   Zn    Zn3+2 0.627850 0.491540 0.508480 0.938931
Zn2   Zn    Zn3+2 0.372150 0.508460 0.491520 0.939021

loop_
_geom_bond_atom_site_label_1
_geom_bond_atom_site_label_2
_ccdc_geom_bond_type
C8    H17   S    
C6    C10   A    
C5    C8    A    
O8    Zn2   S    
C9    C14   A    
C21   N1    A    
C6    C7    A    
C34   H10   S    
C16   O5    A    
C27   C36   A    
C25   C27   S    
C5    C7    A    
C9    C10   A    
O3    Zn1   S    
C28   H7    S    
C11   H11   S    
C19   C20   A    
C3    C13   A    
O4    Zn2   S    
C17   N2    A    
C23   C34   A    
O1    Zn1   S    
C32   C33   A    
C22   N1    A    
C19   C24   A    
C22   H19   S    
C13   C14   A    
C15   H20   S    
C26   C32   A    
C12   C23   A    
C30   H8    S    
C29   C30   A    
N1    Zn1   S    
C1    C5    S    
C2    C4    S    
O6    Zn2   S    
C22   C24   A    
C26   C36   A    
C28   C29   A    
C26   H5    S    
C7    H16   S    
C33   C34   A    
C31   C35   A    
C1    O1    A    
C12   C31   A    
C15   C20   A    
O5    Zn1   S    
C33   H4    S    
C3    C11   A    
C10   C11   A    
C3    C16   S    
C24   H2    S    
C4    O4    A    
C25   O7    A    
C20   C21   A    
O2    Zn2   S    
C21   H18   S    
C18   C19   A    
C17   H3    S    
C1    O2    A    
N2    Zn2   S    
C2    C23   A    
C15   C17   A    
C35   H6    S    
C36   H1    S    
C2    C28   A    
C16   O6    A    
C27   C35   A    
C12   C30   A    
C4    O3    A    
C18   N2    A    
C31   C32   A    
C6    H14   S    
C25   O8    A    
C14   H15   S    
C18   H13   S    
C29   H9    S    
C8    C9    A    
O7    Zn1   S    
C13   H12   S    
