data_mof_unit_53044.cif
_audit_creation_date              2012-12-10T18:04:49-0500
_audit_creation_method            fapswitch 2.2
_symmetry_space_group_name_H-M    P1
_symmetry_Int_Tables_number       1
_space_group_crystal_system       triclinic
_cell_length_a                    10.826341
_cell_length_b                    9.559604
_cell_length_c                    17.875225
_cell_angle_alpha                 90.184548
_cell_angle_beta                  89.780878
_cell_angle_gamma                 90.010959
_cell_volume                      1849.98277879

loop_
_atom_site_label
_atom_site_type_symbol
_atom_type_description
_atom_site_fract_x
_atom_site_fract_y
_atom_site_fract_z
_atom_type_partial_charge
C1    C     C_R   0.262195 0.499990 0.500104 0.808647
C2    C     C_R   0.737804 0.500009 0.500062 0.808853
C3    C     C_1   0.497074 0.497843 0.965505 0.244796
C4    C     C_1   0.496077 0.497833 0.032765 0.254929
C5    C     C_R   0.063854 0.372866 0.500433 -0.154728
C6    C     C_R   0.936144 0.627131 0.500361 -0.153860
C7    C     C_R   0.936084 0.372876 0.500453 -0.127103
C8    C     C_R   0.063912 0.627122 0.500428 -0.125913
C9    C     C_R   0.499338 0.499749 0.355135 0.900544
C10   C     C_R   0.500024 0.500102 0.644440 0.937187
C11   C     C_R   0.871711 0.500009 0.500294 -0.012780
C12   C     C_R   0.128287 0.499989 0.500337 -0.013277
C13   C     C_R   0.487942 0.624873 0.845917 0.199840
C14   C     C_R   0.528198 0.377068 0.152789 0.275464
C15   C     C_R   0.463482 0.619210 0.153109 0.273077
C16   C     C_R   0.510750 0.372520 0.844845 0.200625
C17   C     C_R   0.462174 0.619893 0.768897 0.232066
C18   C     C_R   0.500307 0.371239 0.229688 0.237017
C19   C     C_R   0.492919 0.626222 0.229642 0.248293
C20   C     C_R   0.537613 0.379002 0.767832 0.217900
C21   C     C_R   0.500055 0.499852 0.727586 -0.356616
C22   C     C_R   0.497514 0.499057 0.271230 -0.364327
C23   C     C_R   0.401123 0.074343 0.526976 0.063288
C24   C     C_R   0.599260 0.925767 0.473608 0.073182
C25   C     C_R   0.599167 0.074032 0.473469 0.091960
C26   C     C_R   0.400866 0.926037 0.526596 0.075885
C27   C     C_R   0.498606 0.498340 0.884989 -0.223792
C28   C     C_R   0.495588 0.497918 0.113280 -0.260414
Cu1   Cu    Cu3+1 0.500000 0.640660 0.500000 1.063944
Cu2   Cu    Cu3+1 0.500000 0.359340 0.500000 1.067255
H1    H     H_    0.321948 0.129523 0.549277 0.119872
H2    H     H_    0.679176 0.870778 0.452290 0.147480
H3    H     H_    0.678658 0.128944 0.451563 0.125411
H4    H     H_    0.321281 0.871206 0.548374 0.156403
N1    N     N_R   0.500000 0.852070 0.500000 -0.177828
N2    N     N_R   0.500000 0.147930 0.500000 -0.164722
O1    O     O_R   0.319640 0.618740 0.499990 -0.589523
O2    O     O_R   0.680360 0.381260 0.500010 -0.587857
O3    O     O_R   0.680360 0.618740 0.500010 -0.605777
O4    O     O_R   0.319640 0.381260 0.499990 -0.601436
O5    O     O_R   0.500000 0.618830 0.391250 -0.520160
O6    O     O_R   0.500000 0.381170 0.608750 -0.532334
O7    O     O_R   0.500000 0.618830 0.608750 -0.527913
O8    O     O_R   0.500000 0.381170 0.391250 -0.523629
S1    S     S_3+6 0.526028 0.786334 0.889199 0.157739
O9    O     O_2   0.411562 0.853497 0.920452 -0.098274
O10   O     O_2   0.616918 0.764830 0.951481 -0.264429
O11   O     O_3   0.590827 0.892569 0.825472 -0.341432
H5    H     H_    0.665812 0.842536 0.808142 0.349401
S2    S     S_3+6 0.616804 0.242927 0.109437 0.114303
O12   O     O_2   0.532732 0.139115 0.072526 -0.122794
O13   O     O_2   0.701208 0.305157 0.051419 -0.280628
O14   O     O_3   0.703394 0.161687 0.173925 -0.449911
H6    H     H_    0.761217 0.102205 0.144847 0.382917
S3    S     S_3+6 0.373699 0.752441 0.110813 0.112730
O15   O     O_2   0.456629 0.856069 0.072833 -0.124525
O16   O     O_2   0.288274 0.689166 0.053850 -0.281366
O17   O     O_3   0.288539 0.834264 0.176476 -0.447286
H7    H     H_    0.230312 0.893773 0.148188 0.383580
S4    S     S_3+6 0.474102 0.210000 0.886986 0.157247
O18   O     O_2   0.588494 0.146126 0.919528 -0.101304
O19   O     O_2   0.379886 0.229129 0.948160 -0.260900
O20   O     O_3   0.414681 0.101945 0.822146 -0.341253
H8    H     H_    0.339181 0.149574 0.804233 0.348405
S5    S     S_3+6 0.366226 0.751937 0.729432 0.071764
O21   O     O_2   0.445759 0.862104 0.693920 -0.188513
O22   O     O_2   0.282629 0.689952 0.671085 -0.337714
O23   O     O_3   0.276799 0.827406 0.795096 -0.420828
H9    H     H_    0.225328 0.750416 0.815201 0.356347
S6    S     S_3+6 0.447500 0.209071 0.266639 0.129345
O24   O     O_2   0.551521 0.139371 0.307459 -0.175486
O25   O     O_2   0.340823 0.231248 0.319510 -0.295544
O26   O     O_3   0.398553 0.103251 0.197829 -0.360213
H10   H     H_    0.326957 0.152281 0.175650 0.344292
S7    S     S_3+6 0.547872 0.788358 0.265644 0.121368
O27   O     O_2   0.447627 0.857353 0.310924 -0.158614
O28   O     O_2   0.658943 0.764693 0.314227 -0.328184
O29   O     O_3   0.591067 0.895495 0.196197 -0.357684
H11   H     H_    0.662212 0.848168 0.171994 0.347531
S8    S     S_3+6 0.634665 0.248172 0.726957 0.087855
O30   O     O_2   0.556675 0.139616 0.688772 -0.182347
O31   O     O_2   0.720116 0.312839 0.670273 -0.317232
O32   O     O_3   0.721809 0.169542 0.792016 -0.416556
H12   H     H_    0.773745 0.245175 0.813151 0.355423
H13   H     H_    0.111856 0.273456 0.500431 0.158263
H14   H     H_    0.888146 0.726542 0.500318 0.155600
H15   H     H_    0.888035 0.273474 0.500527 0.160166
H16   H     H_    0.111959 0.726526 0.500462 0.158814

loop_
_geom_bond_atom_site_label_1
_geom_bond_atom_site_label_2
_ccdc_geom_bond_type
C18   S6    S    
S3    O15   D    
C10   O6    A    
O26   H10   S    
C14   C18   A    
O14   H6    S    
C15   C19   A    
S4    O20   S    
C16   C20   A    
C9    C22   S    
Cu2   O2    S    
S4    O19   D    
C16   S4    S    
C23   C26   A    
C1    O4    A    
C2    O3    A    
C26   H4    S    
C7    H15   S    
O23   H9    S    
S5    O22   D    
S2    O13   D    
S6    O24   D    
C1    O1    A    
C5    H13   S    
C16   C27   A    
Cu1   O7    S    
Cu2   O8    S    
C1    C12   S    
S8    O32   S    
C2    C11   S    
C4    C28   S    
S1    O10   D    
C10   C21   S    
C24   N1    A    
C20   S8    S    
S2    O14   S    
C19   C22   A    
C24   C25   A    
C5    C12   A    
S8    O31   D    
C6    C11   A    
C5    C7    A    
O29   H11   S    
C6    C8    A    
O17   H7    S    
S1    O9    D    
C17   C21   A    
S4    O18   D    
C8    H16   S    
C15   S3    S    
C7    C11   A    
S7    O27   D    
C24   H2    S    
Cu1   Cu2   S    
C2    O2    A    
O32   H12   S    
C8    C12   A    
S5    O23   S    
Cu1   O3    S    
S6    O26   S    
S2    O12   D    
Cu2   O4    S    
S7    O28   D    
O11   H5    S    
C23   N2    A    
S3    O16   D    
C3    C4    T    
S1    O11   S    
C9    O8    A    
Cu1   O5    S    
C10   O7    A    
C18   C22   A    
C9    O5    A    
C13   C27   A    
S8    O30   D    
Cu2   N2    S    
Cu1   N1    S    
C17   S5    S    
C6    H14   S    
C13   C17   A    
C19   S7    S    
C13   S1    S    
C15   C28   A    
C14   S2    S    
C3    C27   S    
S7    O29   S    
C25   H3    S    
C25   N2    A    
O20   H8    S    
C26   N1    A    
C20   C21   A    
S5    O21   D    
S3    O17   S    
Cu1   O1    S    
Cu2   O6    S    
S6    O25   D    
C14   C28   A    
C23   H1    S    
