data_mof_unit_62505.cif
_audit_creation_date              2012-12-10T18:40:40-0500
_audit_creation_method            fapswitch 2.2
_symmetry_space_group_name_H-M    P1
_symmetry_Int_Tables_number       1
_space_group_crystal_system       triclinic
_cell_length_a                    21.35974
_cell_length_b                    21.36375
_cell_length_c                    13.820734
_cell_angle_alpha                 89.996106
_cell_angle_beta                  89.997626
_cell_angle_gamma                 89.996615
_cell_volume                      6306.73460071

loop_
_atom_site_label
_atom_site_type_symbol
_atom_type_description
_atom_site_fract_x
_atom_site_fract_y
_atom_site_fract_z
_atom_type_partial_charge
C1    C     C_R   0.085091 0.414921 0.500001 0.969026
C2    C     C_R   0.914909 0.585079 0.499999 0.968979
C3    C     C_R   0.914909 0.414922 0.500003 0.967293
C4    C     C_R   0.085087 0.585077 0.499997 0.967629
C5    C     C_R   0.585090 0.914922 0.500001 0.968630
C6    C     C_R   0.414909 0.085079 0.499999 0.968577
C7    C     C_R   0.414904 0.914918 0.500003 0.966728
C8    C     C_R   0.585092 0.085081 0.499997 0.967104
C9    C     C_R   0.822985 0.271789 0.568271 0.354243
C10   C     C_R   0.228354 0.676874 0.431985 0.354253
C11   C     C_R   0.176845 0.728346 0.568006 0.354281
C12   C     C_R   0.771774 0.322988 0.431737 0.354226
C13   C     C_R   0.177049 0.271821 0.431693 0.358489
C14   C     C_R   0.771825 0.677076 0.568361 0.358459
C15   C     C_R   0.822934 0.728167 0.431650 0.358487
C16   C     C_R   0.228198 0.322949 0.568321 0.358468
C17   C     C_R   0.322677 0.772054 0.568776 0.354192
C18   C     C_R   0.728110 0.177158 0.431507 0.354192
C19   C     C_R   0.677140 0.228093 0.568485 0.354232
C20   C     C_R   0.272030 0.822694 0.431236 0.354153
C21   C     C_R   0.677033 0.771807 0.431718 0.358504
C22   C     C_R   0.271811 0.177060 0.568337 0.358420
C23   C     C_R   0.322950 0.228181 0.431675 0.358498
C24   C     C_R   0.728211 0.822963 0.568293 0.358428
C25   C     C_R   0.868686 0.318320 0.568670 0.536695
C26   C     C_R   0.181827 0.631169 0.431580 0.536702
C27   C     C_R   0.131147 0.681811 0.568407 0.536619
C28   C     C_R   0.818300 0.368695 0.431345 0.536745
C29   C     C_R   0.131335 0.318344 0.431307 0.535303
C30   C     C_R   0.818343 0.631357 0.568740 0.535369
C31   C     C_R   0.868646 0.681642 0.431263 0.535401
C32   C     C_R   0.181677 0.368664 0.568702 0.535434
C33   C     C_R   0.368385 0.818579 0.569161 0.536812
C34   C     C_R   0.681586 0.131449 0.431116 0.536856
C35   C     C_R   0.631435 0.181565 0.568872 0.536729
C36   C     C_R   0.318553 0.868403 0.430856 0.536910
C37   C     C_R   0.631320 0.818331 0.431331 0.535091
C38   C     C_R   0.318330 0.131342 0.568716 0.535240
C39   C     C_R   0.368661 0.181655 0.431288 0.535200
C40   C     C_R   0.681690 0.868679 0.568676 0.535314
C41   C     C_R   0.866642 0.366658 0.500008 -0.425245
C42   C     C_R   0.133343 0.633342 0.499993 -0.425193
C43   C     C_R   0.133357 0.366655 0.500003 -0.412332
C44   C     C_R   0.866644 0.633347 0.499999 -0.412335
C45   C     C_R   0.366626 0.866647 0.500009 -0.425416
C46   C     C_R   0.633359 0.133353 0.499994 -0.425315
C47   C     C_R   0.633356 0.866656 0.500002 -0.412445
C48   C     C_R   0.366644 0.133346 0.499999 -0.412457
C49   C     C_R   0.000347 0.556523 0.107332 0.318132
C50   C     C_R   0.943433 0.499381 0.892660 0.318190
C51   C     C_R   0.999654 0.443474 0.107348 0.318142
C52   C     C_R   0.056569 0.500614 0.892654 0.318169
C53   C     C_R   0.500220 0.056539 0.107339 0.318185
C54   C     C_R   0.443476 0.999216 0.892660 0.318131
C55   C     C_R   0.499778 0.943460 0.107351 0.318189
C56   C     C_R   0.556522 0.000781 0.892655 0.318115
C57   C     C_R   0.774228 0.274234 0.500001 -0.172123
C58   C     C_R   0.225752 0.725764 0.499997 -0.172135
C59   C     C_R   0.225776 0.274231 0.500008 -0.174536
C60   C     C_R   0.774228 0.725776 0.500007 -0.174536
C61   C     C_R   0.274202 0.774220 0.500003 -0.172151
C62   C     C_R   0.725777 0.225779 0.499998 -0.172127
C63   C     C_R   0.725775 0.774232 0.500007 -0.174533
C64   C     C_R   0.274229 0.225775 0.500008 -0.174538
C65   C     C_R   0.000343 0.555285 0.209299 0.087115
C66   C     C_R   0.944673 0.499401 0.790693 0.087513
C67   C     C_R   0.999657 0.444715 0.209314 0.087318
C68   C     C_R   0.055327 0.500596 0.790687 0.087272
C69   C     C_R   0.500226 0.055298 0.209304 0.087332
C70   C     C_R   0.444716 0.999238 0.790695 0.087945
C71   C     C_R   0.499773 0.944702 0.209316 0.087556
C72   C     C_R   0.555284 0.000758 0.790689 0.087686
C73   C     C_R   0.000001 0.499998 0.054548 -0.015985
C74   C     C_R   0.000001 0.499997 0.945449 -0.016088
C75   C     C_R   0.499999 1.000000 0.054551 -0.015981
C76   C     C_R   0.499999 1.000000 0.945451 -0.016086
Cu1   Cu    Cu3+1 0.000000 0.500000 0.596430 1.105918
Cu2   Cu    Cu3+1 0.000000 0.500000 0.403570 1.105910
Cu3   Cu    Cu3+1 0.500000 0.000000 0.596430 1.105984
Cu4   Cu    Cu3+1 0.500000 0.000000 0.403570 1.105928
H1    H     H_    0.000611 0.598822 0.249264 0.212420
H2    H     H_    0.901107 0.498939 0.750719 0.212238
H3    H     H_    0.999389 0.401178 0.249290 0.212429
H4    H     H_    0.098893 0.501058 0.750708 0.212222
H5    H     H_    0.500406 0.098844 0.249273 0.212530
H6    H     H_    0.401179 0.998651 0.750727 0.212180
H7    H     H_    0.499594 0.901156 0.249294 0.212540
H8    H     H_    0.598822 0.001339 0.750717 0.212165
N1    N     N_R   0.000000 0.500000 0.258690 -0.252650
N2    N     N_R   0.000000 0.500000 0.741310 -0.252522
N3    N     N_R   0.500000 0.000000 0.258690 -0.252592
N4    N     N_R   0.500000 0.000000 0.741310 -0.252717
O1    O     O_R   0.064280 0.435730 0.581430 -0.551069
O2    O     O_R   0.935720 0.564270 0.418570 -0.551236
O3    O     O_R   0.935720 0.564270 0.581430 -0.550995
O4    O     O_R   0.064280 0.435730 0.418570 -0.551216
O5    O     O_R   0.935720 0.435730 0.418570 -0.552521
O6    O     O_R   0.064280 0.564270 0.581430 -0.552880
O7    O     O_R   0.064280 0.564270 0.418570 -0.552693
O8    O     O_R   0.935720 0.435730 0.581430 -0.552740
O9    O     O_R   0.564280 0.935730 0.581430 -0.551006
O10   O     O_R   0.435720 0.064270 0.418570 -0.551398
O11   O     O_R   0.435720 0.064270 0.581430 -0.550924
O12   O     O_R   0.564280 0.935730 0.418570 -0.551369
O13   O     O_R   0.435720 0.935730 0.418570 -0.552111
O14   O     O_R   0.564280 0.064270 0.581430 -0.552670
O15   O     O_R   0.564280 0.064270 0.418570 -0.552298
O16   O     O_R   0.435720 0.935730 0.581430 -0.552520
Cl1   Cl    Cl    0.000724 0.629396 0.048065 -0.361066
Cl2   Cl    Cl    0.870513 0.498636 0.951920 -0.360797
Cl3   Cl    Cl    0.999277 0.370600 0.048100 -0.360963
Cl4   Cl    Cl    0.129490 0.501351 0.951907 -0.360928
Cl5   Cl    Cl    0.500422 0.129433 0.048082 -0.360733
Cl6   Cl    Cl    0.370600 0.998271 0.951913 -0.360802
Cl7   Cl    Cl    0.499574 0.870566 0.048110 -0.360620
Cl8   Cl    Cl    0.629397 0.001724 0.951901 -0.360974
Cl9   Cl    Cl    0.828224 0.210316 0.653122 -0.310331
Cl10  Cl    Cl    0.290021 0.671471 0.347477 -0.310305
Cl11  Cl    Cl    0.171412 0.789992 0.652515 -0.310337
Cl12  Cl    Cl    0.710297 0.328218 0.346883 -0.310325
Cl13  Cl    Cl    0.171862 0.210404 0.346761 -0.309415
Cl14  Cl    Cl    0.710422 0.671930 0.653353 -0.309386
Cl15  Cl    Cl    0.828097 0.789560 0.346662 -0.309318
Cl16  Cl    Cl    0.289626 0.328118 0.653257 -0.309281
Cl17  Cl    Cl    0.327559 0.710933 0.654295 -0.310322
Cl18  Cl    Cl    0.789437 0.172096 0.346360 -0.310316
Cl19  Cl    Cl    0.672054 0.289399 0.653635 -0.310365
Cl20  Cl    Cl    0.210905 0.827571 0.345715 -0.310298
Cl21  Cl    Cl    0.671829 0.710373 0.346820 -0.309312
Cl22  Cl    Cl    0.210390 0.171896 0.653295 -0.309306
Cl23  Cl    Cl    0.328131 0.289593 0.346721 -0.309214
Cl24  Cl    Cl    0.789658 0.828152 0.653194 -0.309212
F1    F     F_    0.916034 0.315408 0.634206 -0.547007
F2    F     F_    0.184878 0.583694 0.366297 -0.547023
F3    F     F_    0.083657 0.684841 0.633688 -0.547078
F4    F     F_    0.815380 0.416040 0.365812 -0.546965
F5    F     F_    0.084002 0.315448 0.365749 -0.566065
F6    F     F_    0.815455 0.584052 0.634340 -0.565975
F7    F     F_    0.915959 0.684520 0.365663 -0.566030
F8    F     F_    0.184582 0.415986 0.634262 -0.565946
F9    F     F_    0.415463 0.815912 0.635192 -0.546882
F10   F     F_    0.684400 0.084231 0.365364 -0.546882
F11   F     F_    0.584202 0.184362 0.634624 -0.546970
F12   F     F_    0.315883 0.915478 0.364827 -0.546800
F13   F     F_    0.583974 0.815423 0.365798 -0.566179
F14   F     F_    0.315428 0.084022 0.634290 -0.565921
F15   F     F_    0.415988 0.184546 0.365711 -0.566136
F16   F     F_    0.684608 0.916015 0.634209 -0.565894

loop_
_geom_bond_atom_site_label_1
_geom_bond_atom_site_label_2
_ccdc_geom_bond_type
C40   C47   A    
C67   H3    S    
C56   C76   A    
C4    O6    A    
C33   C45   A    
C73   C74   S    
C67   N1    A    
C11   Cl11  S    
C4    C42   S    
C71   N3    A    
C9    C25   A    
C57   C62   S    
C66   N2    A    
Cu1   Cu2   S    
C65   N1    A    
C5    C47   S    
Cu4   O15   S    
C59   C64   S    
C15   Cl15  S    
Cu4   O12   S    
C60   C63   S    
C30   F6    S    
C7    C45   S    
C13   C29   A    
C2    O3    A    
C10   C58   A    
C20   Cl20  S    
C52   C74   A    
C50   C74   A    
C72   N4    A    
C52   Cl4   S    
C19   C62   A    
C22   C38   A    
C28   C41   A    
C50   Cl2   S    
C9    Cl9   S    
Cu1   O8    S    
C15   C60   A    
Cu1   O1    S    
C20   C61   A    
C3    O5    A    
C38   F14   S    
C17   C61   A    
C12   Cl12  S    
Cu2   O4    S    
C3    O8    A    
C1    C43   S    
C3    C41   S    
C2    C44   S    
C56   C72   A    
C68   N2    A    
C7    O13   A    
C34   C46   A    
C37   C47   A    
C11   C58   A    
C25   F1    S    
C38   C48   A    
C52   C68   A    
C55   C75   A    
C10   C26   A    
C58   C61   S    
C5    O12   A    
C53   C69   A    
C29   C43   A    
C30   C44   A    
C53   C75   A    
C17   C33   A    
C14   C30   A    
C72   H8    S    
C53   Cl5   S    
Cu3   O11   S    
Cu2   N1    S    
C5    O9    A    
Cu1   N2    S    
C31   C44   A    
C40   F16   S    
C68   H4    S    
C2    O2    A    
C9    C57   A    
C25   C41   A    
C18   C62   A    
C33   F9    S    
Cu4   O13   S    
Cu1   O3    S    
Cu3   O14   S    
Cu4   O10   S    
C16   C59   A    
C75   C76   S    
C26   F2    S    
C10   Cl10  S    
C66   H2    S    
C13   Cl13  S    
C24   Cl24  S    
C65   H1    S    
C54   C70   A    
C11   C27   A    
Cu2   O5    S    
C56   Cl8   S    
C23   Cl23  S    
Cu1   O6    S    
C51   C67   A    
C6    O11   A    
C18   C34   A    
C21   Cl21  S    
Cu3   N4    S    
C6    C48   S    
C49   C65   A    
C14   Cl14  S    
C54   C76   A    
C12   C57   A    
C23   C64   A    
C12   C28   A    
C24   C63   A    
C36   C45   A    
C71   H7    S    
C31   F7    S    
C70   H6    S    
C8    O15   A    
C22   Cl22  S    
C69   H5    S    
C26   C42   A    
C49   Cl1   S    
C14   C60   A    
C34   F10   S    
C51   Cl3   S    
C28   F4    S    
C70   N4    A    
C51   C73   A    
C8    O14   A    
C50   C66   A    
C15   C31   A    
C13   C59   A    
C16   C32   A    
C29   F5    S    
C27   F3    S    
Cu4   N3    S    
C36   F12   S    
C19   C35   A    
C18   Cl18  S    
C27   C42   A    
C17   Cl17  S    
C55   Cl7   S    
Cu2   O2    S    
C1    O4    A    
C23   C39   A    
C54   Cl6   S    
C19   Cl19  S    
C24   C40   A    
C32   C43   A    
Cu3   O16   S    
C49   C73   A    
C6    O10   A    
C32   F8    S    
C16   Cl16  S    
C8    C46   S    
C21   C63   A    
C22   C64   A    
Cu3   Cu4   S    
C20   C36   A    
C21   C37   A    
C1    O1    A    
C4    O7    A    
C39   F15   S    
Cu2   O7    S    
C7    O16   A    
Cu3   O9    S    
C37   F13   S    
C69   N3    A    
C35   C46   A    
C55   C71   A    
C35   F11   S    
C39   C48   A    
