data_mof_unit_43757.cif
_audit_creation_date              2012-12-11T14:41:06-0500
_audit_creation_method            fapswitch 2.2
_symmetry_space_group_name_H-M    P1
_symmetry_Int_Tables_number       1
_space_group_crystal_system       triclinic
_cell_length_a                    24.493862
_cell_length_b                    17.398749
_cell_length_c                    15.561086
_cell_angle_alpha                 90.473921
_cell_angle_beta                  129.386494
_cell_angle_gamma                 90.315428
_cell_volume                      5124.74360208

loop_
_atom_site_label
_atom_site_type_symbol
_atom_type_description
_atom_site_fract_x
_atom_site_fract_y
_atom_site_fract_z
_atom_type_partial_charge
C1    C     C_R   0.335284 0.384079 0.202817 -0.131598
C2    C     C_R   0.684624 0.617192 0.500677 0.014086
C3    C     C_3   0.765925 0.293370 0.339552 -0.911922
C4    C     C_3   0.200824 0.673639 0.033290 -0.971740
C5    C     C_3   0.252452 0.483740 0.944431 -0.936194
C6    C     C_3   0.700824 0.173635 0.033263 -0.971719
C7    C     C_3   0.752433 0.983738 0.944386 -0.936166
C8    C     C_3   0.478410 0.825113 0.325838 -0.911831
C9    C     C_3   0.399178 0.213504 0.109447 -0.932772
C10   C     C_3   0.978421 0.325109 0.325849 -0.911742
C11   C     C_3   0.899187 0.713505 0.109463 -0.932572
C12   C     C_R   0.140274 0.815505 0.498720 0.009437
C13   C     C_R   0.184625 0.117191 0.500677 0.014087
C14   C     C_R   0.362261 0.313776 0.499989 -0.014112
C15   C     C_R   0.319114 0.622409 0.499673 0.012924
C16   C     C_R   0.862260 0.813776 0.499989 -0.014112
C17   C     C_R   0.819112 0.122405 0.499674 0.012903
C18   C     C_3   0.363260 0.203929 0.606983 0.088350
C19   C     C_3   0.297700 0.755018 0.523879 0.094671
C20   C     C_3   0.863260 0.703930 0.606983 0.088351
C21   C     C_R   0.356644 0.645025 0.256281 -0.090884
C22   C     C_3   0.797690 0.255018 0.523851 0.094668
C23   C     C_3   0.812829 0.648857 0.606294 -0.432991
C24   C     C_3   0.746846 0.308105 0.520483 -0.470681
C25   C     C_3   0.312829 0.148857 0.606294 -0.432990
C26   C     C_3   0.246855 0.808106 0.520505 -0.470680
C27   C     C_3   0.265455 0.301925 0.502173 -0.445012
C28   C     C_3   0.265864 0.645590 0.590943 -0.477934
C29   C     C_3   0.765455 0.801925 0.502173 -0.445010
C30   C     C_3   0.765876 0.145598 0.590965 -0.477915
C31   C     C_3   0.276945 0.203326 0.395135 -0.381904
C32   C     C_R   0.835284 0.884078 0.202818 -0.131599
C33   C     C_3   0.192607 0.661489 0.386642 -0.390904
C34   C     C_3   0.776944 0.703327 0.395135 -0.381905
C35   C     C_3   0.692600 0.161469 0.386653 -0.390887
C36   C     C_3   0.319015 0.255451 0.501057 0.304632
C37   C     C_3   0.269445 0.670010 0.498417 0.344373
C38   C     C_3   0.819015 0.755452 0.501057 0.304633
C39   C     C_3   0.769443 0.170006 0.498417 0.344369
C40   C     C_3   0.735144 0.663563 0.501569 0.359713
C41   C     C_3   0.685321 0.260328 0.498698 0.370620
C42   C     C_3   0.235145 0.163563 0.501569 0.359712
C43   C     C_R   0.856645 0.145026 0.256283 -0.090877
C44   C     C_3   0.185322 0.760331 0.498696 0.370628
C45   C     C_3   0.716426 0.748128 0.502215 -0.398884
C46   C     C_3   0.715669 0.199189 0.590703 -0.396498
C47   C     C_3   0.216427 0.248128 0.502215 -0.398883
C48   C     C_3   0.215658 0.699182 0.590684 -0.396498
C49   C     C_R   0.668414 0.397197 0.801833 -0.123836
C50   C     C_R   0.652692 0.637817 0.760950 -0.116799
C51   C     C_R   0.168413 0.897197 0.801834 -0.123841
C52   C     C_R   0.152691 0.137818 0.760949 -0.116795
C53   C     C_3   0.728745 0.647580 0.396927 -0.407218
C54   C     C_R   0.648764 0.379867 0.865230 0.140814
C55   C     C_3   0.644127 0.217458 0.384916 -0.404213
C56   C     C_3   0.228745 0.147580 0.396927 -0.407218
C57   C     C_3   0.144133 0.717475 0.384907 -0.404230
C58   C     C_2   0.694323 0.349015 0.976671 -0.180770
C59   C     C_2   0.650693 0.751185 0.861594 -0.210462
C60   C     C_2   0.194318 0.849015 0.976670 -0.180783
C61   C     C_2   0.150691 0.251188 0.861588 -0.210454
C62   C     C_2   0.762543 0.338155 0.027760 -0.189458
C63   C     C_2   0.694682 0.795186 0.858872 -0.208204
C64   C     C_2   0.262539 0.838159 0.027767 -0.189409
C65   C     C_R   0.621698 0.679495 0.796018 0.156588
C66   C     C_2   0.194683 0.295187 0.858870 -0.208227
C67   C     C_2   0.364100 0.762088 0.172620 0.053286
C68   C     C_2   0.312120 0.319618 0.034743 0.098208
C69   C     C_2   0.864105 0.262091 0.172630 0.053300
C70   C     C_2   0.812120 0.819614 0.034745 0.098198
C71   C     C_2   0.294654 0.765412 0.083331 0.126476
C72   C     C_2   0.246085 0.346086 0.953584 0.114695
C73   C     C_2   0.794659 0.265410 0.083330 0.126482
C74   C     C_2   0.746086 0.846085 0.953586 0.114669
C75   C     C_R   0.588961 0.357735 0.406431 -0.134873
C76   C     C_R   0.148762 0.879867 0.865229 0.140809
C77   C     C_R   0.615700 0.602498 0.408242 -0.150155
C78   C     C_R   0.088961 0.857735 0.406430 -0.134876
C79   C     C_R   0.115700 0.102497 0.408242 -0.150152
C80   C     C_R   0.413421 0.357788 0.592749 -0.159113
C81   C     C_R   0.387164 0.605810 0.592330 -0.158157
C82   C     C_R   0.913420 0.857788 0.592749 -0.159114
C83   C     C_R   0.887164 0.105808 0.592330 -0.158168
C84   C     C_R   0.663332 0.358152 0.592169 -0.138812
C85   C     C_R   0.690113 0.601934 0.592560 -0.156758
C86   C     C_R   0.163331 0.858153 0.592168 -0.138813
C87   C     C_R   0.121697 0.179496 0.796015 0.156589
C88   C     C_R   0.190113 0.101934 0.592560 -0.156760
C89   C     C_R   0.337912 0.356599 0.407229 -0.117036
C90   C     C_R   0.312309 0.602738 0.407786 -0.119554
C91   C     C_R   0.837912 0.856599 0.407229 -0.117039
C92   C     C_R   0.812309 0.102736 0.407786 -0.119518
C93   C     C_R   0.578047 0.396458 0.803513 -0.167307
C94   C     C_R   0.561776 0.638719 0.762958 -0.155077
C95   C     C_R   0.078046 0.896458 0.803512 -0.167301
C96   C     C_R   0.061775 0.138720 0.762956 -0.155083
C97   C     C_R   0.425967 0.384514 0.201934 -0.154396
C98   C     C_R   0.640274 0.315504 0.498721 0.009440
C99   C     C_R   0.445992 0.645178 0.250807 -0.159471
C100  C     C_R   0.925967 0.884514 0.201934 -0.154382
C101  C     C_R   0.945994 0.145180 0.250812 -0.159463
C102  C     C_R   0.357195 0.358483 0.144704 0.125513
C103  C     C_R   0.390042 0.687677 0.227091 0.134148
C104  C     C_R   0.857195 0.858482 0.144705 0.125503
C105  C     C_R   0.890046 0.187679 0.227099 0.134124
C106  C     C_3   0.419370 0.087550 0.588964 -0.920304
C107  C     C_3   0.265966 0.793387 0.339610 -0.911936
C108  C     C_3   0.919370 0.587550 0.588965 -0.920309
H1    H     H_    0.281653 0.383279 0.173053 0.095750
H2    H     H_    0.276754 0.839262 0.601899 0.135561
H3    H     H_    0.757270 0.238599 0.296243 0.236447
H4    H     H_    0.239345 0.690162 0.947698 0.173048
H5    H     H_    0.205943 0.611760 0.053410 0.255813
H6    H     H_    0.147667 0.682728 0.952052 0.251723
H7    H     H_    0.205165 0.706659 0.098827 0.244344
H8    H     H_    0.169456 0.422620 0.915595 0.178560
H9    H     H_    0.232302 0.537940 0.952202 0.260625
H10   H     H_    0.236238 0.480307 0.859634 0.246043
H11   H     H_    0.310996 0.485305 0.007233 0.258661
H12   H     H_    0.739361 0.190157 0.947696 0.173044
H13   H     H_    0.819985 0.660917 0.683177 0.124097
H14   H     H_    0.705931 0.111755 0.053362 0.255810
H15   H     H_    0.647674 0.182737 0.952024 0.251729
H16   H     H_    0.705163 0.206646 0.098807 0.244336
H17   H     H_    0.669463 0.922620 0.915620 0.178567
H18   H     H_    0.732284 0.037945 0.952159 0.260612
H19   H     H_    0.736201 0.980290 0.859575 0.246040
H20   H     H_    0.810976 0.985303 0.007161 0.258665
H21   H     H_    0.403033 0.867609 0.165509 0.159329
H22   H     H_    0.500935 0.883866 0.357518 0.242769
H23   H     H_    0.512779 0.793366 0.314714 0.236212
H24   H     H_    0.776750 0.339267 0.601875 0.135565
H25   H     H_    0.477591 0.796384 0.388525 0.264235
H26   H     H_    0.322988 0.242814 0.941647 0.155981
H27   H     H_    0.401603 0.154369 0.084779 0.243969
H28   H     H_    0.401172 0.209313 0.182597 0.261818
H29   H     H_    0.445459 0.246725 0.131585 0.238594
H30   H     H_    0.903019 0.367652 0.165543 0.159315
H31   H     H_    0.000946 0.383860 0.357552 0.242755
H32   H     H_    0.012783 0.293382 0.314686 0.236190
H33   H     H_    0.977617 0.296351 0.388541 0.264211
H34   H     H_    0.822971 0.742789 0.941629 0.155932
H35   H     H_    0.293660 0.340319 0.577036 0.158097
H36   H     H_    0.901610 0.654364 0.084803 0.243939
H37   H     H_    0.901190 0.709321 0.182630 0.261769
H38   H     H_    0.945468 0.746731 0.131585 0.238552
H39   H     H_    0.318852 0.648972 0.674523 0.151499
H40   H     H_    0.793659 0.840320 0.577035 0.158097
H41   H     H_    0.818868 0.148994 0.674541 0.151495
H42   H     H_    0.721124 0.760566 0.577056 0.157235
H43   H     H_    0.745532 0.226975 0.674131 0.148235
H44   H     H_    0.221124 0.260565 0.577056 0.157235
H45   H     H_    0.313256 0.662565 0.252452 0.115821
H46   H     H_    0.245519 0.726960 0.674116 0.148238
H47   H     H_    0.742637 0.738239 0.318981 0.146234
H48   H     H_    0.673018 0.101567 0.377076 0.151932
H49   H     H_    0.242638 0.238239 0.318981 0.146235
H50   H     H_    0.173019 0.601589 0.377041 0.151935
H51   H     H_    0.313154 0.171692 0.387996 0.169049
H52   H     H_    0.188156 0.671856 0.312553 0.158875
H53   H     H_    0.813153 0.671693 0.387996 0.169048
H54   H     H_    0.688138 0.171823 0.312549 0.158865
H55   H     H_    0.742828 0.587072 0.396192 0.154437
H56   H     H_    0.781653 0.883278 0.173052 0.095741
H57   H     H_    0.624311 0.258324 0.316605 0.148361
H58   H     H_    0.242829 0.087072 0.396192 0.154438
H59   H     H_    0.124326 0.758349 0.316609 0.148361
H60   H     H_    0.673825 0.655983 0.319317 0.148024
H61   H     H_    0.597737 0.185932 0.365591 0.160697
H62   H     H_    0.173825 0.155983 0.319317 0.148024
H63   H     H_    0.097739 0.685949 0.365565 0.160699
H64   H     H_    0.233146 0.339427 0.428073 0.171157
H65   H     H_    0.246984 0.584935 0.577301 0.172616
H66   H     H_    0.733146 0.839427 0.428072 0.171158
H67   H     H_    0.813255 0.162564 0.252449 0.115823
H68   H     H_    0.747006 0.084939 0.577346 0.172610
H69   H     H_    0.721213 0.399649 0.828415 0.079759
H70   H     H_    0.701175 0.651286 0.775850 0.089127
H71   H     H_    0.221213 0.899646 0.828418 0.079760
H72   H     H_    0.201174 0.151287 0.775848 0.089135
H73   H     H_    0.660758 0.759453 0.427779 0.163334
H74   H     H_    0.671810 0.164840 0.575706 0.164217
H75   H     H_    0.160758 0.259452 0.427779 0.163334
H76   H     H_    0.171794 0.664836 0.575672 0.164217
H77   H     H_    0.789419 0.371611 0.005777 0.106907
H78   H     H_    0.824570 0.587164 0.608816 0.172420
H79   H     H_    0.702989 0.783302 0.799331 0.126400
H80   H     H_    0.289419 0.871625 0.005796 0.106904
H81   H     H_    0.202992 0.283301 0.799334 0.126402
H82   H     H_    0.668747 0.320818 0.004804 0.150756
H83   H     H_    0.642306 0.763452 0.921015 0.126784
H84   H     H_    0.168738 0.820812 0.004794 0.150760
H85   H     H_    0.142302 0.263456 0.921006 0.126786
H86   H     H_    0.562649 0.345315 0.320244 0.089813
H87   H     H_    0.593207 0.602651 0.322030 0.084379
H88   H     H_    0.062647 0.845315 0.320243 0.089813
H89   H     H_    0.725989 0.353537 0.457282 0.171481
H90   H     H_    0.093207 0.102651 0.322031 0.084378
H91   H     H_    0.440455 0.345507 0.678933 0.088361
H92   H     H_    0.409153 0.608397 0.678318 0.084146
H93   H     H_    0.940454 0.845508 0.678933 0.088360
H94   H     H_    0.909153 0.108394 0.678319 0.084154
H95   H     H_    0.706661 0.345805 0.677952 0.087745
H96   H     H_    0.737444 0.601547 0.678527 0.087147
H97   H     H_    0.206660 0.845804 0.677951 0.087746
H98   H     H_    0.237444 0.101546 0.678527 0.087149
H99   H     H_    0.294044 0.343494 0.321574 0.084095
H100  H     H_    0.324571 0.087164 0.608816 0.172420
H101  H     H_    0.264842 0.599668 0.321972 0.078066
H102  H     H_    0.794043 0.843495 0.321574 0.084095
H103  H     H_    0.764842 0.099666 0.321972 0.078059
H104  H     H_    0.548884 0.398209 0.834117 0.091760
H105  H     H_    0.526167 0.654613 0.778555 0.094846
H106  H     H_    0.048882 0.898209 0.834113 0.091760
H107  H     H_    0.026166 0.154615 0.778552 0.094847
H108  H     H_    0.454461 0.385398 0.170214 0.093810
H109  H     H_    0.482941 0.662132 0.238299 0.102200
H110  H     H_    0.954461 0.885398 0.170213 0.093803
H111  H     H_    0.226005 0.853541 0.457311 0.171483
H112  H     H_    0.982944 0.162134 0.238306 0.102203
H113  H     H_    0.387236 0.242174 0.680905 0.062594
H114  H     H_    0.347481 0.755767 0.612104 0.059021
H115  H     H_    0.887236 0.742174 0.680905 0.062593
H116  H     H_    0.847478 0.255778 0.612073 0.059020
H117  H     H_    0.458175 0.202044 0.627571 0.168238
H118  H     H_    0.461556 0.078116 0.582690 0.243286
H119  H     H_    0.367961 0.073356 0.507249 0.250415
H120  H     H_    0.428918 0.048022 0.652760 0.246373
H121  H     H_    0.353242 0.829652 0.498211 0.168135
H122  H     H_    0.319985 0.160916 0.683177 0.124098
H123  H     H_    0.286338 0.835062 0.311902 0.246744
H124  H     H_    0.214997 0.814840 0.313246 0.241548
H125  H     H_    0.257316 0.738619 0.296297 0.236461
H126  H     H_    0.958175 0.702045 0.627572 0.168238
H127  H     H_    0.961557 0.578117 0.582691 0.243285
H128  H     H_    0.867961 0.573356 0.507249 0.250415
H129  H     H_    0.928918 0.548023 0.652761 0.246374
H130  H     H_    0.853214 0.329650 0.498140 0.168132
H131  H     H_    0.786288 0.335041 0.311821 0.246735
H132  H     H_    0.714959 0.314824 0.313201 0.241545
N1    N     N_R   0.389430 0.421450 0.294590 -0.041101
N2    N     N_R   0.581780 0.577610 0.443390 -0.031808
N3    N     N_R   0.081780 0.922390 0.443390 -0.034961
N4    N     N_R   0.081780 0.077610 0.443390 -0.031810
N5    N     N_R   0.419850 0.423100 0.556610 -0.030955
N6    N     N_R   0.419850 0.576900 0.556610 -0.031147
N7    N     N_R   0.919850 0.923100 0.556610 -0.030955
N8    N     N_R   0.919850 0.076900 0.556610 -0.031149
N9    N     N_R   0.627410 0.423100 0.556610 -0.035370
N10   N     N_R   0.627410 0.576900 0.556610 -0.033290
N11   N     N_R   0.127410 0.923100 0.556610 -0.035370
N12   N     N_R   0.389430 0.578550 0.294590 -0.048480
N13   N     N_R   0.127410 0.076900 0.556610 -0.033291
N14   N     N_R   0.374220 0.422390 0.443390 -0.037477
N15   N     N_R   0.374220 0.577610 0.443390 -0.038251
N16   N     N_R   0.874220 0.922390 0.443390 -0.037477
N17   N     N_R   0.874220 0.077610 0.443390 -0.038256
N18   N     N_R   0.555000 0.424040 0.705410 -0.036652
N19   N     N_R   0.555000 0.575960 0.705410 -0.040367
N20   N     N_R   0.055000 0.924040 0.705410 -0.036652
N21   N     N_R   0.055000 0.075960 0.705410 -0.040366
N22   N     N_R   0.446630 0.421450 0.294590 -0.039115
N23   N     N_R   0.889430 0.921450 0.294590 -0.041101
N24   N     N_R   0.446630 0.578550 0.294590 -0.043761
N25   N     N_R   0.946630 0.921450 0.294590 -0.039115
N26   N     N_R   0.946630 0.078550 0.294590 -0.043760
N27   N     N_2   0.422388 0.166498 0.622532 -0.104953
N28   N     N_2   0.317855 0.784077 0.459148 -0.097649
N29   N     N_2   0.922388 0.666499 0.622532 -0.104953
N30   N     N_2   0.817828 0.284071 0.459093 -0.097641
N31   N     N_2   0.255284 0.695890 0.026763 -0.100531
N32   N     N_2   0.223487 0.419049 0.962307 -0.111769
N33   N     N_2   0.755293 0.195885 0.026758 -0.100527
N34   N     N_R   0.889430 0.078550 0.294590 -0.048479
N35   N     N_2   0.723490 0.919053 0.962307 -0.111773
N36   N     N_2   0.407561 0.830286 0.220738 -0.103834
N37   N     N_2   0.334170 0.248870 0.017405 -0.103421
N38   N     N_2   0.907562 0.330295 0.220764 -0.103823
N39   N     N_2   0.834168 0.748861 0.017409 -0.103402
N40   N     N_R   0.612200 0.424040 0.705410 -0.041627
N41   N     N_R   0.612200 0.575960 0.705410 -0.045830
N42   N     N_R   0.112200 0.924040 0.705410 -0.041626
N43   N     N_R   0.112200 0.075960 0.705410 -0.045831
N44   N     N_R   0.581780 0.422390 0.443390 -0.034961
Ni1   Ni    Ni4+2 0.382890 0.500000 0.370170 0.210253
Ni2   Ni    Ni4+2 0.882890 0.000000 0.370170 0.210254
Ni3   Ni    Ni4+2 0.618740 0.500000 0.629830 0.206422
Ni4   Ni    Ni4+2 0.118740 1.000000 0.629830 0.206422
Ni5   Ni    Ni4+2 0.514090 0.500000 0.370170 0.205888
Ni6   Ni    Ni4+2 0.014090 0.000000 0.370170 0.205888
Ni7   Ni    Ni4+2 0.487550 0.500000 0.629830 0.209273
Ni8   Ni    Ni4+2 0.987550 1.000000 0.629830 0.209271

loop_
_geom_bond_atom_site_label_1
_geom_bond_atom_site_label_2
_ccdc_geom_bond_type
N18   Ni7   S    
N41   Ni3   S    
C99   C103  A    
C90   N15   A    
N20   Ni8   S    
C58   C62   D    
C96   N21   A    
N9    N44   A    
C107  H123  S    
C20   N29   S    
C4    H7    S    
C59   H83   S    
C6    H16   S    
C29   H66   S    
C101  N26   A    
C34   H53   S    
C53   H55   S    
N12   Ni1   S    
C108  H129  S    
C21   N12   A    
C13   C79   A    
C92   N17   A    
N13   Ni4   S    
C26   C44   S    
H12   N33   S    
C15   C81   A    
C43   N34   A    
C7    H19   S    
C34   H47   S    
N5    Ni7   S    
N42   Ni4   S    
C18   C25   S    
C4    N31   S    
C106  N27   S    
C3    N30   S    
C82   N7    A    
C5    H11   S    
C75   H86   S    
C4    H6    S    
C108  N29   S    
C50   H70   S    
C68   C102  S    
C7    N35   S    
C91   H102  S    
C76   C95   A    
C14   C36   S    
C18   N27   S    
C70   C104  S    
C28   H65   S    
C23   H78   S    
N6    N15   A    
C22   C39   S    
C5    N32   S    
C27   C47   S    
C49   C54   A    
C66   H81   S    
C74   N35   S    
C100  C104  A    
C19   C26   S    
C2    C85   A    
C3    H131  S    
C45   H42   S    
C43   C105  A    
C64   C71   S    
C11   N39   S    
C67   N36   S    
H130  N30   S    
C6    N33   S    
C17   C39   S    
C15   C37   S    
C54   C93   A    
C19   C37   S    
C85   H96   S    
C1    H1    S    
N21   N43   A    
C9    H29   S    
C61   C66   D    
N26   Ni6   S    
C41   C55   S    
C99   H109  S    
C73   N33   S    
C28   H39   S    
C97   H108  S    
C12   C78   A    
N7    Ni8   S    
C70   C74   D    
C27   H35   S    
C41   C46   S    
C32   C104  A    
C51   N42   A    
C69   C73   D    
N34   Ni2   S    
C14   C80   A    
C31   C56   S    
C18   H113  S    
C25   H100  S    
C61   C87   S    
C11   H36   S    
C26   H2    S    
C67   C71   D    
C97   C102  A    
C33   H52   S    
C68   C72   D    
C3    H132  S    
C42   C47   S    
C42   C56   S    
N7    N16   A    
C22   N30   S    
N3    Ni6   S    
C46   H43   S    
C26   H111  S    
C108  H127  S    
C100  H110  S    
C85   N10   A    
C79   H90   S    
C34   C38   S    
C107  H124  S    
H30   N38   S    
C24   C41   S    
C9    N37   S    
C95   N20   A    
C17   C92   A    
C10   H32   S    
C6    H15   S    
C81   H92   S    
C83   H94   S    
C51   H71   S    
C86   H97   S    
C30   H68   S    
C13   C42   S    
C50   C65   A    
H121  N28   S    
C49   H69   S    
C101  C105  A    
C40   C45   S    
N6    Ni7   S    
C80   N5    A    
C66   C72   S    
C25   H122  S    
C35   H54   S    
N3    N11   A    
N8    Ni8   S    
C50   N41   A    
C45   H73   S    
C77   N2    A    
N2    N10   A    
C4    H5    S    
N19   N41   A    
C29   C38   S    
C35   H48   S    
C23   H13   S    
C3    H3    S    
C48   H76   S    
C23   C40   S    
C69   C105  S    
H17   N35   S    
C11   H37   S    
C30   H41   S    
C78   H88   S    
C31   H49   S    
C49   N40   A    
C67   C103  S    
C80   H91   S    
C35   C55   S    
C75   N44   A    
C41   C98   S    
C75   C98   A    
C33   C37   S    
C70   N39   S    
C93   N18   A    
C29   C45   S    
C108  H128  S    
C17   C83   A    
C10   H33   S    
C83   N8    A    
C32   N23   A    
C35   C39   S    
C52   H72   S    
C14   C89   A    
C58   H82   S    
C84   N9    A    
C2    C40   S    
C82   H93   S    
C20   C38   S    
C24   H24   S    
C53   H60   S    
C94   N19   A    
C20   C23   S    
N19   Ni7   S    
C44   C57   S    
N10   Ni3   S    
C87   C96   A    
C8    H23   S    
C106  H118  S    
N16   Ni2   S    
C62   C73   S    
H4    N31   S    
C79   N4    A    
C10   N38   S    
C57   H63   S    
C96   H107  S    
C93   H104  S    
C64   H80   S    
C1    N1    A    
C97   N22   A    
C34   C53   S    
C62   H77   S    
C9    H27   S    
C84   H95   S    
C47   H75   S    
C65   C94   A    
C24   H89   S    
C40   C53   S    
C63   H79   S    
N4    N13   A    
C8    H22   S    
N25   Ni6   S    
C7    H20   S    
C106  H120  S    
C60   H84   S    
C8    N36   S    
N11   Ni4   S    
C6    H14   S    
C56   H58   S    
C43   H67   S    
C61   H85   S    
C33   H50   S    
H126  N29   S    
C72   N32   S    
C54   C58   S    
N14   Ni1   S    
N4    Ni6   S    
C86   N11   A    
N23   N25   A    
C48   H46   S    
C28   C48   S    
C94   H105  S    
C33   C57   S    
C56   H62   S    
C8    H25   S    
C31   C36   S    
H26   N37   S    
C81   N6    A    
C30   C46   S    
C52   C87   A    
C19   H114  S    
H34   N39   S    
C88   H98   S    
N2    Ni5   S    
C25   C42   S    
N44   Ni5   S    
C90   H101  S    
N20   N42   A    
C11   H38   S    
C88   N13   A    
C57   H59   S    
C63   C74   S    
C27   C36   S    
N5    N14   A    
N15   Ni1   S    
C59   C63   D    
C78   N3    A    
C68   N37   S    
N22   Ni5   S    
C12   C86   A    
C89   N14   A    
C60   C64   D    
C29   H40   S    
C84   C98   A    
C46   H74   S    
C77   H87   S    
N40   Ni3   S    
C12   C44   S    
C2    C77   A    
C21   H45   S    
N1    N22   A    
C59   C65   S    
C52   N43   A    
N18   N40   A    
C101  H112  S    
C99   N24   A    
C89   H99   S    
C22   H116  S    
C28   C37   S    
N26   N34   A    
C69   N38   S    
C32   H56   S    
C13   C88   A    
N17   Ni2   S    
C20   H115  S    
C60   C76   S    
C30   C39   S    
H21   N36   S    
C22   C24   S    
N24   Ni5   S    
C7    H18   S    
C107  H125  S    
C91   N16   A    
C1    C102  A    
C10   H31   S    
N12   N24   A    
N8    N17   A    
C21   C103  A    
C9    H28   S    
C5    H10   S    
N43   Ni4   S    
N9    Ni3   S    
C47   H44   S    
C16   C91   A    
C71   N31   S    
C16   C82   A    
C100  N25   A    
C5    H9    S    
C107  N28   S    
N23   Ni2   S    
C95   H106  S    
C55   H57   S    
C106  H119  S    
C92   H103  S    
C55   H61   S    
N21   Ni8   S    
N1    Ni1   S    
C51   C76   A    
H8    N32   S    
C18   C36   S    
C27   H64   S    
H117  N27   S    
C31   H51   S    
C44   C48   S    
C16   C38   S    
C19   N28   S    
C15   C90   A    
