data_mof_unit_41880.cif
_audit_creation_date              2012-12-11T14:49:46-0500
_audit_creation_method            fapswitch 2.2
_symmetry_space_group_name_H-M    P1
_symmetry_Int_Tables_number       1
_space_group_crystal_system       triclinic
_cell_length_a                    11.020747
_cell_length_b                    11.04162
_cell_length_c                    18.773123
_cell_angle_alpha                 90.15087
_cell_angle_beta                  89.870246
_cell_angle_gamma                 120.53706
_cell_volume                      1967.58451235

loop_
_atom_site_label
_atom_site_type_symbol
_atom_type_description
_atom_site_fract_x
_atom_site_fract_y
_atom_site_fract_z
_atom_type_partial_charge
C1    C     C_R   0.526751 0.471887 0.648463 0.545782
C2    C     C_R   0.460348 0.533554 0.357168 0.553827
C3    C     C_R   0.468166 0.928536 0.144313 0.568684
C4    C     C_R   0.065449 0.535060 0.354942 0.543716
C5    C     C_R   0.427097 0.065480 0.529446 0.151790
C6    C     C_R   0.618659 0.629226 0.957958 0.163164
C7    C     C_R   0.974023 0.363859 0.535718 0.174705
C8    C     C_R   0.423711 0.062320 0.970726 0.129788
C9    C     C_R   0.618843 0.628949 0.541491 0.140072
C10   C     C_R   0.004094 0.379072 0.958590 0.170910
C11   C     C_R   0.006493 0.386468 0.033417 0.151207
C12   C     C_R   0.944617 0.473331 0.851622 0.538924
C13   C     C_R   0.611293 0.624239 0.466541 0.141280
C14   C     C_R   0.426774 0.046147 0.044608 0.120059
C15   C     C_R   0.971142 0.375035 0.460517 0.142095
C16   C     C_R   0.613511 0.622858 0.032830 0.141814
C17   C     C_R   0.428473 0.049061 0.455891 0.116393
C18   C     C_R   0.479937 0.966109 0.429072 0.023704
C19   C     C_R   0.484675 0.527995 0.066673 -0.006503
C20   C     C_R   0.034935 0.511069 0.430568 0.001770
C21   C     C_R   0.478080 0.962622 0.070202 0.021703
C22   C     C_R   0.482706 0.527954 0.433480 0.012892
C23   C     C_R   0.532242 0.062819 0.646148 0.559641
C24   C     C_R   0.045306 0.516320 0.066810 0.000620
C25   C     C_R   0.020378 0.495474 0.918996 -0.004712
C26   C     C_R   0.503629 0.525247 0.581312 -0.005160
C27   C     C_R   0.484995 0.005018 0.924846 0.017004
C28   C     C_R   0.009134 0.485812 0.577509 -0.010066
C29   C     C_R   0.503352 0.525827 0.918502 -0.013916
C30   C     C_R   0.489070 0.008560 0.574589 0.024555
C31   C     C_R   0.528915 0.900076 0.474506 -0.169857
C32   C     C_R   0.364724 0.445806 0.024938 -0.179163
C33   C     C_R   0.097356 0.631058 0.474328 -0.179785
C34   C     C_R   0.526534 0.472155 0.851369 0.541636
C35   C     C_R   0.523014 0.893774 0.023966 -0.179460
C36   C     C_R   0.362660 0.446208 0.475470 -0.173131
C37   C     C_R   0.088365 0.636690 0.024850 -0.182787
C38   C     C_R   0.077202 0.626431 0.951700 -0.192632
C39   C     C_R   0.372475 0.447035 0.548718 -0.189798
C40   C     C_R   0.526908 0.914973 0.951631 -0.198536
C41   C     C_R   0.081237 0.618534 0.547022 -0.201052
C42   C     C_R   0.373397 0.446748 0.951712 -0.186021
C43   C     C_R   0.535121 0.922282 0.546789 -0.182260
C44   C     C_3   0.219967 0.061926 0.571268 -0.287606
C45   C     C_R   0.941571 0.471185 0.647066 0.542951
C46   C     C_3   0.870445 0.762930 0.931413 -0.253563
C47   C     C_3   0.922231 0.112671 0.534609 -0.289239
C48   C     C_3   0.220393 0.064437 0.926894 -0.284820
C49   C     C_3   0.870451 0.750424 0.568529 -0.268216
C50   C     C_3   0.885598 0.123101 0.935932 -0.237284
C51   C     C_3   0.838738 0.201758 0.111228 -0.308204
C52   C     C_3   0.809212 0.672110 0.388576 -0.279270
C53   C     C_3   0.498237 0.236006 0.129138 -0.308386
C54   C     C_3   0.934251 0.190589 0.372880 -0.272425
C55   C     C_3   0.801636 0.649708 0.110398 -0.304127
C56   C     C_R   0.531411 0.062106 0.853723 0.553359
C57   C     C_3   0.497521 0.237231 0.371590 -0.307843
C58   C     C_R   0.461645 0.533009 0.143116 0.537550
C59   C     C_R   0.469081 0.931065 0.355084 0.551415
C60   C     C_R   0.072103 0.538776 0.143223 0.541888
Cr1   Cr    Cr6+3 0.776430 0.541680 0.750000 0.986465
Cr2   Cr    Cr6+3 0.765250 0.223570 0.750000 1.003182
Cr3   Cr    Cr6+3 0.458320 0.234750 0.750000 1.019245
Cr4   Cr    Cr6+3 0.541680 0.776430 0.250000 0.986030
Cr5   Cr    Cr6+3 0.223570 0.765250 0.250000 0.994891
Cr6   Cr    Cr6+3 0.234750 0.458320 0.250000 0.974335
H1    H     H_    0.564183 0.832479 0.453511 0.164764
H2    H     H_    0.117684 0.712460 0.579074 0.125567
H3    H     H_    0.281476 0.373910 0.921650 0.155346
H4    H     H_    0.580805 0.876821 0.580689 0.144322
H5    H     H_    0.396336 0.233142 0.528157 0.279922
H6    H     H_    0.184552 0.127373 0.598996 0.137475
H7    H     H_    0.195832 0.971164 0.606104 0.136305
H8    H     H_    0.161943 0.023668 0.520209 0.118831
H9    H     H_    0.712233 0.768866 0.872624 0.239319
H10   H     H_    0.930263 0.799078 0.880673 0.127497
H11   H     H_    0.860912 0.661910 0.947300 0.189937
H12   H     H_    0.263457 0.377478 0.048816 0.157661
H13   H     H_    0.928985 0.842683 0.973047 0.148186
H14   H     H_    0.008082 0.256185 0.615709 0.238462
H15   H     H_    0.910252 0.033008 0.574242 0.132914
H16   H     H_    0.014547 0.137469 0.500794 0.122433
H17   H     H_    0.822754 0.064935 0.504168 0.205685
H18   H     H_    0.398650 0.234071 0.971613 0.259298
H19   H     H_    0.188211 0.132215 0.899232 0.152307
H20   H     H_    0.158614 0.024770 0.976798 0.108170
H21   H     H_    0.196842 0.974768 0.891158 0.140318
H22   H     H_    0.717384 0.768914 0.626215 0.247566
H23   H     H_    0.154757 0.736085 0.452111 0.149761
H24   H     H_    0.927810 0.781025 0.619980 0.149369
H25   H     H_    0.935961 0.832187 0.529192 0.110979
H26   H     H_    0.855756 0.648079 0.550404 0.192363
H27   H     H_    0.046519 0.281303 0.873241 0.239978
H28   H     H_    0.854260 0.062627 0.885308 0.144727
H29   H     H_    0.794022 0.126927 0.957554 0.186367
H30   H     H_    0.917432 0.067499 0.973899 0.163650
H31   H     H_    0.051527 0.265012 0.101826 0.267145
H32   H     H_    0.812044 0.096212 0.130389 0.166836
H33   H     H_    0.753780 0.190776 0.075389 0.148444
H34   H     H_    0.556601 0.824634 0.044355 0.157119
H35   H     H_    0.846175 0.267176 0.157837 0.139816
H36   H     H_    0.784584 0.825024 0.443514 0.249501
H37   H     H_    0.917977 0.725640 0.410091 0.138824
H38   H     H_    0.814655 0.696216 0.330917 0.159570
H39   H     H_    0.762254 0.556810 0.395040 0.127852
H40   H     H_    0.304999 0.133804 0.076736 0.251619
H41   H     H_    0.455536 0.273812 0.171559 0.169097
H42   H     H_    0.558925 0.321555 0.090219 0.130206
H43   H     H_    0.570472 0.207350 0.155123 0.134931
H44   H     H_    0.797809 0.265020 0.394594 0.237253
H45   H     H_    0.260126 0.379858 0.451772 0.152274
H46   H     H_    0.873196 0.074968 0.380458 0.135366
H47   H     H_    0.923527 0.211152 0.316009 0.149014
H48   H     H_    0.046659 0.228958 0.384916 0.157556
H49   H     H_    0.733431 0.794801 0.099699 0.268829
H50   H     H_    0.907296 0.732121 0.129057 0.163818
H51   H     H_    0.814021 0.576059 0.074926 0.146822
H52   H     H_    0.737451 0.591158 0.157355 0.142979
H53   H     H_    0.299005 0.056277 0.378035 0.264531
H54   H     H_    0.453841 0.281636 0.333767 0.169035
H55   H     H_    0.559401 0.202487 0.339835 0.127988
H56   H     H_    0.129377 0.739838 0.048548 0.157758
H57   H     H_    0.568422 0.319757 0.409813 0.143060
H58   H     H_    0.102685 0.719412 0.921138 0.126305
H59   H     H_    0.279941 0.375290 0.579110 0.136424
H60   H     H_    0.569735 0.867575 0.916922 0.142978
N1    N     N_2   0.369437 0.144744 0.557458 -0.449802
N2    N     N_2   0.876897 0.255777 0.418470 -0.517811
N3    N     N_2   0.736730 0.715667 0.072232 -0.518507
N4    N     N_2   0.383834 0.121120 0.409741 -0.532016
N5    N     N_2   0.732826 0.746342 0.922912 -0.517378
N6    N     N_2   0.944522 0.236817 0.571795 -0.465780
N7    N     N_2   0.369216 0.144259 0.942940 -0.465351
N8    N     N_2   0.736445 0.743021 0.576259 -0.536508
N9    N     N_2   0.002993 0.263307 0.923551 -0.522559
N10   N     N_2   0.971042 0.263287 0.073343 -0.522302
N11   N     N_2   0.727759 0.723365 0.424698 -0.503601
N12   N     N_2   0.383413 0.116019 0.093639 -0.510880
O1    O     O_R   0.916700 0.566820 0.669930 -0.538434
O2    O     O_R   0.566820 0.916700 0.330070 -0.527271
O3    O     O_R   0.083300 0.650120 0.169930 -0.539713
O4    O     O_R   0.349880 0.433180 0.330070 -0.545489
O5    O     O_R   0.649840 0.534790 0.674920 -0.497595
O6    O     O_R   0.884950 0.350160 0.825080 -0.496179
O7    O     O_R   0.465210 0.115050 0.674920 -0.476741
O8    O     O_R   0.649840 0.534790 0.825080 -0.498064
O9    O     O_R   0.884950 0.350160 0.674920 -0.487704
O10   O     O_R   0.465210 0.115050 0.825080 -0.469602
O11   O     O_R   0.534790 0.649840 0.174920 -0.508848
O12   O     O_R   0.650120 0.083300 0.830070 -0.542861
O13   O     O_R   0.350160 0.884950 0.325080 -0.511467
O14   O     O_R   0.115050 0.465210 0.174920 -0.508194
O15   O     O_R   0.534790 0.649840 0.325080 -0.474345
O16   O     O_R   0.350160 0.884950 0.174920 -0.471005
O17   O     O_R   0.115050 0.465210 0.325080 -0.503405
O18   O     O_3   0.666667 0.333333 0.750000 -0.240054
O19   O     O_3   0.333333 0.666667 0.250000 -0.251724
O20   O     O_R   0.433180 0.349880 0.669930 -0.511912
O21   O     O_R   0.916700 0.566820 0.830070 -0.535400
O22   O     O_R   0.650120 0.083300 0.669930 -0.510440
O23   O     O_R   0.433180 0.349880 0.830070 -0.512657
O24   O     O_R   0.566820 0.916700 0.169930 -0.561937
O25   O     O_R   0.083300 0.650120 0.330070 -0.540480
O26   O     O_R   0.349880 0.433180 0.169930 -0.541639

loop_
_geom_bond_atom_site_label_1
_geom_bond_atom_site_label_2
_ccdc_geom_bond_type
C49   N8    S    
C52   H37   S    
Cr5   O13   S    
H14   N6    S    
C29   C42   A    
C28   C41   A    
C49   H24   S    
C34   O23   A    
C58   O26   A    
C46   H10   S    
C44   N1    S    
C31   H1    S    
C23   O7    A    
C37   C38   A    
C31   C43   A    
C39   H59   S    
C14   C21   A    
C1    O20   A    
Cr3   O18   S    
C50   N9    S    
Cr1   O21   S    
C55   H51   S    
Cr6   O17   S    
C60   O3    A    
C26   C39   A    
H40   N12   S    
C5    C17   A    
C55   H50   S    
C54   H47   S    
C54   H48   S    
C11   C24   A    
C45   O1    A    
H53   N4    S    
C60   O14   A    
C47   H16   S    
C9    C13   A    
C3    O24   A    
Cr1   O5    S    
C14   N12   S    
C55   N3    S    
Cr4   O19   S    
C2    C22   S    
C47   H17   S    
C52   N11   S    
C58   O11   A    
C9    N8    S    
C51   H32   S    
C7    C15   A    
C17   N4    S    
H5    N1    S    
C49   H25   S    
C19   C32   A    
C47   N6    S    
H9    N5    S    
C9    C26   A    
C24   C37   A    
C41   H2    S    
Cr5   O25   S    
C19   C58   S    
C51   H33   S    
C15   C20   A    
H18   N7    S    
C28   C45   S    
C48   H21   S    
Cr6   O26   S    
C53   N12   S    
C23   C30   S    
C57   N4    S    
C10   N9    S    
Cr4   O24   S    
C46   N5    S    
C27   C56   S    
Cr1   O1    S    
C3    O16   A    
C54   N2    S    
C29   C34   S    
C42   H3    S    
C7    C28   A    
C12   O6    A    
H36   N11   S    
C13   N11   S    
C56   O10   A    
Cr1   O8    S    
Cr6   O14   S    
Cr5   O16   S    
C1    O5    A    
C33   H23   S    
C25   C38   A    
C57   H57   S    
Cr5   O3    S    
C51   N10   S    
C53   H41   S    
C27   C40   A    
C24   C60   S    
C40   H60   S    
C23   O22   A    
C5    N1    S    
C36   H45   S    
C17   C18   A    
C4    O25   A    
C54   H46   S    
C44   H8    S    
C16   N3    S    
C7    N6    S    
C57   H54   S    
C21   C35   A    
C20   C33   A    
C10   C25   A    
Cr5   O19   S    
C32   H12   S    
C52   H39   S    
C2    O15   A    
Cr2   O9    S    
C1    C26   S    
C2    O4    A    
Cr2   O22   S    
C30   C43   A    
C3    C21   S    
C51   H35   S    
C49   H26   S    
C56   O12   A    
C35   H34   S    
Cr1   O18   S    
Cr3   O10   S    
H49   N3    S    
C5    C30   A    
Cr4   O2    S    
C53   H43   S    
Cr3   O23   S    
C52   H38   S    
C8    C14   A    
Cr2   O12   S    
C8    N7    S    
C45   O9    A    
C48   N7    S    
C36   C39   A    
C50   H28   S    
Cr2   O6    S    
C6    N5    S    
H27   N9    S    
C57   H55   S    
C46   H11   S    
Cr6   O4    S    
C59   O13   A    
C43   H4    S    
C22   C36   A    
Cr4   O11   S    
H31   N10   S    
C12   C25   S    
C15   N2    S    
C33   C41   A    
C35   C40   A    
H22   N8    S    
C11   N10   S    
C34   O8    A    
C53   H42   S    
C50   H30   S    
C46   H13   S    
C59   O2    A    
C16   C19   A    
Cr4   O15   S    
Cr2   O18   S    
C13   C22   A    
C44   H6    S    
C48   H20   S    
C47   H15   S    
C12   O21   A    
C44   H7    S    
C50   H29   S    
C10   C11   A    
C6    C16   A    
C37   H56   S    
C4    C20   S    
C18   C59   S    
C6    C29   A    
C4    O17   A    
C8    C27   A    
C32   C42   A    
C48   H19   S    
C18   C31   A    
Cr3   O20   S    
Cr3   O7    S    
Cr6   O19   S    
C38   H58   S    
H44   N2    S    
C55   H52   S    
