data_mof_unit_22053.cif
_audit_creation_date              2012-12-11T21:01:34-0500
_audit_creation_method            fapswitch 2.2
_symmetry_space_group_name_H-M    P1
_symmetry_Int_Tables_number       1
_space_group_crystal_system       triclinic
_cell_length_a                    8.505121
_cell_length_b                    18.9283
_cell_length_c                    22.893843
_cell_angle_alpha                 100.798183
_cell_angle_beta                  90.973485
_cell_angle_gamma                 91.304399
_cell_volume                      3618.57554142

loop_
_atom_site_label
_atom_site_type_symbol
_atom_type_description
_atom_site_fract_x
_atom_site_fract_y
_atom_site_fract_z
_atom_type_partial_charge
Ba1   Ba    Ba6+2 0.157800 0.534120 0.474430 1.728434
Ba2   Ba    Ba6+2 0.652390 0.465870 0.525520 1.708863
C1    C     C_3   0.352023 0.775833 0.276322 -0.309704
C2    C     C_R   0.098662 0.905475 0.543920 0.020714
C3    C     C_R   0.252831 0.927674 0.563719 -0.062082
C4    C     C_3   0.947080 0.726579 0.357537 0.903121
C5    C     C_R   0.314584 0.995081 0.558914 0.570942
C6    C     C_R   0.221911 0.043395 0.535100 -0.032278
C7    C     C_R   0.069254 0.021236 0.512794 -0.055764
C8    C     C_R   0.277646 0.113962 0.535323 0.002967
C9    C     C_R   0.180682 0.165079 0.516512 -0.033362
C10   C     C_R   0.029259 0.142325 0.491800 -0.011839
C11   C     C_R   0.974767 0.070098 0.489864 0.023023
C12   C     C_3   0.392672 0.725316 0.319694 0.406639
C13   C     C_R   0.228144 0.238786 0.523361 0.071735
C14   C     C_R   0.126678 0.287358 0.504526 -0.218512
C15   C     C_R   0.982476 0.265375 0.476142 0.007942
C16   C     C_3   0.958404 0.799542 0.338046 0.427147
C17   C     C_R   0.931636 0.191720 0.469530 -0.069364
C18   C     C_R   0.856841 0.928388 0.493824 0.096871
C19   C     C_R   0.798058 0.857358 0.495995 -0.011199
C20   C     C_R   0.889904 0.810483 0.524660 -0.049542
C21   C     C_R   0.028850 0.841605 0.556809 0.121750
C22   C     C_R   0.786749 0.165610 0.441780 -0.050447
C23   C     C_3   0.495881 0.693380 0.638271 0.309738
C24   C     C_R   0.729372 0.095641 0.443047 0.041172
C25   C     C_R   0.823175 0.047453 0.467243 0.037432
C26   C     C_R   0.764406 0.976825 0.469115 0.030801
C27   C     C_R   0.577218 0.073644 0.421682 -0.111905
C28   C     C_3   0.821286 0.375713 0.344255 0.271485
C29   C     C_R   0.518567 0.004822 0.424253 -0.065812
C30   C     C_R   0.611224 0.955705 0.447720 0.062733
C31   C     C_R   0.644861 0.835043 0.471697 -0.134319
C32   C     C_R   0.551113 0.886585 0.450521 0.567454
C33   C     C_R   0.589725 0.763028 0.471477 -0.047147
C34   C     C_3   0.488760 0.773526 0.667742 -0.078864
C35   C     C_R   0.680802 0.718213 0.499822 0.251270
C36   C     C_R   0.832484 0.737258 0.522654 0.075418
C37   C     C_R   0.631527 0.530865 0.337724 -0.259650
C38   C     C_R   0.320240 0.550575 0.952943 -0.017985
C39   C     C_R   0.271719 0.546469 0.893078 0.569086
C40   C     C_3   0.810480 0.355533 0.276792 -0.347463
C41   C     C_R   0.299809 0.418862 0.874315 0.646910
C42   C     C_R   0.344768 0.419895 0.934808 -0.097336
C43   C     C_R   0.357962 0.487425 0.974008 -0.075507
C44   C     C_R   0.332295 0.617174 0.991795 -0.065758
C45   C     C_3   0.872708 0.274043 0.684135 0.372179
C46   C     C_R   0.384800 0.623302 0.050880 0.055282
C47   C     C_R   0.426056 0.560204 0.072926 0.009135
C48   C     C_R   0.408085 0.492114 0.034430 -0.141211
C49   C     C_R   0.378321 0.356165 0.957389 -0.022274
C50   C     C_R   0.424413 0.361533 0.017426 0.622894
C51   C     C_R   0.440759 0.428694 0.056136 -0.121059
C52   C     C_3   0.948142 0.645576 0.669288 0.242046
C53   C     C_R   0.489146 0.433681 0.116355 0.638155
C54   C     C_R   0.484008 0.562437 0.131973 0.576674
C55   C     C_2   0.108481 0.439558 0.764675 -0.110729
C56   C     C_3   0.829748 0.228102 0.730702 -0.157755
C57   C     C_3   0.083354 0.426437 0.698195 -0.076571
C58   C     C_1   0.299964 0.514339 0.694538 0.029834
C59   C     C_2   0.341928 0.514890 0.751791 0.010213
C60   C     C_2   0.235117 0.478428 0.790388 0.272415
C61   C     C_R   0.701530 0.538459 0.236547 -0.091773
C62   C     C_R   0.740114 0.550177 0.297336 -0.020872
C63   C     C_R   0.496023 0.489083 0.316427 0.027826
C64   C     C_3   0.906105 0.678097 0.733228 -0.248617
C65   C     C_R   0.459741 0.476309 0.254991 -0.120922
C66   C     C_R   0.558223 0.503957 0.215068 0.211181
C67   C     C_3   0.334687 0.265556 0.663068 0.813124
C68   C     C_2   0.163447 0.484541 0.670495 -0.207733
C69   C     C_3   0.294656 0.305443 0.367416 0.908529
C70   C     C_3   0.268620 0.232179 0.324890 -0.064548
C71   C     C_3   0.330186 0.649126 0.293066 -0.257586
C72   C     C_3   0.976316 0.636041 0.777650 -0.429868
C73   C     C_3   0.168150 0.179603 0.352432 -0.440825
C74   C     C_3   0.425688 0.198125 0.304383 -0.308316
C75   C     C_3   0.570923 0.725303 0.324888 -0.373860
C76   C     C_3   0.565220 0.789708 0.730130 -0.361826
C77   C     C_3   0.564667 0.821522 0.628942 -0.453299
C78   C     C_3   0.384167 0.261159 0.726142 0.563853
C79   C     C_3   0.851237 0.230409 0.620847 -0.288715
C80   C     C_3   0.939910 0.165610 0.731808 -0.457752
C81   C     C_3   0.069016 0.826054 0.617608 -0.389323
C82   C     C_3   0.366567 0.281551 0.918944 -0.268247
C83   C     C_3   0.390931 0.698034 0.088721 -0.336874
C84   C     C_3   0.478355 0.561835 0.781469 -0.305779
C85   C     C_3   0.666707 0.555144 0.402719 -0.207205
C86   C     C_3   0.095083 0.499440 0.612387 -0.226717
C87   C     C_R   0.009434 0.950941 0.515459 0.014150
F1    F     F_    0.369274 0.295943 0.419346 -0.738153
F2    F     F_    0.863762 0.848720 0.371606 -0.766043
F3    F     F_    0.221205 0.212416 0.644805 -0.831642
F4    F     F_    0.490984 0.316164 0.748349 -0.683129
F5    F     F_    0.048486 0.726161 0.404738 -0.667039
F6    F     F_    0.462926 0.013930 0.579955 -0.738414
F7    F     F_    0.397267 0.872757 0.435865 -0.718479
F8    F     F_    0.613595 0.656685 0.510752 -0.765478
F9    F     F_    0.455174 0.300267 0.038061 -0.666694
H1    H     H_    0.717483 0.313282 0.263116 0.140235
H2    H     H_    0.203809 0.241974 0.284632 0.070902
H3    H     H_    0.414828 0.760772 0.233774 0.107454
H4    H     H_    0.620268 0.676981 0.634103 0.064518
H5    H     H_    0.437255 0.685751 0.593718 0.094950
H6    H     H_    0.363325 0.787607 0.672818 0.111431
H7    H     H_    0.385400 0.832392 0.296451 0.138983
H8    H     H_    0.998418 0.290766 0.692155 -0.000252
H9    H     H_    0.707948 0.206045 0.722243 0.147431
H10   H     H_    0.833971 0.263223 0.775483 0.134529
H11   H     H_    0.284914 0.319339 0.663153 -0.123317
H12   H     H_    0.781520 0.403032 0.257402 0.075660
H13   H     H_    0.278943 0.265680 0.754167 0.014387
H14   H     H_    0.437021 0.208390 0.727310 -0.012393
H15   H     H_    0.325698 0.892891 0.583914 0.083996
H16   H     H_    0.164691 0.343087 0.509437 0.068262
H17   H     H_    0.394973 0.129467 0.552643 0.151892
H18   H     H_    0.714600 0.199508 0.420139 0.122742
H19   H     H_    0.501550 0.110179 0.404159 0.075494
H20   H     H_    0.399771 0.990330 0.407806 0.129456
H21   H     H_    0.830803 0.718645 0.374904 -0.121704
H22   H     H_    0.782301 0.556358 0.205942 0.093408
H23   H     H_    0.924944 0.335008 0.259119 0.118861
H24   H     H_    0.301971 0.665532 0.975656 0.120242
H25   H     H_    0.031818 0.412018 0.791124 0.085501
H26   H     H_    0.353536 0.446049 0.238344 0.102453
H27   H     H_    0.080523 0.821526 0.343545 0.105636
H28   H     H_    0.920435 0.793991 0.290702 -0.028417
H29   H     H_    0.705184 0.393825 0.361326 0.031089
H30   H     H_    0.911057 0.419776 0.356458 0.060071
H31   H     H_    0.300833 0.618591 0.328162 0.151319
H32   H     H_    0.226958 0.649321 0.263094 0.141184
H33   H     H_    0.419399 0.619312 0.265206 0.096736
H34   H     H_    0.073873 0.632928 0.670738 0.022699
H35   H     H_    0.106752 0.638276 0.776217 0.165229
H36   H     H_    0.940041 0.660041 0.823282 0.163460
H37   H     H_    0.934514 0.579103 0.767413 0.146337
H38   H     H_    0.152882 0.127409 0.321065 0.135855
H39   H     H_    0.224305 0.169616 0.394082 0.145052
H40   H     H_    0.049584 0.201470 0.361250 0.120216
H41   H     H_    0.487151 0.230670 0.275707 0.134859
H42   H     H_    0.503668 0.195066 0.343052 0.138430
H43   H     H_    0.405668 0.143148 0.277761 0.105644
H44   H     H_    0.626300 0.713440 0.280578 0.117011
H45   H     H_    0.863969 0.600589 0.654584 0.071788
H46   H     H_    0.614931 0.778534 0.348687 0.149350
H47   H     H_    0.602955 0.682011 0.348603 0.003611
H48   H     H_    0.523625 0.750723 0.757548 0.140107
H49   H     H_    0.695096 0.788640 0.727432 0.117669
H50   H     H_    0.533480 0.844397 0.753082 0.120676
H51   H     H_    0.691548 0.810844 0.624465 0.114543
H52   H     H_    0.507909 0.810647 0.584300 0.105110
H53   H     H_    0.550696 0.879161 0.648877 0.168193
H54   H     H_    0.862015 0.266430 0.588161 0.099553
H55   H     H_    0.942134 0.189143 0.611427 0.128635
H56   H     H_    0.951192 0.734707 0.744751 0.136516
H57   H     H_    0.734505 0.202573 0.614491 0.151614
H58   H     H_    0.930088 0.125769 0.689581 0.161400
H59   H     H_    0.063367 0.185472 0.739457 0.160787
H60   H     H_    0.907000 0.137831 0.768627 0.135525
H61   H     H_    0.959783 0.819970 0.641811 0.132658
H62   H     H_    0.146893 0.779939 0.614571 0.156243
H63   H     H_    0.130566 0.872046 0.646980 0.078053
H64   H     H_    0.395591 0.238019 0.943345 0.164279
H65   H     H_    0.244413 0.269965 0.901293 0.129313
H66   H     H_    0.450546 0.277571 0.881924 0.154432
H67   H     H_    0.776306 0.677072 0.737402 0.103472
H68   H     H_    0.315244 0.699597 0.127966 0.140210
H69   H     H_    0.514088 0.713936 0.103041 0.156114
H70   H     H_    0.347203 0.739304 0.064206 0.086855
H71   H     H_    0.581353 0.559791 0.752734 0.142060
H72   H     H_    0.441565 0.618549 0.792944 0.123361
H73   H     H_    0.520303 0.543893 0.822267 0.114669
H74   H     H_    0.570367 0.560750 0.432052 0.212739
H75   H     H_    0.750078 0.518683 0.419045 0.122406
H76   H     H_    0.703907 0.612177 0.410200 0.071522
H77   H     H_    0.124249 0.551613 0.601458 0.076579
H78   H     H_    0.179336 0.330684 0.377614 -0.081954
H79   H     H_    0.119883 0.455103 0.574919 0.114491
H80   H     H_    0.971377 0.509816 0.615478 0.113191
H81   H     H_    0.224580 0.773115 0.265020 0.073493
N1    N     N_R   0.269668 0.481600 0.853753 -0.424768
N2    N     N_R   0.509745 0.499800 0.153277 -0.435461
O1    O     O_2   0.110690 0.676100 0.539200 -0.453535
O2    O     O_2   0.772636 0.473536 0.704904 -0.480089
O3    O     O_3   0.772259 0.333407 0.691550 -0.509414
O4    O     O_3   0.863220 0.586720 0.534720 -0.452918
O5    O     O_3   0.450900 0.461390 0.429220 -0.465457
O6    O     O_2   0.599830 0.538970 0.641850 -0.459301
O7    O     O_3   0.412992 0.653176 0.673499 -0.679286
O8    O     O_2   0.555871 0.244602 0.518723 -0.462551
O9    O     O_3   0.465777 0.253825 0.626467 -0.603640
O10   O     O_2   0.231697 0.600801 0.875844 -0.618527
O11   O     O_2   0.287499 0.361993 0.839518 -0.593495
O12   O     O_3   0.392867 0.347235 0.338514 -0.666486
O13   O     O_2   0.515200 0.379203 0.135934 -0.510814
O14   O     O_2   0.512500 0.620131 0.164618 -0.633482
O15   O     O_3   0.368310 0.629070 0.432760 -0.455093
O16   O     O_2   0.275732 0.754892 0.486473 -0.373351
O17   O     O_3   0.930855 0.696805 0.633597 -0.676173
O18   O     O_3   0.320018 0.752362 0.374748 -0.480340
O19   O     O_2   0.210480 0.460990 0.358130 -0.489374
O20   O     O_3   0.959520 0.592090 0.401630 -0.442635
O21   O     O_2   0.065084 0.537130 0.294472 -0.499692
O22   O     O_3   0.981673 0.672123 0.308741 -0.686308
O23   O     O_2   0.699610 0.323860 0.460780 -0.397303
O24   O     O_3   0.947090 0.413280 0.465240 -0.518299
O25   O     O_3   0.442000 0.370930 0.567190 -0.444161
O26   O     O_3   0.864267 0.314798 0.366459 -0.646254
O27   O     O_3   0.359410 0.538600 0.570730 -0.450016
O28   O     O_3   0.850780 0.407910 0.598320 -0.489314
P1    P     P_3+3 0.935930 0.665430 0.555670 1.039598
P2    P     P_3+3 0.382700 0.439650 0.365620 1.006278
P3    P     P_3+3 0.936800 0.587072 0.324808 0.948332
P4    P     P_3+3 0.874370 0.334570 0.444280 0.981615
P5    P     P_3+3 0.870163 0.409585 0.674863 0.982296
P6    P     P_3+3 0.394984 0.723284 0.439171 1.170096
P7    P     P_3+3 0.421179 0.560564 0.645727 0.960960
P8    P     P_3+3 0.419768 0.276837 0.557798 1.061593

loop_
_geom_bond_atom_site_label_1
_geom_bond_atom_site_label_2
_ccdc_geom_bond_type
C71   H33   S    
Ba1   P2    S    
C84   H71   S    
C39   N1    Am   
C37   C85   S    
C70   C74   S    
C68   C86   S    
C65   H26   S    
C35   F8    S    
O7    P7    S    
C57   P5    S    
C62   P3    S    
C5    C6    A    
C23   C34   S    
Ba1   O5    S    
C1    H7    S    
C38   C44   A    
C37   C62   A    
C52   H34   S    
C24   C25   A    
C86   H77   S    
C21   C81   S    
O18   P6    S    
C16   F2    S    
C77   H53   S    
C33   C35   A    
C32   F7    S    
Ba1   Ba2   S    
C56   C80   S    
C16   H27   S    
C60   N1    S    
C80   H60   S    
C23   H4    S    
C69   O12   S    
C19   C31   A    
C54   N2    Am   
C28   O26   S    
C13   C14   A    
C20   C36   A    
C72   H35   S    
O26   P4    S    
C79   H55   S    
C69   H78   S    
C78   H13   S    
C56   H9    S    
C12   C75   S    
Ba1   O27   S    
C1    H81   S    
C75   H44   S    
C7    C11   A    
C31   C33   A    
Ba2   O6    S    
C9    C13   A    
C78   F4    S    
C81   H62   S    
C14   C15   A    
C63   C65   A    
C86   H79   S    
Ba2   O25   S    
C58   C68   D    
C13   P8    S    
C67   F3    S    
Ba1   O24   S    
O20   P3    S    
C56   H10   S    
O16   P6    D    
C76   H50   S    
C77   H51   S    
C80   H58   S    
C74   H43   S    
C1    H3    S    
O2    P5    D    
C74   H42   S    
C52   H45   S    
C81   H63   S    
Ba1   O20   S    
O27   P7    S    
O5    P2    S    
C37   C63   A    
C67   H11   S    
C70   C73   S    
C15   P4    S    
O8    P8    D    
C52   O17   S    
C18   C87   A    
C71   H31   S    
C51   C53   A    
O1    P1    D    
C38   C43   A    
C85   H75   S    
C4    C16   S    
C28   H30   S    
C66   N2    S    
O21   P3    D    
C48   C51   A    
C39   O10   D    
C84   H73   S    
O19   P2    D    
C12   C71   S    
C55   C60   D    
Ba1   O15   S    
Ba2   O23   S    
C73   H39   S    
C7    C87   A    
C3    C5    A    
O15   P6    S    
C73   H38   S    
C6    C7    A    
C18   C26   A    
C4    F5    S    
C27   H19   S    
O23   P4    D    
C34   C77   S    
C49   C50   A    
C58   C59   D    
C83   H69   S    
C28   H29   S    
C65   C66   A    
Ba2   O5    S    
C29   H20   S    
C35   C36   A    
C23   O7    S    
C55   H25   S    
C54   O14   D    
O25   P8    S    
O3    P5    S    
C29   C30   A    
C26   C30   A    
C9    C10   A    
C45   H8    S    
C71   H32   S    
C72   H37   S    
C78   H14   S    
C31   C32   A    
C53   N2    Am   
C44   H24   S    
O4    P1    S    
Ba2   O24   S    
C36   P1    S    
C82   H65   S    
C1    C12   S    
C76   H49   S    
Ba2   P4    S    
C77   H52   S    
C42   C49   A    
C46   C47   A    
C41   O11   D    
C22   H18   S    
C8    C9    A    
C41   C42   A    
O22   P3    S    
Ba1   O19   S    
Ba2   O27   S    
C83   H68   S    
C41   N1    Am   
C79   H54   S    
O9    P8    S    
C75   H47   S    
C4    H21   S    
C82   H64   S    
C50   C51   A    
C64   H56   S    
C2    C87   A    
C70   H2    S    
C74   H41   S    
C80   H59   S    
C85   H76   S    
C45   O3    S    
O6    P7    D    
C38   C39   A    
Ba2   O28   S    
C75   H46   S    
C64   H67   S    
C3    H15   S    
Ba1   P1    S    
C84   H72   S    
C83   H70   S    
C20   C21   A    
C23   H5    S    
C42   C43   A    
C22   C24   A    
C2    C3    A    
C73   H40   S    
C14   H16   S    
C67   O9    S    
Ba1   O1    S    
C86   H80   S    
C52   C64   S    
Ba1   O4    S    
C47   C54   A    
C5    F6    S    
C12   O18   S    
C61   C66   A    
O28   P5    S    
C79   H57   S    
C34   H6    S    
C17   C22   A    
C58   P7    S    
Ba2   O4    S    
C4    O22   S    
C27   C29   A    
C34   C76   S    
C40   H1    S    
C16   H28   S    
C45   C56   S    
C61   H22   S    
C82   H66   S    
C69   F1    S    
C43   C48   A    
C85   H74   S    
C72   H36   S    
C10   C17   A    
C50   F9    S    
C15   C17   A    
C28   C40   S    
C45   C79   S    
C40   H12   S    
C59   C60   S    
O17   P1    S    
C63   P2    S    
O12   P2    S    
C55   C57   S    
C59   C84   S    
C76   H48   S    
C57   C68   S    
O24   P4    S    
C61   C62   A    
C44   C46   A    
C69   C70   S    
C53   O13   D    
C81   H61   S    
C18   C19   A    
C24   C27   A    
C6    C8    A    
C47   C48   A    
C25   C26   A    
C46   C83   S    
C11   C25   A    
C67   C78   S    
C10   C11   A    
C2    C21   A    
C19   C20   A    
C33   P6    S    
C49   C82   S    
C8    H17   S    
C40   H23   S    
C30   C32   A    
C64   C72   S    
