data_mof_unit_27661.cif
_audit_creation_date              2013-03-05T16:08:21-0500
_audit_creation_method            fapswitch 2.2
_symmetry_space_group_name_H-M    P1
_symmetry_Int_Tables_number       1
_space_group_crystal_system       triclinic
_cell_length_a                    6.952764
_cell_length_b                    14.528845
_cell_length_c                    16.071402
_cell_angle_alpha                 89.958431
_cell_angle_beta                  90.012619
_cell_angle_gamma                 90.065867
_cell_volume                      1623.46126658

loop_
_atom_site_label
_atom_site_type_symbol
_atom_site_description
_atom_site_fract_x
_atom_site_fract_y
_atom_site_fract_z
_atom_type_partial_charge
O1    O     O_R   0.505700 0.583890 0.413310 -0.593324
O2    O     O_R   0.175960 0.594920 0.586080 -0.608662
O3    O     O_R   0.005660 0.416110 0.586690 -0.594243
C1    C     C_R   0.344590 0.616208 0.615324 0.939940
O4    O     O_R   0.175980 0.594920 0.413930 -0.608647
O5    O     O_R   0.005680 0.416110 0.413310 -0.594781
C2    C     C_R   0.344677 0.617620 0.385804 0.934218
O6    O     O_R   0.505680 0.583890 0.586690 -0.588542
O7    O     O_3   0.339200 0.441330 0.500000 -0.272073
V1    V     V_3+5 0.064350 0.510880 0.500000 1.136437
O8    O     O_R   0.675960 0.405080 0.413920 -0.595450
C3    C     C_R   0.844980 0.383090 0.385086 0.935551
O9    O     O_R   0.675940 0.405080 0.586070 -0.593725
C4    C     C_R   0.844548 0.383471 0.615112 0.974436
V2    V     V_3+5 0.564340 0.489120 0.500000 1.154838
O10   O     O_3   0.839360 0.558670 0.500000 -0.275813
C5    C     C_R   0.999563 0.248528 0.686493 0.110753
C6    C     C_R   0.852116 0.313825 0.682262 -0.196434
C7    C     C_R   0.705562 0.307974 0.742717 -0.128551
H1    H     H_    0.586435 0.355787 0.741329 0.115484
C8    C     C_R   0.718329 0.244382 0.808979 -0.082653
H2    H     H_    0.607896 0.244616 0.856418 0.108362
C9    C     C_R   0.876921 0.184297 0.816083 -0.254141
C10   C     C_R   0.010459 0.184827 0.750864 0.147950
C11   C     C_3   0.225538 0.188003 0.751264 0.196744
C12   C     C_3   0.212613 0.258733 0.681139 -0.581403
H3    H     H_    0.287024 0.214648 0.810324 0.047359
H4    H     H_    0.269743 0.234442 0.620389 0.227623
H5    H     H_    0.260853 0.328615 0.699969 0.178629
C13   C     C_R   0.728669 0.181744 0.242219 0.164326
C14   C     C_R   0.882236 0.182150 0.185730 -0.224648
C15   C     C_R   0.033402 0.244532 0.200988 -0.160751
H6    H     H_    0.155551 0.247150 0.159511 0.135600
C16   C     C_R   0.022051 0.308779 0.266456 -0.157682
H7    H     H_    0.136395 0.358671 0.273571 0.130457
C17   C     C_R   0.858919 0.312794 0.318474 -0.227001
C18   C     C_R   0.717004 0.245559 0.306762 0.179704
C19   C     C_3   0.505506 0.256530 0.295748 -0.472762
C20   C     C_3   0.518100 0.186540 0.225750 -0.462055
H8    H     H_    0.467165 0.326751 0.273957 0.184867
H9    H     H_    0.423155 0.231259 0.350477 0.202326
H10   H     H_    0.486154 0.215894 0.163384 0.190366
H11   H     H_    0.443944 0.120605 0.240193 0.190713
C21   C     C_R   0.491719 0.675518 0.748408 0.057159
C22   C     C_R   0.350825 0.680952 0.686345 -0.223789
C23   C     C_R   0.203841 0.746647 0.698565 -0.149386
H12   H     H_    0.084965 0.751178 0.655245 0.134128
C24   C     C_R   0.214474 0.810865 0.764453 -0.075211
H13   H     H_    0.102483 0.862120 0.769954 0.161842
C25   C     C_R   0.373713 0.812239 0.819219 -0.198630
C26   C     C_R   0.504313 0.739732 0.811550 0.098830
C27   C     C_3   0.717161 0.730983 0.818464 -0.530781
C28   C     C_3   0.703348 0.657918 0.749531 0.034761
H14   H     H_    0.762010 0.703961 0.880218 0.188611
H15   H     H_    0.792009 0.794663 0.798138 0.195838
H16   H     H_    0.775893 0.676161 0.690081 0.148174
C29   C     C_R   0.492107 0.756753 0.316491 0.066272
C30   C     C_R   0.350809 0.688204 0.319480 -0.226929
C31   C     C_R   0.204684 0.693042 0.258438 -0.149325
H17   H     H_    0.085973 0.644771 0.259688 0.117798
C32   C     C_R   0.216659 0.756822 0.192024 -0.168589
H18   H     H_    0.106265 0.755988 0.144510 0.124168
C33   C     C_R   0.375524 0.817102 0.184616 -0.190585
C34   C     C_R   0.505111 0.817941 0.251030 0.127555
C35   C     C_3   0.717415 0.828368 0.259547 -0.551749
C36   C     C_3   0.702923 0.761691 0.333757 0.016087
H19   H     H_    0.759296 0.899884 0.276284 0.193393
H20   H     H_    0.795461 0.798703 0.205624 0.191827
H21   H     H_    0.777804 0.694710 0.325455 0.142866
O11   O     O_R   0.229000 0.916070 0.913330 -0.594546
O12   O     O_R   0.558770 0.905070 0.086080 -0.596498
O13   O     O_R   0.729000 0.083900 0.086690 -0.596839
C37   C     C_R   0.389599 0.883047 0.114740 0.924053
O14   O     O_R   0.558720 0.905070 0.913930 -0.589238
O15   O     O_R   0.728960 0.083900 0.913310 -0.574612
C38   C     C_R   0.389357 0.882793 0.885398 0.997015
O16   O     O_R   0.229050 0.916070 0.086710 -0.597183
O17   O     O_3   0.395460 0.058650 0.000020 -0.281939
V3    V     V_3+5 0.670340 0.989120 0.000000 1.165089
O18   O     O_R   0.058670 0.094960 0.913900 -0.600431
C39   C     C_R   0.889675 0.117382 0.885473 0.968797
O19   O     O_R   0.058720 0.094960 0.086050 -0.601878
C40   C     C_R   0.890007 0.116851 0.114938 0.926014
V4    V     V_3+5 0.170330 0.010930 0.999970 1.159399
O20   O     O_3   0.895340 0.941350 0.999980 -0.279834
N1    N     N_2   0.745460 0.565486 0.779013 -0.100112
H22   H     H_    0.667395 0.544712 0.830373 0.171925
C41   C     C_3   0.947459 0.543186 0.784908 -0.940379
H23   H     H_    0.964295 0.470758 0.805752 0.237188
H24   H     H_    0.020238 0.589160 0.830317 0.254884
H25   H     H_    0.016456 0.550178 0.723196 0.270209
N2    N     N_2   0.740627 0.805959 0.413191 -0.093873
H26   H     H_    0.662084 0.865020 0.424131 0.186232
C42   C     C_3   0.941499 0.815264 0.434683 -0.850857
H27   H     H_    0.954785 0.847954 0.496875 0.242591
H28   H     H_    0.017351 0.858664 0.388060 0.246201
H29   H     H_    0.009900 0.746599 0.437806 0.266152
N3    N     N_R   0.313079 0.101638 0.723692 0.257597
O21   O     O_R   0.496169 0.098812 0.707468 -0.392045
O22   O     O_R   0.211284 0.026843 0.716617 -0.430759

loop_
_geom_bond_atom_site_label_1
_geom_bond_atom_site_label_2
_geom_bond_distance
_ccdc_geom_bond_type
C4    C6    1.479795 S    
C7    H1    1.081842 S    
C29   C36   1.493381 S    
O18   V4    2.001473 S    
O12   V3    2.000663 S    
C22   C23   1.412990 A    
C21   C22   1.400131 A    
O14   C38   1.304122 A    
C5    C12   1.491021 S    
C17   C18   1.400434 A    
C7    C8    1.412189 A    
C6    C7    1.410538 A    
O13   V3    2.001229 S    
O5    C3    1.297359 A    
C19   C20   1.519586 S    
N1    C41   1.444774 S    
C36   H21   1.112326 S    
V2    O10   2.161699 S    
C14   C40   1.482930 S    
C16   H7    1.081348 S    
C32   C33   1.413836 A    
O8    V2    2.003025 S    
C21   C28   1.493857 S    
C35   H19   1.111958 S    
C9    C10   1.400409 A    
C28   N1    1.453824 S    
O1    V2    2.000356 S    
C3    C17   1.483371 S    
O11   V4    2.002256 S    
O7    V1    2.162709 S    
C2    C30   1.479180 S    
C27   H15   1.109972 S    
C1    O6    1.299402 A    
C24   C25   1.414364 A    
C31   H17   1.082652 S    
O9    C4    1.300417 A    
C32   H18   1.082642 S    
C27   H14   1.111726 S    
C25   C26   1.397107 A    
C20   H10   1.111454 S    
C1    C22   1.480192 S    
C23   C24   1.413706 A    
C31   C32   1.415375 A    
C5    C10   1.389713 A    
C26   C27   1.489595 S    
C10   C11   1.496067 S    
C19   H9    1.111555 S    
O4    C2    1.299209 A    
O17   V3    2.162758 S    
O15   C39   1.297713 A    
C36   N2    1.453547 S    
C33   C37   1.478836 S    
C42   H29   1.106775 S    
C30   C31   1.413930 A    
C13   C18   1.394207 A    
C15   C16   1.409316 A    
O2    C1    1.300121 A    
C18   C19   1.489790 S    
C25   C38   1.481576 S    
C14   C15   1.408639 A    
C41   H25   1.106381 S    
C35   H20   1.110185 S    
N2    C42   1.444825 S    
C5    C6    1.399186 A    
V4    O20   2.161718 S    
C42   H28   1.111711 S    
O3    C4    1.298852 A    
C21   C26   1.381657 A    
C24   H13   1.081714 S    
C41   H24   1.111105 S    
O19   C40   1.301542 A    
O6    V2    2.001898 S    
O19   V4    2.002906 S    
O14   V3    2.001678 S    
C8    C9    1.411721 A    
O11   C38   1.296183 A    
O2    V1    2.001671 S    
V3    O20   1.712147 S    
C27   C28   1.537814 S    
N1    H22   1.032719 S    
C29   C34   1.379777 A    
O12   C37   1.302755 A    
C28   H16   1.112234 S    
C23   H12   1.082573 S    
C9    C39   1.481639 S    
O1    C2    1.299889 A    
O18   C39   1.302250 A    
O5    V1    2.001145 S    
C20   H11   1.111756 S    
O8    C3    1.303508 A    
C11   H3    1.110652 S    
C12   H4    1.112010 S    
O16   V4    2.001929 S    
C15   H6    1.080373 S    
O9    V2    2.001397 S    
C11   C12   1.527314 S    
O4    V1    2.000627 S    
O3    V1    1.999906 S    
V1    O10   1.712202 S    
C34   C35   1.489964 S    
C19   H8    1.111152 S    
C29   C30   1.398948 A    
C13   C14   1.401665 A    
N2    H26   1.032861 S    
C13   C20   1.489417 S    
C16   C17   1.410468 A    
C35   C36   1.539212 S    
O7    V2    1.711697 S    
C42   H27   1.110714 S    
N3    O22   1.301190 A    
O13   C40   1.298965 A    
C33   C34   1.396695 A    
O17   V4    1.711223 S    
C11   N3    1.464239 S    
C41   H23   1.110400 S    
C12   H5    1.111099 S    
N3    O21   1.300167 A    
C37   O16   1.296091 A    
C8    H2    1.082171 S    
O15   V3    1.999908 S    
