data_mof_unit_61405.cif
_audit_creation_date              2012-12-10T18:19:04-0500
_audit_creation_method            fapswitch 2.2
_symmetry_space_group_name_H-M    P1
_symmetry_Int_Tables_number       1
_space_group_crystal_system       triclinic
_cell_length_a                    18.545051
_cell_length_b                    18.889172
_cell_length_c                    18.378824
_cell_angle_alpha                 109.649149
_cell_angle_beta                  108.705557
_cell_angle_gamma                 109.25511
_cell_volume                      5004.36800216

loop_
_atom_site_label
_atom_site_type_symbol
_atom_type_description
_atom_site_fract_x
_atom_site_fract_y
_atom_site_fract_z
_atom_type_partial_charge
C1    C     C_R   0.621389 0.500333 0.621986 0.924125
C2    C     C_R   0.377370 0.498439 0.378006 0.917936
C3    C     C_3   0.328871 0.237941 0.491520 -0.496564
C4    C     C_3   0.694091 0.773618 0.543007 -0.475098
C5    C     C_3   0.306898 0.312031 0.498260 -0.101557
C6    C     C_3   0.691238 0.685575 0.497845 -0.105907
C7    C     C_3   0.185244 0.187810 0.494653 -0.014432
C8    C     C_3   0.815000 0.808706 0.502974 -0.054435
C9    C     C_3   0.143054 0.196377 0.407858 0.267363
C10   C     C_3   0.857575 0.764919 0.552787 0.343427
C11   C     C_3   0.265571 0.171565 0.502890 -0.086295
C12   C     C_3   0.764636 0.845850 0.544340 -0.067502
C13   C     C_3   0.735173 0.583860 0.784168 0.150408
C14   C     C_3   0.239483 0.403588 0.230411 0.150838
C15   C     C_3   0.809071 0.583405 0.852438 -0.467442
C16   C     C_3   0.170342 0.405883 0.159335 -0.443094
C17   C     C_3   0.647795 0.415669 0.697349 0.449790
C18   C     C_3   0.353999 0.555698 0.272697 0.441434
C19   C     C_3   0.761510 0.500294 0.666643 -0.434479
C20   C     C_3   0.260279 0.537771 0.347015 -0.438637
C21   C     C_3   0.688252 0.499602 0.691372 -0.040981
C22   C     C_3   0.310456 0.498448 0.307872 -0.048210
C23   C     C_R   0.378896 0.379516 0.501270 0.951368
C24   C     C_R   0.619383 0.620113 0.496808 0.953712
C25   C     C_3   0.810216 0.498400 0.810127 0.039829
C26   C     C_3   0.189650 0.499698 0.187919 0.014487
C27   C     C_3   0.719002 0.421377 0.774543 -0.356991
C28   C     C_3   0.281175 0.553102 0.199600 -0.373643
C29   C     C_3   0.828705 0.491443 0.732465 -0.425134
C30   C     C_3   0.190170 0.539412 0.276395 -0.412865
C31   C     C_3   0.998474 0.313907 0.805955 0.057617
C32   C     C_3   0.992757 0.685909 0.186271 0.061034
C33   C     C_R   0.001243 0.122397 0.621568 0.837772
C34   C     C_R   0.996706 0.875952 0.378650 0.845179
C35   C     C_R   0.120392 0.120480 0.498441 0.896502
C36   C     C_R   0.879605 0.877661 0.499832 0.852512
C37   C     C_R   0.996782 0.620267 0.118998 0.829296
C38   C     C_R   0.997811 0.379970 0.875732 0.857426
C39   C     C_R   0.878860 0.498456 0.877443 0.871521
C40   C     C_R   0.121191 0.499743 0.120628 0.878467
C41   C     C_3   0.906953 0.167822 0.668869 -0.408865
C42   C     C_3   0.028453 0.754890 0.346988 -0.420316
C43   C     C_3   0.056885 0.209400 0.783288 -0.363756
C44   C     C_3   0.053408 0.847445 0.275834 -0.416440
C45   C     C_3   0.038681 0.349174 0.753361 -0.017453
C46   C     C_3   0.900405 0.680842 0.152522 -0.063346
C47   C     C_3   0.057421 0.283282 0.852458 -0.513358
C48   C     C_3   0.059403 0.777502 0.209739 -0.472453
C49   C     C_3   0.905015 0.234189 0.742753 0.099921
C50   C     C_3   0.023202 0.680570 0.273428 0.129574
C51   C     C_3   0.002356 0.192489 0.689148 0.086568
C52   C     C_3   0.994515 0.806703 0.309695 0.087362
C53   C     C_3   0.042492 0.276355 0.685757 -0.440276
C54   C     C_3   0.899676 0.743263 0.231949 -0.384574
C55   C     C_3   0.300627 0.345938 0.586147 0.161913
C56   C     C_3   0.672512 0.666040 0.401537 0.138811
C57   C     C_3   0.225274 0.274157 0.580283 -0.574728
C58   C     C_3   0.745963 0.737842 0.405228 -0.568944
C59   C     C_3   0.217875 0.273837 0.413205 0.386492
C60   C     C_3   0.781433 0.693406 0.553069 0.380227
H1    H     H_    0.107355 0.401378 0.802126 0.173827
H2    H     H_    0.895572 0.706482 0.105634 0.153719
H3    H     H_    0.326882 0.206038 0.427381 0.261655
H4    H     H_    0.702440 0.788930 0.609451 0.242378
H5    H     H_    0.396690 0.264251 0.543207 0.222780
H6    H     H_    0.629556 0.767660 0.506412 0.211251
H7    H     H_    0.301261 0.186747 0.572606 0.196278
H8    H     H_    0.727289 0.860062 0.495302 0.170408
H9    H     H_    0.765496 0.640546 0.776742 0.185994
H10   H     H_    0.206176 0.369160 0.258375 0.187125
H11   H     H_    0.872796 0.639452 0.876223 0.192777
H12   H     H_    0.104732 0.365570 0.149038 0.198245
H13   H     H_    0.800659 0.590682 0.911374 0.188016
H14   H     H_    0.168901 0.377583 0.094737 0.198411
H15   H     H_    0.111572 0.296348 0.701193 0.156891
H16   H     H_    0.867856 0.778314 0.209711 0.185763
H17   H     H_    0.703156 0.430139 0.829321 0.193663
H18   H     H_    0.280394 0.524196 0.135471 0.197357
H19   H     H_    0.735247 0.448073 0.598665 0.262925
H20   H     H_    0.304964 0.604306 0.404011 0.247939
H21   H     H_    0.795465 0.561879 0.668377 0.238943
H22   H     H_    0.228459 0.499396 0.372748 0.236898
H23   H     H_    0.895431 0.542871 0.756489 0.201575
H24   H     H_    0.125164 0.502748 0.269451 0.224957
H25   H     H_    0.825033 0.428211 0.698709 0.228722
H26   H     H_    0.203927 0.607128 0.297249 0.191371
H27   H     H_    0.721226 0.360004 0.753408 0.238313
H28   H     H_    0.294276 0.619905 0.215961 0.213134
H29   H     H_    0.885661 0.203821 0.780735 0.158650
H30   H     H_    0.090069 0.688438 0.294505 0.109030
H31   H     H_    0.874337 0.104292 0.662875 0.139799
H32   H     H_    0.097590 0.797597 0.400799 0.172212
H33   H     H_    0.006727 0.263987 0.617482 0.179400
H34   H     H_    0.860344 0.707253 0.255051 0.180650
H35   H     H_    0.869820 0.163005 0.604718 0.228606
H36   H     H_    0.989362 0.729912 0.376318 0.192684
H37   H     H_    0.125380 0.226708 0.798040 0.206692
H38   H     H_    0.026469 0.880161 0.243725 0.229018
H39   H     H_    0.028870 0.150084 0.787499 0.190261
H40   H     H_    0.119918 0.896381 0.331254 0.183197
H41   H     H_    0.034271 0.260681 0.893570 0.192833
H42   H     H_    0.127329 0.788130 0.238810 0.199355
H43   H     H_    0.125608 0.337693 0.897818 0.194405
H44   H     H_    0.046340 0.784148 0.149517 0.209252
H45   H     H_    0.362296 0.361906 0.640614 0.189367
H46   H     H_    0.610848 0.666667 0.369226 0.188101
H47   H     H_    0.251480 0.267209 0.639670 0.186968
H48   H     H_    0.715858 0.765792 0.368395 0.210831
H49   H     H_    0.176725 0.292716 0.587317 0.197169
H50   H     H_    0.777093 0.712050 0.368856 0.199473
O1    O     O_R   0.592570 0.552270 0.644860 -0.567618
O2    O     O_R   0.407430 0.447730 0.355140 -0.544554
O3    O     O_R   0.947720 0.540390 0.092600 -0.585276
O4    O     O_R   0.052280 0.459610 0.907400 -0.640241
O5    O     O_R   0.959660 0.552230 0.907350 -0.629507
O6    O     O_R   0.040340 0.447770 0.092650 -0.605937
O7    O     O_R   0.855120 0.447750 0.907440 -0.623613
O8    O     O_R   0.144880 0.552250 0.092560 -0.628270
O9    O     O_R   0.592650 0.447750 0.540350 -0.588247
O10   O     O_R   0.407350 0.552250 0.459650 -0.610099
O11   O     O_R   0.407370 0.459660 0.552260 -0.555607
O12   O     O_R   0.592630 0.540340 0.447740 -0.539689
O13   O     O_R   0.407450 0.355140 0.447760 -0.590963
O14   O     O_R   0.592550 0.644860 0.552240 -0.619972
O15   O     O_R   0.052270 0.092540 0.644860 -0.613947
O16   O     O_R   0.947730 0.907460 0.355140 -0.610646
O17   O     O_R   0.947710 0.092600 0.540380 -0.631437
O18   O     O_R   0.052290 0.907400 0.459620 -0.639360
O19   O     O_R   0.144880 0.092570 0.552230 -0.631773
O20   O     O_R   0.855120 0.907430 0.447770 -0.626689
O21   O     O_R   0.040310 0.092630 0.447750 -0.618337
O22   O     O_R   0.959690 0.907370 0.552250 -0.586112
O23   O     O_R   0.052260 0.644880 0.092510 -0.629164
O24   O     O_R   0.947740 0.355120 0.907490 -0.604082
Zn1   Zn    Zn3+2 0.499940 0.569790 0.569780 1.113446
Zn2   Zn    Zn3+2 0.500060 0.430210 0.430220 1.175475
Zn3   Zn    Zn3+2 0.069820 0.999960 0.569760 0.981481
Zn4   Zn    Zn3+2 0.930180 0.000040 0.430240 0.968299
Zn5   Zn    Zn3+2 0.069800 0.569760 0.999940 0.965629
Zn6   Zn    Zn3+2 0.930200 0.430240 0.000060 1.019696
C61   C     C_3   0.247949 0.078827 0.447318 -0.390953
C62   C     C_3   0.327815 0.068039 0.486830 -0.346098
C63   C     C_3   0.309165 0.976019 0.434671 -0.840843
H51   H     H_    0.258016 0.930436 0.440196 0.248658
H52   H     H_    0.287398 0.956953 0.363968 0.267605
H53   H     H_    0.369545 0.971986 0.461936 0.273466
H54   H     H_    0.384128 0.112926 0.486399 0.264704
H55   H     H_    0.346424 0.083621 0.556362 0.236202
H56   H     H_    0.192186 0.031025 0.445257 0.221197
H57   H     H_    0.232605 0.063425 0.378667 0.263984
C64   C     C_3   0.819064 0.935390 0.631863 -0.369818
C65   C     C_3   0.821997 0.938068 0.717692 -0.282492
C66   C     C_3   0.890903 0.025949 0.798793 -0.831792
H58   H     H_    0.957131 0.037937 0.809351 0.281329
H59   H     H_    0.880025 0.077791 0.790768 0.241523
H60   H     H_    0.886953 0.027049 0.858150 0.270398
H61   H     H_    0.757510 0.925057 0.713896 0.218012
H62   H     H_    0.837261 0.889445 0.728096 0.299883
H63   H     H_    0.886640 0.970166 0.644131 0.226694
H64   H     H_    0.787807 0.974210 0.619864 0.180577
Br1   Br    Br    0.228604 0.237462 0.304746 -0.392372
Br2   Br    Br    0.798285 0.718124 0.672336 -0.551000
Br3   Br    Br    0.097451 0.083235 0.303774 -0.534497
Br4   Br    Br    0.952711 0.854800 0.675848 -0.481484
Br5   Br    Br    0.662398 0.610017 0.834367 -0.446221
Br6   Br    Br    0.277969 0.327813 0.171456 -0.346963
Br7   Br    Br    0.545830 0.397511 0.714361 -0.535416
Br8   Br    Br    0.425236 0.520991 0.226324 -0.401198
Br9   Br    Br    0.604866 0.309965 0.588650 -0.470942
Br10  Br    Br    0.435879 0.675771 0.367055 -0.576406
Br11  Br    Br    0.811775 0.259217 0.695317 -0.566982
Br12  Br    Br    0.954856 0.571184 0.265026 -0.532021
C67   C     C_3   0.991588 0.388827 0.707532 -0.396221
C68   C     C_3   0.049462 0.447400 0.684897 -0.380060
C69   C     C_3   0.001729 0.484353 0.638197 -0.804937
H65   H     H_    0.940773 0.431518 0.576413 0.267775
H66   H     H_    0.985218 0.525083 0.682074 0.258503
H67   H     H_    0.044390 0.524843 0.621055 0.265216
H68   H     H_    0.109789 0.501700 0.746530 0.241435
H69   H     H_    0.068866 0.410462 0.641226 0.241590
H70   H     H_    0.930374 0.336721 0.645622 0.249987
H71   H     H_    0.973496 0.427809 0.750942 0.226511
C70   C     C_3   0.817352 0.590572 0.098838 -0.392771
C71   C     C_3   0.732800 0.595469 0.063873 -0.410777
C72   C     C_3   0.652943 0.505624 0.002431 -0.701477
H72   H     H_    0.658134 0.470217 0.944093 0.264136
H73   H     H_    0.647010 0.468512 0.037987 0.265581
H74   H     H_    0.593085 0.511326 0.978950 0.274119
H75   H     H_    0.723885 0.629940 0.119671 0.243482
H76   H     H_    0.736489 0.631328 0.026872 0.258734
H77   H     H_    0.818394 0.549576 0.040005 0.221717
H78   H     H_    0.814400 0.558794 0.139409 0.276753
Br13  Br    Br    0.294447 0.452735 0.630729 -0.445919
Br14  Br    Br    0.650927 0.553806 0.319056 -0.373403
Br15  Br    Br    0.194603 0.368385 0.414233 -0.559064
Br16  Br    Br    0.776325 0.579750 0.512269 -0.501708
C73   C     C_3   0.055903 0.203219 0.383635 -0.288080
C74   C     C_3   0.045940 0.262127 0.456898 -0.403022
C75   C     C_3   0.965354 0.270930 0.417899 -0.810530
H79   H     H_    0.971969 0.302185 0.377124 0.289040
H80   H     H_    0.905571 0.206565 0.376444 0.259561
H81   H     H_    0.958300 0.311402 0.472136 0.252781
H82   H     H_    0.036977 0.233387 0.498986 0.224185
H83   H     H_    0.103233 0.327680 0.498326 0.290331
H84   H     H_    0.044693 0.220753 0.330653 0.243535
H85   H     H_    0.996951 0.138886 0.348768 0.238919
C76   C     C_3   0.902148 0.724226 0.503593 -0.390697
C77   C     C_3   0.968307 0.703135 0.555828 -0.244332
C78   C     C_3   0.062971 0.765113 0.586176 -0.780850
H86   H     H_    0.072541 0.758639 0.528147 0.244135
H87   H     H_    0.080694 0.832950 0.626940 0.294159
H88   H     H_    0.107447 0.749304 0.626258 0.246400
H89   H     H_    0.962280 0.702909 0.613935 0.274973
H90   H     H_    0.953732 0.637059 0.512395 0.237854
H91   H     H_    0.851205 0.663904 0.440856 0.220675
H92   H     H_    0.934693 0.765082 0.480333 0.197745

loop_
_geom_bond_atom_site_label_1
_geom_bond_atom_site_label_2
_ccdc_geom_bond_type
C63   H53   S    
C40   O8    A    
C1    C21   S    
C77   H89   S    
C47   H41   S    
C68   H69   S    
C14   H10   S    
C73   H84   S    
C16   H12   S    
C24   O14   A    
C10   C76   S    
C26   C40   S    
C70   H78   S    
C61   H56   S    
C23   O11   A    
C3    H5    S    
C67   C68   S    
C49   H29   S    
C7    C11   S    
C12   H8    S    
C2    O2    A    
C46   H2    S    
C16   H14   S    
C19   C21   S    
O2    Zn2   S    
C29   H23   S    
C36   O20   A    
C36   O22   A    
C1    O9    A    
C38   O4    A    
C17   Br9   S    
C72   H73   S    
C37   O3    A    
C41   H35   S    
C63   H51   S    
C48   H44   S    
C42   H32   S    
C33   O17   A    
C78   H88   S    
C71   C72   S    
C11   H7    S    
C7    C9    S    
C8    C36   S    
C41   C49   S    
C9    Br3   S    
C27   H17   S    
C68   C69   S    
C32   C37   S    
C8    C58   S    
C44   H38   S    
C50   H30   S    
C62   C63   S    
C57   H49   S    
C9    C73   S    
C77   C78   S    
C2    C22   S    
C75   H81   S    
C77   H90   S    
C64   C65   S    
C74   C75   S    
O17   Zn4   S    
C4    C12   S    
C18   C22   S    
C28   H18   S    
C76   H91   S    
C35   O19   A    
C29   H25   S    
C8    C12   S    
C44   C52   S    
C45   C53   S    
C75   H79   S    
C31   C47   S    
C25   C29   S    
C32   C48   S    
C12   C64   S    
C73   H85   S    
C53   H15   S    
C7    C35   S    
C31   C49   S    
C33   O15   A    
C26   C28   S    
C52   C54   S    
C61   H57   S    
C69   H67   S    
C18   Br10  S    
C16   C26   S    
C65   H62   S    
C58   H48   S    
C47   H43   S    
C20   H20   S    
C53   H33   S    
C76   C77   S    
C17   C27   S    
C6    C60   S    
C18   C28   S    
C69   H66   S    
C17   Br7   S    
C6    C56   S    
C49   Br11  S    
C2    O10   A    
C72   H74   S    
C20   C30   S    
C59   Br15  S    
O22   Zn3   S    
C39   O7    A    
C17   C21   S    
C33   C51   S    
C9    C59   S    
C64   H63   S    
C46   C70   S    
C10   C60   S    
C70   C71   S    
C28   H28   S    
C59   Br1   S    
C45   C67   S    
C25   C39   S    
C13   Br5   S    
C69   H65   S    
C5    C23   S    
C34   O16   A    
C6    C24   S    
C46   C54   S    
C24   O12   A    
C78   H86   S    
O3    Zn6   S    
C13   C21   S    
C18   Br8   S    
O4    Zn5   S    
O11   Zn1   S    
C66   H60   S    
C19   H19   S    
C11   C61   S    
C62   H55   S    
C56   H46   S    
C42   C50   S    
O18   Zn3   S    
C56   Br14  S    
C5    C59   S    
C4    C6    S    
C41   H31   S    
C41   C51   S    
C20   C22   S    
C67   H71   S    
O23   Zn5   S    
C39   O5    A    
C15   H13   S    
C55   C57   S    
C74   H83   S    
C54   H16   S    
O7    Zn6   S    
C66   H59   S    
O12   Zn2   S    
O8    Zn5   S    
C19   C29   S    
C30   H26   S    
C35   O21   A    
C60   Br16  S    
C75   H80   S    
C63   H52   S    
C65   H61   S    
O16   Zn4   S    
C10   Br4   S    
O14   Zn1   S    
C55   Br13  S    
C14   C16   S    
C58   H50   S    
C32   C46   S    
C62   H54   S    
C5    C55   S    
C43   H37   S    
C43   H39   S    
C48   H42   S    
C3    C5    S    
C70   H77   S    
C23   O13   A    
C34   O18   A    
C26   C30   S    
C3    H3    S    
C25   C27   S    
C15   H11   S    
C4    H4    S    
C34   C52   S    
O9    Zn2   S    
C31   C38   S    
O13   Zn2   S    
C42   H36   S    
O10   Zn1   S    
O15   Zn3   S    
C64   H64   S    
C14   C22   S    
C13   C15   S    
C20   H22   S    
O21   Zn4   S    
C19   H21   S    
C61   C62   S    
C27   H27   S    
O24   Zn6   S    
C44   H40   S    
O1    Zn1   S    
C72   H72   S    
C40   O6    A    
C13   H9    S    
C60   Br2   S    
C43   C51   S    
C45   H1    S    
C76   H92   S    
C55   H45   S    
C56   C58   S    
C32   C50   S    
C71   H76   S    
C38   O24   A    
C30   H24   S    
C73   C74   S    
C37   O23   A    
C54   H34   S    
C3    C11   S    
C67   H70   S    
O19   Zn3   S    
C65   C66   S    
C4    H6    S    
C15   C25   S    
C8    C10   S    
C14   Br6   S    
C31   C45   S    
C74   H82   S    
C57   H47   S    
C78   H87   S    
C71   H75   S    
C50   Br12  S    
C51   C53   S    
C66   H58   S    
O5    Zn5   S    
C43   C47   S    
C68   H68   S    
C7    C57   S    
C1    O1    A    
C44   C48   S    
C42   C52   S    
O6    Zn6   S    
O20   Zn4   S    
