data_mof_unit_66189.cif
_audit_creation_date              2012-12-10T19:46:53-0500
_audit_creation_method            fapswitch 2.2
_symmetry_space_group_name_H-M    P1
_symmetry_Int_Tables_number       1
_space_group_crystal_system       triclinic
_cell_length_a                    28.265124
_cell_length_b                    18.264017
_cell_length_c                    21.67238
_cell_angle_alpha                 89.817514
_cell_angle_beta                  139.731721
_cell_angle_gamma                 90.02652
_cell_volume                      7231.51117011

loop_
_atom_site_label
_atom_site_type_symbol
_atom_type_description
_atom_site_fract_x
_atom_site_fract_y
_atom_site_fract_z
_atom_type_partial_charge
C1    C     C_R   0.858736 0.500100 0.858601 0.927977
C2    C     C_R   0.141264 0.499900 0.141399 0.927977
C3    C     C_R   0.358736 0.000100 0.858601 0.927976
C4    C     C_R   0.641264 0.999900 0.141399 0.927976
C5    C     C_R   0.037212 0.452109 0.819277 -0.300833
C6    C     C_R   0.962790 0.547893 0.180725 -0.300829
C7    C     C_R   0.537218 0.952113 0.819282 -0.300864
C8    C     C_R   0.462789 0.047892 0.180724 -0.300833
C9    C     C_R   0.039392 0.452649 0.757858 0.464415
C10   C     C_R   0.960611 0.547353 0.242144 0.464412
C11   C     C_R   0.539397 0.952653 0.757863 0.464418
C12   C     C_R   0.460610 0.047352 0.242143 0.464413
C13   C     C_R   0.998523 0.505320 0.684821 -0.228765
C14   C     C_R   0.001477 0.494680 0.315179 -0.228764
C15   C     C_R   0.498523 0.005321 0.684822 -0.228754
C16   C     C_R   0.501477 0.994680 0.315179 -0.228763
C17   C     C_1   0.782260 0.500282 0.781892 -0.191793
C18   C     C_1   0.217740 0.499718 0.218108 -0.191792
C19   C     C_1   0.282260 0.000282 0.781892 -0.191793
C20   C     C_1   0.717740 0.999718 0.218108 -0.191793
C21   C     C_1   0.717474 0.500248 0.717060 -0.183448
C22   C     C_1   0.282526 0.499752 0.282940 -0.183448
C23   C     C_1   0.217474 0.000248 0.717060 -0.183448
C24   C     C_1   0.782526 0.999752 0.282940 -0.183448
C25   C     C_R   0.999906 0.641268 0.499998 0.916945
C26   C     C_R   0.000094 0.358732 0.500002 0.916948
C27   C     C_R   0.499906 0.141267 0.499998 0.916944
C28   C     C_R   0.500094 0.858732 0.500002 0.916952
C29   C     C_R   0.999759 0.502550 0.619959 0.905641
C30   C     C_R   0.000241 0.497450 0.380041 0.905638
C31   C     C_R   0.499759 0.002550 0.619959 0.905664
C32   C     C_R   0.500241 0.997450 0.380041 0.905641
C33   C     C_R   0.500105 0.640988 0.500022 0.927063
C34   C     C_R   0.499894 0.359012 0.499978 0.927063
C35   C     C_R   0.000105 0.140988 0.500022 0.927062
C36   C     C_R   0.999895 0.859012 0.499978 0.927062
C37   C     C_R   0.640987 0.500092 0.640853 0.926248
C38   C     C_R   0.359013 0.499908 0.359147 0.926250
C39   C     C_R   0.140987 0.000092 0.640853 0.926248
C40   C     C_R   0.859013 0.999908 0.359147 0.926250
C41   C     C_1   0.999750 0.717737 0.499999 -0.202570
C42   C     C_1   0.000250 0.282263 0.500000 -0.202569
C43   C     C_1   0.499750 0.217737 0.499999 -0.202570
C44   C     C_1   0.500250 0.782263 0.500001 -0.202580
C45   C     C_R   0.996362 0.500181 0.876158 0.903931
C46   C     C_R   0.003638 0.499819 0.123842 0.903932
C47   C     C_R   0.496363 0.000181 0.876159 0.903931
C48   C     C_R   0.503638 0.999819 0.123842 0.903932
C49   C     C_1   0.499766 0.282526 0.500014 -0.191150
C50   C     C_1   0.500234 0.717474 0.499986 -0.191139
C51   C     C_1   0.999766 0.782526 0.500014 -0.191152
C52   C     C_1   0.000234 0.217474 0.499986 -0.191154
C53   C     C_R   0.895433 0.596720 0.708454 -0.148381
C54   C     C_R   0.104564 0.403277 0.291544 -0.148380
C55   C     C_R   0.395428 0.096714 0.708449 -0.148381
C56   C     C_R   0.604565 0.903279 0.291545 -0.148380
C57   C     C_R   0.855347 0.649284 0.636141 -0.141925
C58   C     C_R   0.144649 0.350712 0.363855 -0.141926
C59   C     C_R   0.355339 0.149275 0.636134 -0.141923
C60   C     C_R   0.644650 0.850713 0.363856 -0.141927
C61   C     C_R   0.865451 0.657655 0.583004 -0.136117
C62   C     C_R   0.134544 0.342341 0.416992 -0.136116
C63   C     C_R   0.365442 0.157647 0.582996 -0.136116
C64   C     C_R   0.634546 0.842343 0.416993 -0.136116
C65   C     C_R   0.913656 0.611674 0.599579 -0.137590
C66   C     C_R   0.086341 0.388324 0.400418 -0.137591
C67   C     C_R   0.413650 0.111669 0.599573 -0.137593
C68   C     C_R   0.586342 0.888324 0.400419 -0.137591
C69   C     C_R   0.952849 0.556069 0.670295 0.037099
C70   C     C_R   0.047150 0.443929 0.329704 0.037100
C71   C     C_R   0.452846 0.056067 0.670293 0.037094
C72   C     C_R   0.547150 0.943930 0.329704 0.037099
C73   C     C_R   0.946798 0.551399 0.728911 0.098717
C74   C     C_R   0.053201 0.448600 0.271088 0.098718
C75   C     C_R   0.446795 0.051396 0.728909 0.098715
C76   C     C_R   0.553202 0.948600 0.271088 0.098717
C77   C     C_R   0.991872 0.500812 0.805591 -0.182111
C78   C     C_R   0.008128 0.499188 0.194410 -0.182115
C79   C     C_R   0.491873 0.000812 0.805592 -0.182093
C80   C     C_R   0.508128 0.999187 0.194409 -0.182112
H1    H     H_    0.071769 0.413724 0.878578 0.180037
H2    H     H_    0.928234 0.586279 0.121426 0.180039
H3    H     H_    0.571778 0.913732 0.878588 0.180022
H4    H     H_    0.428233 0.086278 0.121424 0.180038
H5    H     H_    0.884753 0.591474 0.746680 0.147758
H6    H     H_    0.115245 0.408523 0.253319 0.147758
H7    H     H_    0.384749 0.091467 0.746676 0.147754
H8    H     H_    0.615246 0.908524 0.253319 0.147758
H9    H     H_    0.816680 0.683970 0.621741 0.133618
H10   H     H_    0.183315 0.316024 0.378254 0.133617
H11   H     H_    0.316669 0.183959 0.621732 0.133618
H12   H     H_    0.683317 0.816026 0.378255 0.133618
H13   H     H_    0.835312 0.699450 0.528104 0.133171
H14   H     H_    0.164682 0.300545 0.471890 0.133171
H15   H     H_    0.335301 0.199441 0.528093 0.133170
H16   H     H_    0.664684 0.800547 0.471893 0.133171
H17   H     H_    0.920148 0.620745 0.557036 0.145778
H18   H     H_    0.079849 0.379254 0.442960 0.145777
H19   H     H_    0.420141 0.120741 0.557031 0.145781
H20   H     H_    0.579850 0.879254 0.442962 0.145777
O1    O     O_R   0.892670 0.439420 0.892670 -0.613506
O2    O     O_R   0.107330 0.560580 0.107330 -0.613507
O3    O     O_R   0.107330 0.439420 0.107330 -0.630707
O4    O     O_R   0.892670 0.560580 0.892670 -0.630707
O5    O     O_R   0.392670 0.939420 0.892670 -0.613507
O6    O     O_R   0.607330 0.060580 0.107330 -0.613507
O7    O     O_R   0.607330 0.939420 0.107330 -0.630708
O8    O     O_R   0.392670 0.060580 0.892670 -0.630706
O9    O     O_R   0.999990 0.439420 0.908380 -0.624177
O10   O     O_R   0.000010 0.560580 0.091620 -0.624177
O11   O     O_R   0.000010 0.439420 0.091620 -0.624812
O12   O     O_R   0.999990 0.560580 0.908380 -0.624812
O13   O     O_R   0.499990 0.939420 0.908380 -0.624178
O14   O     O_R   0.500010 0.060580 0.091620 -0.624177
O15   O     O_R   0.500010 0.939420 0.091620 -0.624812
O16   O     O_R   0.499990 0.060580 0.908380 -0.624811
O17   O     O_R   0.060590 0.607350 0.560620 -0.618547
O18   O     O_R   0.939410 0.392650 0.439380 -0.618546
O19   O     O_R   0.939410 0.607350 0.439380 -0.627915
O20   O     O_R   0.060590 0.392650 0.560620 -0.627919
O21   O     O_R   0.560590 0.107350 0.560620 -0.618547
O22   O     O_R   0.439410 0.892650 0.439380 -0.618540
O23   O     O_R   0.439410 0.107350 0.439380 -0.627918
O24   O     O_R   0.560590 0.892650 0.560620 -0.627925
O25   O     O_R   0.060610 0.500000 0.652240 -0.570591
O26   O     O_R   0.939390 0.500000 0.347760 -0.570593
O27   O     O_R   0.560610 0.000000 0.652240 -0.570583
O28   O     O_R   0.439390 0.000000 0.347760 -0.570592
O29   O     O_R   0.939430 0.500000 0.531050 -0.644834
O30   O     O_R   0.060570 0.500000 0.468950 -0.644835
O31   O     O_R   0.439430 0.000000 0.531050 -0.644834
O32   O     O_R   0.560570 0.000000 0.468950 -0.644835
O33   O     O_R   0.500010 0.607330 0.448300 -0.617244
O34   O     O_R   0.499990 0.392670 0.551700 -0.617242
O35   O     O_R   0.499990 0.607330 0.551700 -0.626836
O36   O     O_R   0.500010 0.392670 0.448300 -0.626841
O37   O     O_R   0.000010 0.107330 0.448300 -0.617242
O38   O     O_R   0.999990 0.892670 0.551700 -0.617241
O39   O     O_R   0.999990 0.107330 0.551700 -0.626842
O40   O     O_R   0.000010 0.892670 0.448300 -0.626843
O41   O     O_R   0.607330 0.500000 0.555630 -0.622226
O42   O     O_R   0.392670 0.500000 0.444370 -0.622226
O43   O     O_R   0.107330 0.000000 0.555630 -0.622226
O44   O     O_R   0.892670 0.000000 0.444370 -0.622225
O45   O     O_R   0.607340 0.500000 0.659080 -0.616038
O46   O     O_R   0.392660 0.500000 0.340920 -0.616037
O47   O     O_R   0.107340 0.000000 0.659080 -0.616037
O48   O     O_R   0.892660 0.000000 0.340920 -0.616037
Zn1   Zn    Zn3+2 0.000000 0.419100 0.000000 0.961411
Zn2   Zn    Zn3+2 1.000000 0.580900 0.000000 0.961412
Zn3   Zn    Zn3+2 0.500000 0.919100 0.000000 0.961408
Zn4   Zn    Zn3+2 0.500000 0.080900 0.000000 0.961412
Zn5   Zn    Zn3+2 0.080920 0.500000 0.580940 0.980090
Zn6   Zn    Zn3+2 0.919080 0.500000 0.419060 0.980091
Zn7   Zn    Zn3+2 0.580920 0.000000 0.580940 0.980095
Zn8   Zn    Zn3+2 0.419080 0.000000 0.419060 0.980095
Zn9   Zn    Zn3+2 0.500000 0.500000 0.430940 0.966669
Zn10  Zn    Zn3+2 0.500000 0.500000 0.569060 0.966670
Zn11  Zn    Zn3+2 0.000000 0.000000 0.430940 0.966669
Zn12  Zn    Zn3+2 0.000000 0.000000 0.569060 0.966671
O49   O     O_3   0.084764 0.403880 0.772567 -0.588567
C81   C     C_3   0.046922 0.337250 0.727133 0.090856
H21   H     H_    0.997117 0.345437 0.648635 0.129956
H22   H     H_    0.030813 0.313347 0.756476 0.138806
C82   C     C_3   0.096710 0.282710 0.744225 -0.777211
H23   H     H_    0.145815 0.271486 0.821851 0.253490
H24   H     H_    0.066949 0.230602 0.706907 0.212849
H25   H     H_    0.114424 0.305095 0.716583 0.265372
O50   O     O_3   0.915240 0.596124 0.227437 -0.588567
C83   C     C_3   0.953086 0.662750 0.272878 0.090852
H26   H     H_    0.969206 0.686651 0.243549 0.138802
H27   H     H_    0.002884 0.654560 0.351377 0.129962
C84   C     C_3   0.903298 0.717296 0.255778 -0.777217
H28   H     H_    0.885581 0.694918 0.283420 0.265365
H29   H     H_    0.933059 0.769405 0.293092 0.212852
H30   H     H_    0.854193 0.728515 0.178150 0.253496
O51   O     O_3   0.584775 0.903891 0.772576 -0.588562
C85   C     C_3   0.546954 0.837245 0.727188 0.090832
H31   H     H_    0.497128 0.845409 0.648690 0.129959
H32   H     H_    0.530884 0.813343 0.756579 0.138818
C86   C     C_3   0.596741 0.782720 0.744261 -0.777208
H33   H     H_    0.645878 0.771533 0.821889 0.253507
H34   H     H_    0.567001 0.730593 0.706996 0.212840
H35   H     H_    0.614402 0.805098 0.716548 0.265360
O52   O     O_3   0.415238 0.096122 0.227436 -0.588566
C87   C     C_3   0.453082 0.162751 0.272870 0.090850
H36   H     H_    0.469196 0.186651 0.243534 0.138804
H37   H     H_    0.502883 0.154564 0.351369 0.129962
C88   C     C_3   0.403293 0.217295 0.255772 -0.777214
H38   H     H_    0.385583 0.194918 0.283423 0.265364
H39   H     H_    0.433052 0.269406 0.293079 0.212850
H40   H     H_    0.354185 0.228509 0.178144 0.253500

loop_
_geom_bond_atom_site_label_1
_geom_bond_atom_site_label_2
_ccdc_geom_bond_type
C58   C62   A    
C7    H3    S    
C30   O26   A    
C82   H23   S    
C56   C76   A    
C55   C59   A    
C2    C18   S    
C14   C70   A    
O50   C83   S    
O13   Zn3   S    
C19   C23   T    
C16   C72   A    
C31   O27   A    
C72   C76   A    
O49   C81   S    
C27   O21   A    
C45   O12   A    
O46   Zn9   S    
C86   H33   S    
C3    O5    A    
C10   O50   S    
C7    C11   A    
O3    Zn1   S    
C57   H9    S    
C6    H2    S    
C64   C68   A    
C13   C29   S    
O31   Zn8   S    
C26   O20   A    
C29   O25   A    
O40   Zn11  S    
O29   Zn6   S    
C45   O9    A    
C56   H8    S    
C83   H26   S    
C34   O34   A    
C39   O47   A    
C22   C38   S    
C63   H15   S    
C27   O23   A    
O32   Zn7   S    
C15   C31   S    
O4    Zn2   S    
C88   H39   S    
C9    C13   A    
C16   C32   S    
C38   O46   A    
C31   O31   A    
C35   O39   A    
O8    Zn4   S    
C48   O14   A    
C11   C15   A    
C29   O29   A    
C20   C24   T    
C70   C74   A    
C3    C19   S    
C11   O51   S    
C47   C79   S    
C8    C12   A    
O44   Zn12  S    
C67   C71   A    
C67   H19   S    
C55   C75   A    
C60   H12   S    
C28   O22   A    
C82   H24   S    
O35   Zn10  S    
C54   C74   A    
C46   O11   A    
O37   Zn11  S    
C53   H5    S    
C38   O42   A    
O42   Zn10  S    
O47   Zn12  S    
O11   Zn1   S    
O25   Zn5   S    
C85   H31   S    
C81   H22   S    
O23   Zn8   S    
C84   H29   S    
C47   O16   A    
O5    Zn3   S    
C4    O7    A    
C63   C67   A    
C71   C75   A    
O6    Zn4   S    
C40   O48   A    
C12   C16   A    
C64   H16   S    
C10   C14   A    
C86   H34   S    
C25   C41   S    
C54   H6    S    
C62   C66   A    
C43   C49   T    
C33   C50   S    
C84   H28   S    
C4    O6    A    
C46   C78   S    
C28   C44   S    
C17   C21   T    
C56   C60   A    
O48   Zn11  S    
C88   H40   S    
O9    Zn1   S    
C68   H20   S    
C5    C9    A    
C27   C43   S    
C81   C82   S    
C5    H1    S    
C69   C73   A    
C33   O35   A    
C34   O36   A    
C68   C72   A    
C59   H11   S    
C9    O49   S    
C58   H10   S    
C1    O4    A    
C36   C51   S    
C37   O41   A    
C66   H18   S    
O2    Zn2   S    
C48   O15   A    
O36   Zn9   S    
O26   Zn6   S    
O41   Zn9   S    
O34   Zn10  S    
C39   O43   A    
O39   Zn12  S    
C82   H25   S    
C62   H14   S    
O27   Zn7   S    
C5    C77   A    
O12   Zn2   S    
C76   C80   A    
C87   H37   S    
C1    O1    A    
O16   Zn4   S    
C26   C42   S    
C7    C79   A    
C81   H21   S    
C54   C58   A    
C86   H35   S    
C44   C50   T    
C47   O13   A    
C24   C40   S    
C34   C49   S    
C53   C57   A    
O21   Zn7   S    
C32   O32   A    
C8    H4    S    
O22   Zn8   S    
C33   O33   A    
C53   C73   A    
C26   O18   A    
O10   Zn2   S    
C25   O17   A    
C6    C10   A    
C85   H32   S    
C28   O24   A    
C57   C61   A    
C3    O8    A    
O19   Zn6   S    
C15   C71   A    
C59   C63   A    
C25   O19   A    
C40   O44   A    
C60   C64   A    
C32   O28   A    
C87   C88   S    
C18   C22   T    
O7    Zn3   S    
C46   O10   A    
C30   O30   A    
C75   C79   A    
C35   O37   A    
O17   Zn5   S    
O45   Zn10  S    
C48   C80   S    
O52   C87   S    
C66   C70   A    
C13   C69   A    
C2    O3    A    
C65   C69   A    
C12   O52   S    
O1    Zn1   S    
O20   Zn5   S    
C84   H30   S    
C41   C51   T    
O18   Zn6   S    
O30   Zn5   S    
O33   Zn9   S    
O43   Zn11  S    
C36   O40   A    
C61   C65   A    
C55   H7    S    
C88   H38   S    
C85   C86   S    
C6    C78   A    
O28   Zn8   S    
C65   H17   S    
C4    C20   S    
O38   Zn12  S    
C21   C37   S    
C1    C17   S    
C73   C77   A    
O51   C85   S    
C74   C78   A    
O24   Zn7   S    
O15   Zn3   S    
C35   C52   S    
C8    C80   A    
C2    O2    A    
C45   C77   S    
C83   H27   S    
C37   O45   A    
C87   H36   S    
C61   H13   S    
C36   O38   A    
C23   C39   S    
C14   C30   S    
O14   Zn4   S    
C42   C52   T    
C83   C84   S    
