data_mof_unit_8662.cif
_audit_creation_date              2012-12-11T15:21:56-0500
_audit_creation_method            fapswitch 2.2
_symmetry_space_group_name_H-M    P1
_symmetry_Int_Tables_number       1
_space_group_crystal_system       triclinic
_cell_length_a                    8.249418
_cell_length_b                    12.689671
_cell_length_c                    18.977089
_cell_angle_alpha                 94.366773
_cell_angle_beta                  93.993999
_cell_angle_gamma                 97.925166
_cell_volume                      1955.40986559

loop_
_atom_site_label
_atom_site_type_symbol
_atom_type_description
_atom_site_fract_x
_atom_site_fract_y
_atom_site_fract_z
_atom_type_partial_charge
Ba1   Ba    Ba6+2 0.160910 0.552960 0.466220 1.710729
Ba2   Ba    Ba6+2 0.649260 0.447030 0.533730 1.670128
C1    C     C_3   0.383817 0.863192 0.203514 -0.282670
C2    C     C_R   0.737335 0.816118 0.471492 -0.265346
C3    C     C_R   0.703699 0.997139 0.449357 -0.103270
C4    C     C_3   0.863409 0.819924 0.266594 0.313510
C5    C     C_R   0.643076 0.888094 0.443288 -0.026898
C6    C     C_R   0.887856 0.850895 0.510083 0.062888
C7    C     C_R   0.948964 0.963416 0.518514 -0.056377
C8    C     C_R   0.855884 0.037950 0.486850 -0.055749
C9    C     C_R   0.917001 0.150818 0.494871 0.058942
C10   C     C_R   0.162048 0.112901 0.560593 -0.016834
C11   C     C_R   0.101739 0.003708 0.555644 -0.099624
C12   C     C_3   0.454281 0.841734 0.276338 0.306760
C13   C     C_R   0.623848 0.531559 0.297275 -0.236135
C14   C     C_R   0.464025 0.483648 0.275965 0.030041
C15   C     C_R   0.404615 0.480265 0.204663 -0.132877
C16   C     C_3   0.940162 0.933445 0.288077 -0.281077
C17   C     C_R   0.506172 0.524969 0.154771 0.037655
C18   C     C_R   0.668206 0.571611 0.176777 -0.093186
C19   C     C_R   0.726933 0.573408 0.247991 0.029474
C20   C     C_R   0.418523 0.608999 0.046383 -0.137243
C21   C     C_R   0.358750 0.602410 0.974842 0.374078
C22   C     C_R   0.328715 0.501535 0.934584 -0.020628
C23   C     C_3   0.556036 0.771667 0.631015 0.274161
C24   C     C_R   0.352653 0.408197 0.968077 0.383425
C25   C     C_R   0.412746 0.418124 0.040359 -0.123803
C26   C     C_R   0.445536 0.517553 0.079192 -0.037714
C27   C     C_R   0.114464 0.440433 0.832219 0.397806
C28   C     C_3   0.692838 0.244465 0.310988 0.754694
C29   C     C_R   0.072297 0.422248 0.758152 -0.057345
C30   C     C_R   0.339721 0.512896 0.735179 0.024738
C31   C     C_R   0.386545 0.525785 0.808103 -0.114279
C32   C     C_R   0.274646 0.490522 0.857213 0.059170
C33   C     C_R   0.186919 0.456131 0.710781 -0.361624
C34   C     C_3   0.556204 0.891315 0.642181 -0.313524
C35   C     C_3   0.562448 0.145816 0.302023 -0.326147
C36   C     C_3   0.043383 0.682594 0.678799 0.231171
C37   C     C_3   0.066098 0.711440 0.758191 -0.267970
C38   C     C_3   0.253513 0.238641 0.391460 0.305341
C39   C     C_3   0.191447 0.119909 0.377415 -0.400037
C40   C     C_3   0.291046 0.221231 0.965463 0.116040
C41   C     C_3   0.953063 0.317847 0.890678 0.255629
C42   C     C_3   0.897549 0.160095 0.697638 0.322936
C43   C     C_3   0.941586 0.068048 0.738609 -0.402573
C44   C     C_3   0.410012 0.185502 0.726347 0.340811
C45   C     C_3   0.453957 0.138454 0.795272 -0.352761
C46   C     C_R   0.066399 0.185407 0.534094 -0.277352
H1    H     H_    0.462324 0.754830 0.276195 -0.003195
H2    H     H_    0.156682 0.280033 0.414492 0.036423
H3    H     H_    0.363078 0.250033 0.430354 0.069190
H4    H     H_    0.264432 0.811512 0.189335 0.163717
H5    H     H_    0.221168 0.088845 0.324180 0.159557
H6    H     H_    0.056246 0.106230 0.378796 0.097457
H7    H     H_    0.249041 0.074226 0.417796 0.113087
H8    H     H_    0.577402 0.889042 0.286263 -0.053132
H9    H     H_    0.470110 0.845692 0.163286 0.072121
H10   H     H_    0.683499 0.755716 0.625945 0.011171
H11   H     H_    0.479268 0.743099 0.581031 0.056468
H12   H     H_    0.506782 0.134436 0.352107 0.056896
H13   H     H_    0.625484 0.923148 0.693152 0.127357
H14   H     H_    0.613760 0.931719 0.598412 0.069169
H15   H     H_    0.427957 0.908125 0.643553 0.143426
H16   H     H_    0.365591 0.948236 0.203125 0.128683
H17   H     H_    0.845259 0.984160 0.300813 0.070986
H18   H     H_    0.811963 0.127695 0.650779 0.075859
H19   H     H_    0.012983 0.200362 0.678924 -0.052395
H20   H     H_    0.985133 0.007185 0.702247 0.095568
H21   H     H_    0.040519 0.097756 0.780940 0.110776
H22   H     H_    0.833347 0.030485 0.763714 0.134294
H23   H     H_    0.463334 0.153763 0.261303 0.108600
H24   H     H_    0.277525 0.192805 0.723226 -0.064044
H25   H     H_    0.482545 0.265815 0.726463 0.096872
H26   H     H_    0.451098 0.198203 0.840673 0.130872
H27   H     H_    0.579722 0.116387 0.795817 0.154056
H28   H     H_    0.790040 0.793165 0.310876 -0.090201
H29   H     H_    0.365206 0.065775 0.801145 0.120142
H30   H     H_    0.626681 0.049137 0.427346 0.098006
H31   H     H_    0.178347 0.951252 0.579025 0.110905
H32   H     H_    0.115758 0.269418 0.538890 0.057792
H33   H     H_    0.687826 0.732143 0.467136 0.058512
H34   H     H_    0.617280 0.074174 0.286004 0.103663
H35   H     H_    0.507725 0.566605 0.826764 0.125565
H36   H     H_    0.441103 0.685295 0.077527 0.113377
H37   H     H_    0.281388 0.441155 0.187796 0.126505
H38   H     H_    0.781149 0.816870 0.217313 0.004737
H39   H     H_    0.437594 0.349175 0.066919 0.125630
H40   H     H_    0.748418 0.604922 0.138742 0.085013
H41   H     H_    0.152356 0.445386 0.654338 0.082938
H42   H     H_    0.670213 0.533102 0.352176 0.065351
H43   H     H_    0.023880 0.931785 0.336245 0.128884
H44   H     H_    0.010435 0.966490 0.244870 0.147278
H45   H     H_    0.156519 0.656254 0.660352 0.019387
H46   H     H_    0.643084 0.316007 0.332429 -0.140592
H47   H     H_    0.476451 0.846697 0.000524 0.339245
H48   H     H_    0.202989 0.233797 0.006123 0.056125
H49   H     H_    0.406862 0.199227 0.989732 0.099899
H50   H     H_    0.232867 0.152472 0.928357 0.079670
H51   H     H_    0.021945 0.262116 0.860615 0.019497
H52   H     H_    0.819759 0.293793 0.876184 0.084065
H53   H     H_    0.974753 0.308183 0.947976 0.066558
H54   H     H_    0.518295 0.294306 0.191495 0.285022
H55   H     H_    0.939114 0.616988 0.667357 0.071412
H56   H     H_    0.172037 0.775727 0.771089 0.177697
H57   H     H_    0.088875 0.640858 0.785841 0.104137
H58   H     H_    0.953706 0.739578 0.777052 0.136843
O1    O     O_2   0.160820 0.763040 0.533820 -0.458469
O2    O     O_2   0.729153 0.417187 0.748651 -0.466951
O3    O     O_3   0.819273 0.228194 0.741662 -0.614228
O4    O     O_3   0.890970 0.628600 0.535400 -0.495457
O5    O     O_3   0.427530 0.446070 0.416950 -0.508377
O6    O     O_2   0.637430 0.550200 0.669460 -0.464222
O7    O     O_3   0.493542 0.724030 0.689786 -0.614385
O8    O     O_2   0.484901 0.113618 0.536606 -0.478878
O9    O     O_3   0.447905 0.117842 0.670081 -0.601406
O10   O     O_3   0.385950 0.698560 0.408070 -0.477614
O11   O     O_2   0.314978 0.884547 0.461296 -0.471182
O12   O     O_3   0.294700 0.278857 0.327390 -0.627645
O13   O     O_3   0.012302 0.773758 0.646633 -0.646248
O14   O     O_3   0.354596 0.875041 0.327945 -0.576742
O15   O     O_2   0.172860 0.449730 0.330520 -0.400439
O16   O     O_3   0.962080 0.644700 0.373110 -0.472706
O17   O     O_2   0.068559 0.570840 0.250114 -0.427803
O18   O     O_2   0.398217 0.742878 0.875557 -0.333428
O19   O     O_2   0.126884 0.706049 0.920326 -0.258920
O20   O     O_3   0.356313 0.825874 0.000967 -0.497098
O21   O     O_3   0.324999 0.311039 0.926350 -0.679323
O22   O     O_3   0.995093 0.426781 0.879898 -0.631112
O23   O     O_3   0.990509 0.760105 0.253486 -0.582020
O24   O     O_2   0.878635 0.369219 0.229545 -0.287608
O25   O     O_2   0.854710 0.176119 0.202163 -0.264843
O26   O     O_3   0.606203 0.269063 0.164467 -0.524622
O27   O     O_2   0.649470 0.236890 0.466160 -0.501141
O28   O     O_3   0.919320 0.371390 0.464540 -0.475714
O29   O     O_3   0.424350 0.301430 0.591880 -0.485206
O30   O     O_3   0.828890 0.224137 0.353333 -0.640218
O31   O     O_3   0.382770 0.553920 0.582990 -0.487440
O32   O     O_3   0.848220 0.355290 0.626830 -0.482637
P1    P     P_3+3 0.986780 0.745970 0.554690 0.972899
P2    P     P_3+3 0.341450 0.417130 0.341310 1.021282
P3    P     P_3+3 0.936733 0.632868 0.280221 1.052410
P4    P     P_3+3 0.823520 0.254020 0.445250 0.972481
P5    P     P_3+3 0.867016 0.359502 0.719479 0.982299
P6    P     P_3+3 0.428301 0.837956 0.409711 0.965320
P7    P     P_3+3 0.462202 0.585160 0.671415 0.977412
P8    P     P_3+3 0.377818 0.162104 0.590236 0.942070
S1    S     S_3+6 0.308419 0.720471 0.940192 -0.081515
S2    S     S_3+6 0.763438 0.266029 0.225310 -0.060557

loop_
_geom_bond_atom_site_label_1
_geom_bond_atom_site_label_2
_ccdc_geom_bond_type
C37   H58   S    
C12   H8    S    
C11   H31   S    
C42   H18   S    
C17   C18   A    
O14   P6    S    
C10   C46   A    
C37   H56   S    
C1    H16   S    
C16   H17   S    
O9    P8    S    
Ba2   O6    S    
O27   P4    D    
Ba2   O28   S    
C44   O9    S    
C6    P1    S    
C40   H48   S    
C16   H43   S    
O15   P2    D    
O31   P7    S    
O4    P1    S    
C41   H51   S    
C38   O12   S    
O32   P5    S    
C2    C5    A    
C43   H21   S    
C36   C37   S    
C34   H14   S    
C12   H1    S    
O23   P3    S    
O7    P7    S    
C13   C14   A    
O6    P7    D    
Ba1   Ba2   S    
C10   P8    S    
C7    C11   A    
Ba1   O16   S    
C39   H7    S    
O30   P4    S    
O10   P6    S    
C2    H33   S    
C6    C7    A    
H54   O26   S    
C21   C22   A    
Ba1   O10   S    
C34   H15   S    
C7    C8    A    
C44   H24   S    
Ba1   P1    S    
C2    C6    A    
C42   O3    S    
C20   C26   A    
O1    P1    D    
C9    C46   A    
C14   P2    S    
C4    O23   S    
O12   P2    S    
C5    P6    S    
O5    P2    S    
C4    C16   S    
O18   S1    D    
Ba2   O5    S    
C19   P3    S    
Ba2   O27   S    
O24   S2    D    
Ba2   O32   S    
C30   C33   A    
O11   P6    D    
C41   H52   S    
O8    P8    D    
O19   S1    D    
C40   H49   S    
C3    C5    A    
C14   C15   A    
C30   P7    S    
C21   S1    S    
C27   C32   A    
C22   C32   S    
C28   C35   S    
O26   S2    S    
C41   H53   S    
C36   H55   S    
C23   O7    S    
Ba1   O4    S    
O28   P4    S    
C1    H4    S    
O29   P8    S    
O17   P3    D    
C43   H20   S    
C31   C32   A    
C24   C25   A    
O25   S2    D    
O3    P5    S    
C18   C19   A    
C25   H39   S    
C17   C26   S    
C31   H35   S    
C39   H5    S    
Ba1   P2    S    
C40   O21   S    
Ba1   O1    S    
C36   O13   S    
C33   H41   S    
C38   C39   S    
C28   O30   S    
C35   H23   S    
Ba2   P4    S    
C15   H37   S    
C35   H34   S    
C23   H10   S    
C45   H29   S    
C34   H13   S    
C1    H9    S    
Ba1   O31   S    
C42   C43   S    
C37   H57   S    
C44   C45   S    
Ba2   O4    S    
C43   H22   S    
Ba2   O31   S    
C4    H28   S    
C45   H26   S    
C22   C24   A    
C41   O22   S    
O20   S1    S    
C28   S2    S    
C1    C12   S    
C38   H3    S    
C12   O14   S    
Ba2   O29   S    
C4    H38   S    
C16   H44   S    
C30   C31   A    
C46   H32   S    
C40   H50   S    
O13   P1    S    
C3    C8    A    
C28   H46   S    
Ba1   O5    S    
C13   H42   S    
H47   O20   S    
C38   H2    S    
C18   H40   S    
C36   H45   S    
C15   C17   A    
C29   C33   A    
C24   O21   S    
O2    P5    D    
C29   P5    S    
C9    P4    S    
Ba1   O15   S    
C39   H6    S    
C35   H12   S    
C8    C9    A    
C23   C34   S    
C45   H27   S    
C13   C19   A    
C10   C11   A    
C27   C29   A    
C27   O22   S    
C25   C26   A    
C20   C21   A    
C42   H19   S    
C23   H11   S    
O16   P3    S    
C3    H30   S    
C44   H25   S    
Ba1   O28   S    
C20   H36   S    
