data_mof_unit_12098.cif
_audit_creation_date              2012-10-26T18:49:55-0400
_audit_creation_method            fapswitch 2.2
_symmetry_space_group_name_H-M    P1
_symmetry_Int_Tables_number       1
_space_group_crystal_system       triclinic
_cell_length_a                    10.878103
_cell_length_b                    12.99028
_cell_length_c                    11.680125
_cell_angle_alpha                 99.700207
_cell_angle_beta                  93.560428
_cell_angle_gamma                 92.374155
_cell_volume                      1621.51592697

loop_
_atom_site_label
_atom_site_type_symbol
_atom_type_description
_atom_site_fract_x
_atom_site_fract_y
_atom_site_fract_z
_atom_type_partial_charge
C1    C     C_R   0.501869 0.299239 0.478625 0.511381
C2    C     C_R   0.497043 0.860663 0.433876 -0.097475
C3    C     C_R   0.499015 0.031154 0.555699 0.084454
C4    C     C_R   0.498597 0.968754 0.444176 0.082424
C5    C     C_R   0.384307 0.397457 0.021771 0.077163
C6    C     C_R   0.615811 0.603503 0.978351 0.086546
C7    C     C_R   0.395437 0.408110 0.144350 0.539005
C8    C     C_R   0.604587 0.592154 0.855294 0.543758
C9    C     C_R   0.549241 0.544771 0.157332 -0.001608
C10   C     C_R   0.450809 0.455406 0.842839 0.003680
C11   C     C_R   0.541762 0.537860 0.034314 -0.053541
C12   C     C_R   0.498331 0.700752 0.521370 0.545305
C13   C     C_R   0.458157 0.462851 0.965736 -0.043062
C14   C     C_R   0.262432 0.491474 0.499522 0.517229
C15   C     C_R   0.737440 0.506149 0.500223 0.591435
C16   C     C_R   0.100626 0.295771 0.496966 0.051320
C17   C     C_R   0.895724 0.697363 0.498595 0.056097
C18   C     C_R   0.021248 0.208570 0.496876 -0.003852
C19   C     C_R   0.973845 0.785893 0.499177 -0.060923
C20   C     C_R   0.895604 0.217881 0.498112 0.358722
C21   C     C_R   0.100105 0.778292 0.501003 0.372689
C22   C     C_R   0.847355 0.314766 0.499021 -0.077793
C23   C     C_R   0.496655 0.814112 0.533574 0.008360
C24   C     C_R   0.150197 0.682113 0.501796 -0.071213
C25   C     C_R   0.923984 0.406082 0.499411 -0.074457
C26   C     C_R   0.074831 0.589824 0.500264 -0.065645
C27   C     C_R   0.053667 0.398223 0.499122 0.006312
C28   C     C_R   0.945227 0.596793 0.499090 0.039111
C29   C     C_R   0.871148 0.503872 0.499192 0.025765
C30   C     C_R   0.128284 0.491949 0.500188 0.016767
C31   C     C_R   0.501994 0.185827 0.466361 0.034744
C32   C     C_R   0.500148 0.015406 0.344722 -0.095621
C33   C     C_R   0.497582 0.984496 0.655158 -0.096232
C34   C     C_R   0.501754 0.123621 0.355755 -0.081425
C35   C     C_R   0.496549 0.876298 0.644159 -0.095718
C36   C     C_R   0.500885 0.139264 0.566017 -0.074768
Cu1   Cu    Cu3+1 0.509250 0.507730 0.615930 1.023072
Cu2   Cu    Cu3+1 0.490750 0.492270 0.384070 1.022635
F1    F     F_    0.174816 0.864786 0.502250 -0.631998
F2    F     F_    0.819667 0.132274 0.497687 -0.643065
F3    F     F_    0.674900 0.654732 0.800523 -0.621991
F4    F     F_    0.324093 0.345197 0.197757 -0.629142
H1    H     H_    0.058074 0.132127 0.495394 0.188140
H2    H     H_    0.497692 0.031553 0.741120 0.113454
H3    H     H_    0.387097 0.398659 0.788602 0.165186
H4    H     H_    0.613140 0.601128 0.211862 0.163525
H5    H     H_    0.210362 0.335415 0.982736 0.270853
H6    H     H_    0.320842 0.247088 0.973185 0.260049
H7    H     H_    0.758450 0.715382 0.993297 0.291777
H8    H     H_    0.649854 0.740171 0.088607 0.215782
H9    H     H_    0.260053 0.295729 0.418114 0.293003
H10   H     H_    0.274549 0.313490 0.569863 0.251651
H11   H     H_    0.751400 0.767018 0.571891 0.253679
H12   H     H_    0.935595 0.861549 0.498759 0.164070
H13   H     H_    0.740274 0.743979 0.424380 0.222378
H14   H     H_    0.748525 0.316617 0.499115 0.143249
H15   H     H_    0.249287 0.681595 0.503741 0.148297
H16   H     H_    0.497363 0.813057 0.348180 0.117891
H17   H     H_    0.500760 0.186889 0.651719 0.124718
H18   H     H_    0.496031 0.841448 0.722099 0.156702
H19   H     H_    0.502724 0.158479 0.277838 0.155418
H20   H     H_    0.500024 0.968342 0.258761 0.108074
N1    N     N_R   0.523180 0.519350 0.790130 -0.246627
N2    N     N_R   0.476820 0.480650 0.209870 -0.242875
N3    N     N_3   0.298384 0.320394 0.954928 -0.640532
N4    N     N_3   0.701387 0.680817 0.046455 -0.628763
N5    N     N_3   0.227508 0.274419 0.493386 -0.630408
N6    N     N_3   0.766573 0.712299 0.498238 -0.591864
O1    O     O_R   0.506570 0.354460 0.582000 -0.541646
O2    O     O_R   0.493430 0.645540 0.418000 -0.523151
O3    O     O_R   0.490940 0.341410 0.386200 -0.467282
O4    O     O_R   0.509060 0.658590 0.613800 -0.447451
O5    O     O_R   0.327470 0.506520 0.597900 -0.527380
O6    O     O_R   0.672530 0.493480 0.402100 -0.506383
O7    O     O_R   0.311840 0.493460 0.402100 -0.453152
O8    O     O_R   0.688160 0.506540 0.597900 -0.438827

loop_
_geom_bond_atom_site_label_1
_geom_bond_atom_site_label_2
_ccdc_geom_bond_type
Cu2   O2    S    
Cu1   O1    S    
C9    N2    A    
C10   N1    A    
C36   H17   S    
H13   N6    S    
C12   C23   S    
C1    O3    A    
C28   C29   A    
C19   C21   A    
C24   C26   A    
C20   F2    S    
C3    C33   A    
C1    C31   S    
C7    F4    S    
H11   N6    S    
Cu1   O5    S    
C17   C19   A    
C24   H15   S    
C22   C25   A    
H6    N3    S    
C5    C13   A    
C16   C27   A    
C15   O8    A    
C12   O4    A    
C9    H4    S    
C27   C30   A    
C17   C28   A    
C14   C30   S    
Cu1   N1    S    
C15   C29   S    
Cu2   N2    S    
Cu2   O7    S    
C25   C29   A    
H7    N4    S    
C14   O5    A    
C8    F3    S    
C5    N3    S    
C6    C11   A    
C5    C7    A    
C22   H14   S    
C34   H19   S    
C1    O1    A    
C35   H18   S    
C32   C34   A    
C2    C4    A    
Cu1   Cu2   S    
C9    C11   A    
C21   F1    S    
C10   H3    S    
C31   C34   A    
C16   N5    S    
H9    N5    S    
H8    N4    S    
C4    C32   A    
H10   N5    S    
C19   H12   S    
Cu1   O8    S    
C20   C22   A    
C26   C30   A    
C23   C35   A    
Cu1   O4    S    
C3    C4    A    
Cu2   O6    S    
C12   O2    A    
Cu2   O3    S    
C17   N6    S    
C33   H2    S    
C10   C13   A    
C6    C8    A    
C2    H16   S    
C25   C27   A    
C26   C28   A    
C14   O7    A    
C32   H20   S    
C18   H1    S    
C11   C13   A    
C3    C36   A    
C33   C35   A    
C18   C20   A    
C7    N2    A    
C8    N1    A    
C6    N4    S    
C15   O6    A    
C16   C18   A    
C21   C24   A    
C2    C23   A    
C31   C36   A    
H5    N3    S    
