data_mof_unit_40946.cif
_audit_creation_date              2012-12-11T14:21:07-0500
_audit_creation_method            fapswitch 2.2
_symmetry_space_group_name_H-M    P1
_symmetry_Int_Tables_number       1
_space_group_crystal_system       triclinic
_cell_length_a                    11.535927
_cell_length_b                    11.523291
_cell_length_c                    19.547273
_cell_angle_alpha                 90.509568
_cell_angle_beta                  89.943609
_cell_angle_gamma                 59.760717
_cell_volume                      2244.7488679

loop_
_atom_site_label
_atom_site_type_symbol
_atom_type_description
_atom_site_fract_x
_atom_site_fract_y
_atom_site_fract_z
_atom_type_partial_charge
C1    C     C_R   0.640443 0.117691 0.599237 0.544865
C2    C     C_1   0.651110 0.684130 0.664243 0.002913
C3    C     C_1   0.146262 0.188641 0.863054 0.000936
C4    C     C_1   0.226603 0.145440 0.735446 -0.030081
C5    C     C_1   0.187145 0.164632 0.804916 -0.028674
C6    C     C_1   0.257910 0.133294 0.675837 0.002670
C7    C     C_1   0.678519 0.191054 0.860800 0.001943
C8    C     C_1   0.658122 0.167623 0.729046 -0.031515
C9    C     C_1   0.665446 0.180954 0.800360 -0.031483
C10   C     C_1   0.652578 0.150197 0.668634 0.002766
C11   C     C_R   0.662554 0.671210 0.193042 0.008319
C12   C     C_R   0.613644 0.743688 0.598017 0.535752
C13   C     C_R   0.536223 0.720860 0.224153 -0.023159
C14   C     C_R   0.533543 0.695090 0.293409 -0.009210
C15   C     C_R   0.766943 0.638280 0.304035 -0.152966
C16   C     C_R   0.777852 0.626631 0.233619 -0.144440
C17   C     C_R   0.415874 0.778580 0.186259 -0.139193
C18   C     C_R   0.299032 0.788057 0.213820 0.295590
C19   C     C_R   0.301363 0.744105 0.280320 0.305407
C20   C     C_R   0.419470 0.693143 0.318727 -0.126052
C21   C     C_R   0.644356 0.675465 0.334740 0.015717
C22   C     C_R   0.149559 0.188297 0.190012 -0.046221
C23   C     C_R   0.297617 0.120307 0.605325 0.555441
C24   C     C_R   0.218809 0.247420 0.217783 0.005583
C25   C     C_R   0.216861 0.262799 0.289014 -0.011596
C26   C     C_R   0.131276 0.107309 0.302119 0.205539
C27   C     C_R   0.105230 0.119611 0.232100 -0.132911
C28   C     C_R   0.275465 0.305412 0.175667 -0.079789
C29   C     C_R   0.304873 0.399328 0.202311 -0.103746
C30   C     C_R   0.281767 0.433182 0.271116 -0.126872
C31   C     C_R   0.236566 0.368190 0.313933 -0.090090
C32   C     C_R   0.190807 0.175522 0.330988 0.036322
C33   C     C_R   0.665301 0.184853 0.191828 -0.003669
C34   C     C_R   0.646648 0.109958 0.401635 0.552229
C35   C     C_R   0.728686 0.051605 0.214901 0.025665
C36   C     C_R   0.753285 0.028109 0.285247 0.019229
C37   C     C_R   0.600621 0.267521 0.307766 -0.146359
C38   C     C_R   0.603509 0.292054 0.238697 -0.148289
C39   C     C_R   0.782077 0.941849 0.168355 -0.080090
C40   C     C_R   0.881622 0.815669 0.188671 -0.080129
C41   C     C_R   0.922595 0.795177 0.256307 -0.063715
C42   C     C_R   0.858492 0.898653 0.304480 -0.072100
C43   C     C_R   0.674118 0.136483 0.332057 0.009876
C44   C     C_R   0.084312 0.229691 0.929250 0.534837
C45   C     C_R   0.617265 0.734787 0.403248 0.541440
C46   C     C_R   0.708986 0.546766 0.922568 0.557469
C47   C     C_R   0.708186 0.206460 0.930143 0.535329
C48   C     C_R   0.085596 0.233303 0.124043 0.535248
C49   C     C_R   0.681758 0.614780 0.124706 0.542953
C50   C     C_R   0.705447 0.210378 0.125689 0.532003
C51   C     C_R   0.244540 0.142849 0.400748 0.600329
C52   C     C_1   0.698556 0.582140 0.851820 0.001435
C53   C     C_1   0.672429 0.645833 0.722462 -0.028267
C54   C     C_1   0.688720 0.610006 0.792052 -0.030996
Cr1   Cr    Cr6+3 0.404720 0.198220 0.499960 1.013542
Cr2   Cr    Cr6+3 0.698290 0.897110 0.500380 1.023576
Cr3   Cr    Cr6+3 0.396970 0.904720 0.499610 1.055915
Cr4   Cr    Cr6+3 0.926180 0.151990 0.028120 1.027002
Cr5   Cr    Cr6+3 0.921330 0.451820 0.027470 1.019523
Cr6   Cr    Cr6+3 0.626260 0.446870 0.028710 1.017606
H1    H     H_    0.853735 0.617198 0.334454 0.118271
H2    H     H_    0.342187 0.448332 0.169277 0.130313
H3    H     H_    0.302140 0.507635 0.292005 0.137052
H4    H     H_    0.209875 0.409886 0.364921 0.146080
H5    H     H_    0.543851 0.351235 0.342608 0.116679
H6    H     H_    0.753136 0.955455 0.115027 0.121884
H7    H     H_    0.559366 0.395202 0.222126 0.137758
H8    H     H_    0.928734 0.734364 0.151627 0.124906
H9    H     H_    0.002604 0.697469 0.271825 0.148673
H10   H     H_    0.901531 0.875908 0.354813 0.167261
H11   H     H_    0.877322 0.579813 0.211148 0.143335
H12   H     H_    0.421689 0.649808 0.367910 0.121240
H13   H     H_    0.291308 0.282795 0.121402 0.124729
H14   H     H_    0.044552 0.080674 0.211169 0.185641
O1    O     O_R   0.267740 0.231960 0.575440 -0.501008
O2    O     O_R   0.685970 0.784660 0.430010 -0.500483
O3    O     O_R   0.502530 0.767000 0.423990 -0.524485
O4    O     O_R   0.288330 0.026350 0.429250 -0.433718
O5    O     O_3   0.499990 0.000020 0.499980 -0.277872
O6    O     O_R   0.821500 0.119340 0.952830 -0.505041
O7    O     O_R   0.037130 0.162530 0.957360 -0.496401
O8    O     O_R   0.056440 0.344740 0.951340 -0.513194
O9    O     O_R   0.797900 0.560360 0.957470 -0.490358
O10   O     O_R   0.596130 0.579390 0.952730 -0.503566
O11   O     O_R   0.639060 0.321160 0.958670 -0.510896
O12   O     O_R   0.527280 0.186640 0.570530 -0.511033
O13   O     O_R   0.821240 0.124200 0.104370 -0.506358
O14   O     O_R   0.036890 0.167040 0.097840 -0.503768
O15   O     O_R   0.056180 0.349610 0.102880 -0.516784
O16   O     O_R   0.797660 0.564870 0.097950 -0.505050
O17   O     O_R   0.595880 0.584250 0.104270 -0.515723
O18   O     O_R   0.638830 0.325670 0.099150 -0.505944
O19   O     O_3   0.824590 0.350230 0.028100 -0.266205
O20   O     O_R   0.728090 0.003450 0.576380 -0.498092
O21   O     O_R   0.682970 0.789190 0.570490 -0.495868
O22   O     O_R   0.499290 0.771880 0.575530 -0.514807
O23   O     O_R   0.285330 0.030870 0.569730 -0.484662
O24   O     O_R   0.270980 0.227080 0.423890 -0.552151
O25   O     O_R   0.530280 0.182120 0.430050 -0.499451
O26   O     O_R   0.731330 0.998570 0.424830 -0.528674
H15   H     H_    0.414616 0.810407 0.134139 0.116153
O27   O     O_3   0.183713 0.833150 0.175803 -0.677134
H16   H     H_    0.198486 0.859699 0.129937 0.310244
O28   O     O_3   0.186306 0.753625 0.307071 -0.702871
H17   H     H_    0.201822 0.725093 0.355519 0.303260
O29   O     O_3   0.089743 0.039085 0.343965 -0.672795
H18   H     H_    0.036217 0.010226 0.316622 0.357558

loop_
_geom_bond_atom_site_label_1
_geom_bond_atom_site_label_2
_ccdc_geom_bond_type
C25   C31   A    
Cr2   O21   S    
C22   C48   S    
C26   C32   A    
Cr2   O2    S    
C11   C13   A    
C41   C42   A    
Cr3   O5    S    
C36   C42   A    
C35   C36   A    
Cr5   O8    S    
C49   O16   A    
C2    C12   S    
Cr4   O13   S    
C26   O29   S    
C53   C54   S    
Cr2   O20   S    
C26   C27   A    
C29   C30   A    
Cr2   O5    S    
C45   O2    A    
C47   O11   A    
C14   C21   A    
C28   C29   A    
Cr4   O19   S    
Cr5   O9    S    
C44   O8    A    
C18   O27   S    
C30   C31   A    
O29   H18   S    
C15   C16   A    
C46   C52   S    
C42   H10   S    
C18   C19   A    
Cr5   O15   S    
C17   H15   S    
C19   C20   A    
C1    O20   A    
Cr3   O22   S    
C37   H5    S    
C34   O26   A    
C48   O14   A    
C12   O21   A    
C27   H14   S    
Cr4   O6    S    
Cr1   O1    S    
Cr6   O19   S    
C51   O24   A    
C19   O28   S    
C30   H3    S    
C16   H11   S    
C47   O6    A    
C49   O17   A    
C28   H13   S    
Cr3   O4    S    
O28   H17   S    
C52   C54   T    
C34   O25   A    
C21   C45   S    
Cr6   O18   S    
C3    C44   S    
C34   C43   S    
Cr3   O3    S    
C24   C25   A    
C4    C6    T    
C44   O7    A    
Cr4   O7    S    
C39   C40   A    
C8    C9    S    
C33   C50   S    
Cr5   O16   S    
C7    C47   S    
C37   C43   A    
C35   C39   A    
C32   C51   S    
C37   C38   A    
C11   C49   S    
C14   C20   A    
Cr1   O5    S    
C11   C16   A    
Cr3   O23   S    
C17   C18   A    
C15   H1    S    
C50   O13   A    
C46   O10   A    
C50   O18   A    
C40   C41   A    
C23   O23   A    
C48   O15   A    
C39   H6    S    
C22   C24   A    
Cr2   O26   S    
C41   H9    S    
Cr6   O17   S    
C1    O12   A    
C7    C9    T    
C29   H2    S    
C31   H4    S    
C12   O22   A    
C1    C10   S    
C24   C28   A    
C23   O1    A    
C4    C5    S    
C3    C5    T    
C2    C53   T    
Cr4   O14   S    
Cr6   O11   S    
C33   C38   A    
C13   C17   A    
C22   C27   A    
Cr1   O12   S    
C51   O4    A    
Cr6   O10   S    
C25   C32   A    
C6    C23   S    
Cr1   O24   S    
C33   C35   A    
O27   H16   S    
C46   O9    A    
C15   C21   A    
C38   H7    S    
C8    C10   T    
C40   H8    S    
Cr1   O25   S    
C20   H12   S    
C36   C43   A    
C45   O3    A    
Cr5   O19   S    
C13   C14   A    
