data_mof_unit_38617.cif
_audit_creation_date              2012-12-10T17:23:08-0500
_audit_creation_method            fapswitch 2.2
_symmetry_space_group_name_H-M    P1
_symmetry_Int_Tables_number       1
_space_group_crystal_system       triclinic
_cell_length_a                    15.828256
_cell_length_b                    10.774076
_cell_length_c                    9.623045
_cell_angle_alpha                 89.742272
_cell_angle_beta                  91.273275
_cell_angle_gamma                 90.152905
_cell_volume                      1640.63715195

loop_
_atom_site_label
_atom_site_type_symbol
_atom_type_description
_atom_site_fract_x
_atom_site_fract_y
_atom_site_fract_z
_atom_type_partial_charge
C1    C     C_R   0.497388 0.262803 0.500198 0.777900
C2    C     C_3   0.082627 0.500617 0.495996 0.166590
C3    C     C_3   0.973770 0.603962 0.563487 -0.196506
C4    C     C_3   0.917021 0.501420 0.501493 0.142052
C5    C     C_3   0.026792 0.602544 0.429849 -0.167046
C6    C     C_3   0.969016 0.499639 0.369327 0.210725
C7    C     C_1   0.174400 0.500251 0.495019 -0.070758
C8    C     C_1   0.825321 0.501574 0.503716 -0.091694
C9    C     C_R   0.363172 0.128323 0.642434 -0.180022
C10   C     C_R   0.300392 0.062803 0.711053 -0.143459
C11   C     C_R   0.300103 0.933734 0.710246 -0.136880
C12   C     C_R   0.339964 0.499901 0.498651 0.803056
C13   C     C_R   0.362623 0.869354 0.640879 -0.172422
C14   C     C_R   0.427839 0.933747 0.572496 0.095859
C15   C     C_R   0.428093 0.065045 0.573231 0.097939
C16   C     C_R   0.491694 0.128944 0.500284 -0.097225
C17   C     C_R   0.550960 0.064557 0.423432 -0.199500
C18   C     C_R   0.550758 0.936522 0.422818 -0.203393
C19   C     C_R   0.491263 0.870970 0.499020 -0.090924
C20   C     C_R   0.629754 0.626097 0.136052 -0.133807
C21   C     C_R   0.705958 0.643683 0.067872 -0.256261
C22   C     C_R   0.721379 0.575530 0.948080 -0.184265
C23   C     C_R   0.497246 0.737169 0.499663 0.778169
C24   C     C_R   0.656216 0.503216 0.888016 0.207571
C25   C     C_R   0.572960 0.523792 0.932179 0.170064
C26   C     C_R   0.566221 0.551213 0.075071 0.198489
C27   C     C_R   0.432276 0.459516 0.071723 -0.063881
C28   C     C_R   0.430468 0.466712 0.923696 -0.067544
C29   C     C_R   0.659967 0.500540 0.501244 0.817978
C30   C     C_3   0.973050 0.399859 0.567445 -0.197044
C31   C     C_3   0.026064 0.397691 0.433822 -0.166047
C32   C     C_1   0.250099 0.500037 0.495839 -0.190857
C33   C     C_1   0.749709 0.501306 0.503573 -0.197564
C34   C     C_3   0.031224 0.502400 0.629564 -0.152913
Cu1   Cu    Cu3+1 0.499990 0.499990 0.640660 0.927477
Cu2   Cu    Cu3+1 0.500010 0.500010 0.359340 0.938656
H1    H     H_    0.048731 0.313502 0.380154 0.127944
H2    H     H_    0.250569 0.883226 0.762044 0.132358
H3    H     H_    0.358050 0.769281 0.639329 0.148325
H4    H     H_    0.598595 0.888177 0.365204 0.136392
H5    H     H_    0.377519 0.424347 0.124480 0.141703
H6    H     H_    0.621464 0.672284 0.233629 0.179584
H7    H     H_    0.755768 0.698991 0.115583 0.150716
H8    H     H_    0.785521 0.568016 0.912075 0.147921
H9    H     H_    0.373786 0.438270 0.867799 0.142295
H10   H     H_    0.949632 0.317248 0.624352 0.136005
H11   H     H_    0.050055 0.685231 0.372899 0.128494
H12   H     H_    0.950971 0.688086 0.617117 0.135708
H13   H     H_    0.058312 0.503507 0.736977 0.132148
H14   H     H_    0.598854 0.113841 0.366023 0.149102
H15   H     H_    0.359022 0.228413 0.642191 0.144308
H16   H     H_    0.251092 0.112455 0.763501 0.130048
N1    N     N_R   0.500800 0.501210 0.147910 -0.194756
N2    N     N_R   0.500830 0.501290 0.852040 -0.203028
O1    O     O_R   0.499990 0.319640 0.618810 -0.596494
O2    O     O_R   0.500000 0.319660 0.381240 -0.567986
O3    O     O_R   0.379070 0.499980 0.618770 -0.595631
O4    O     O_R   0.379080 0.500000 0.381190 -0.575632
O5    O     O_R   0.500000 0.680340 0.618760 -0.569709
O6    O     O_R   0.500010 0.680360 0.381190 -0.590403
O7    O     O_R   0.620920 0.500000 0.618810 -0.593515
O8    O     O_R   0.620930 0.500020 0.381230 -0.580865
C35   C     C_3   0.680444 0.374244 0.840441 -0.372885
C36   C     C_3   0.705958 0.291511 0.963813 -0.879195
H17   H     H_    0.762764 0.329524 0.018711 0.257134
H18   H     H_    0.653315 0.284271 0.037946 0.261885
H19   H     H_    0.721044 0.197038 0.926137 0.245332
H20   H     H_    0.626602 0.328230 0.785782 0.245040
H21   H     H_    0.734256 0.379921 0.768478 0.200306
C37   C     C_3   0.930274 0.498267 0.222380 -0.411109
C38   C     C_3   0.998141 0.496029 0.112426 -0.863778
H22   H     H_    0.039064 0.579633 0.121393 0.251068
H23   H     H_    0.037677 0.411507 0.124602 0.250956
H24   H     H_    0.967680 0.495271 0.007336 0.240532
H25   H     H_    0.889212 0.415049 0.210399 0.205373
H26   H     H_    0.890601 0.582284 0.207073 0.201796

loop_
_geom_bond_atom_site_label_1
_geom_bond_atom_site_label_2
_ccdc_geom_bond_type
C2    C7    S    
C9    H15   S    
C4    C8    S    
C10   H16   S    
C23   O5    A    
C5    H11   S    
C1    O2    A    
Cu2   O4    S    
C5    C6    S    
C15   C16   A    
C29   C33   S    
C3    H12   S    
Cu1   O5    S    
C18   C19   A    
C18   H4    S    
Cu2   N1    S    
C35   H20   S    
C22   H8    S    
C35   H21   S    
C16   C17   A    
C37   C38   S    
C9    C10   A    
C12   O4    A    
C2    C34   S    
C6    C31   S    
C21   H7    S    
C21   C22   A    
C12   C32   S    
Cu1   N2    S    
Cu2   O8    S    
C23   O6    A    
C29   O7    A    
C28   H9    S    
C30   C34   S    
Cu1   O1    S    
C36   H19   S    
C25   N2    A    
C4    C6    S    
C38   H23   S    
C28   N2    A    
C3    C34   S    
C3    C5    S    
C25   C26   A    
C31   H1    S    
C2    C31   S    
Cu1   Cu2   S    
C36   H18   S    
C11   H2    S    
C19   C23   S    
Cu2   O2    S    
C27   H5    S    
C17   C18   A    
Cu1   O7    S    
C1    C16   S    
C24   C25   A    
C12   O3    A    
C24   C35   S    
C37   H26   S    
C22   C24   A    
C2    C5    S    
C3    C4    S    
C26   N1    A    
C37   H25   S    
C6    C37   S    
C29   O8    A    
C34   H13   S    
C7    C32   T    
C14   C19   A    
C30   H10   S    
Cu2   O6    S    
C17   H14   S    
C38   H24   S    
C20   H6    S    
C27   N1    A    
Cu1   O3    S    
C36   H17   S    
C1    O1    A    
C38   H22   S    
C11   C13   A    
C30   C31   S    
C20   C26   A    
C8    C33   T    
C9    C15   A    
C13   H3    S    
C10   C11   A    
C35   C36   S    
C20   C21   A    
C27   C28   A    
C14   C15   A    
C13   C14   A    
C4    C30   S    
