data_mof_unit_16125.cif
_audit_creation_date              2012-12-11T16:06:30-0500
_audit_creation_method            fapswitch 2.2
_symmetry_space_group_name_H-M    P1
_symmetry_Int_Tables_number       1
_space_group_crystal_system       triclinic
_cell_length_a                    7.194852
_cell_length_b                    14.527379
_cell_length_c                    15.759997
_cell_angle_alpha                 90.01566
_cell_angle_beta                  90.067178
_cell_angle_gamma                 90.034797
_cell_volume                      1647.27029614

loop_
_atom_site_label
_atom_site_type_symbol
_atom_type_description
_atom_site_fract_x
_atom_site_fract_y
_atom_site_fract_z
_atom_type_partial_charge
O1    O     O_R   0.388780 0.834790 0.412340 -0.505806
O2    O     O_R   0.111220 0.165210 0.912340 -0.503413
O3    O     O_R   0.888780 0.665210 0.587660 -0.503748
O4    O     O_R   0.611220 0.334790 0.087660 -0.520492
O5    O     O_R   0.059040 0.845930 0.587040 -0.535741
O6    O     O_R   0.440960 0.154070 0.087040 -0.548657
O7    O     O_R   0.559040 0.654070 0.412960 -0.535584
O8    O     O_R   0.940960 0.345930 0.912960 -0.532584
C1    C     C_R   0.228268 0.867717 0.615506 0.700201
C2    C     C_R   0.271904 0.132329 0.115566 0.637307
C3    C     C_R   0.727557 0.632702 0.384083 0.699606
C4    C     C_R   0.771764 0.367777 0.884538 0.727260
O9    O     O_R   0.059070 0.845930 0.412970 -0.546978
O10   O     O_R   0.440930 0.154070 0.912970 -0.544684
O11   O     O_R   0.559070 0.654070 0.587030 -0.545437
O12   O     O_R   0.940930 0.345930 0.087030 -0.542253
O13   O     O_R   0.888760 0.665210 0.412340 -0.543866
O14   O     O_R   0.611240 0.334790 0.912340 -0.532334
O15   O     O_R   0.388760 0.834790 0.587660 -0.543373
O16   O     O_R   0.111240 0.165210 0.087660 -0.546332
C5    C     C_R   0.227935 0.867401 0.384078 0.678064
C6    C     C_R   0.271944 0.132724 0.883974 0.680043
C7    C     C_R   0.728013 0.632764 0.616075 0.675209
C8    C     C_R   0.771617 0.369284 0.114289 0.675413
O17   O     O_3   0.222280 0.690700 0.500000 -0.371010
O18   O     O_3   0.277720 0.309300 0.000000 -0.353582
O19   O     O_3   0.722280 0.809300 0.500000 -0.373668
O20   O     O_3   0.777720 0.190700 0.000000 -0.374061
V1    V     V_3+5 0.947430 0.761000 0.500000 1.459448
V2    V     V_3+5 0.552570 0.239000 0.000000 1.458469
V3    V     V_3+5 0.447430 0.739000 0.500000 1.462155
V4    V     V_3+5 0.052570 0.261000 0.000000 1.479693
C9    C     C_3   0.826037 0.605740 0.770908 0.274136
C10   C     C_3   0.552294 0.471791 0.201356 0.273709
C11   C     C_3   0.313130 0.892749 0.227713 0.276692
C12   C     C_3   0.174404 0.105668 0.729146 0.279779
H1    H     H_    0.736643 0.664078 0.791515 0.082923
H2    H     H_    0.467566 0.410233 0.217960 0.078614
H3    H     H_    0.214039 0.837823 0.208148 0.091914
H4    H     H_    0.264130 0.163956 0.708619 0.072674
C13   C     C_3   0.833840 0.533249 0.843779 -0.333100
C14   C     C_3   0.541125 0.540376 0.276475 -0.322713
C15   C     C_3   0.324478 0.965695 0.155292 -0.329898
C16   C     C_3   0.166592 0.033150 0.656282 -0.342459
H5    H     H_    0.749116 0.557924 0.898278 0.135186
H6    H     H_    0.454278 0.509609 0.327578 0.104576
H7    H     H_    0.235514 0.943311 0.101261 0.106181
H8    H     H_    0.251558 0.057790 0.601846 0.094822
H9    H     H_    0.978354 0.524993 0.867803 0.194955
H10   H     H_    0.470958 0.605166 0.256632 0.211176
H11   H     H_    0.468696 0.971112 0.130375 0.184907
H12   H     H_    0.022114 0.024911 0.632181 0.183654
H13   H     H_    0.002145 0.500915 0.642965 0.189429
H14   H     H_    0.830909 0.558938 0.103323 0.183457
H15   H     H_    0.512076 0.993010 0.351819 0.185590
H16   H     H_    0.997387 0.000940 0.856898 0.191977
H17   H     H_    0.023599 0.399236 0.753513 0.168326
H18   H     H_    0.790889 0.664447 0.211064 0.199306
H19   H     H_    0.531860 0.095592 0.242328 0.151356
H20   H     H_    0.976092 0.899161 0.746364 0.167134
C17   C     C_3   0.860242 0.478518 0.661781 -0.316026
C18   C     C_3   0.875195 0.528338 0.164746 -0.288130
C19   C     C_3   0.370558 0.018802 0.336307 -0.297627
C20   C     C_3   0.139298 0.978495 0.838220 -0.313602
C21   C     C_3   0.544025 0.525536 0.711762 -0.383622
C22   C     C_3   0.834513 0.399941 0.269219 -0.406279
C23   C     C_3   0.045669 0.979328 0.292270 -0.391956
C24   C     C_3   0.455894 0.025378 0.788503 -0.381732
C25   C     C_3   0.740370 0.562708 0.688321 0.038903
C26   C     C_3   0.758369 0.441052 0.185017 0.041804
C27   C     C_3   0.240147 0.937490 0.311890 0.036669
C28   C     C_3   0.259573 0.062629 0.811770 0.035957
H21   H     H_    0.476968 0.494027 0.655056 0.162937
H22   H     H_    0.980549 0.376594 0.260423 0.158522
H23   H     H_    0.988030 0.012602 0.350178 0.158539
H24   H     H_    0.522569 0.993862 0.845267 0.169431
H25   H     H_    0.453854 0.583355 0.732867 0.203325
H26   H     H_    0.751334 0.338341 0.287144 0.123323
H27   H     H_    0.947183 0.923870 0.273289 0.193804
H28   H     H_    0.546402 0.083152 0.767490 0.199114
C29   C     C_3   0.759458 0.438703 0.813410 0.021223
C30   C     C_3   0.737672 0.563112 0.311700 0.051334
C31   C     C_3   0.259907 0.061532 0.186837 0.064630
C32   C     C_3   0.240584 0.938602 0.686680 0.034564
C33   C     C_3   0.875084 0.407690 0.735295 -0.294504
C34   C     C_3   0.856321 0.600950 0.236804 -0.301382
C35   C     C_3   0.384441 0.090006 0.263030 -0.322422
C36   C     C_3   0.124561 0.907624 0.764697 -0.285751
C37   C     C_3   0.555199 0.452965 0.783241 -0.318139
C38   C     C_3   0.827194 0.471796 0.342299 -0.346529
C39   C     C_3   0.057158 0.051253 0.220246 -0.321009
C40   C     C_3   0.444764 0.952795 0.717008 -0.322241
H29   H     H_    0.467057 0.475821 0.837304 0.184308
H30   H     H_    0.746223 0.443181 0.396331 0.125424
H31   H     H_    0.963139 0.029715 0.167701 0.162967
H32   H     H_    0.533206 0.975614 0.663032 0.161603
H33   H     H_    0.496989 0.386636 0.759770 0.152249
H34   H     H_    0.970608 0.485185 0.365803 0.154144
H35   H     H_    0.006050 0.118760 0.244146 0.141626
H36   H     H_    0.502630 0.886455 0.740506 0.158867
H37   H     H_    0.797136 0.444798 0.605235 0.115798
H38   H     H_    0.024092 0.509210 0.157717 0.190886
H39   H     H_    0.316913 0.053382 0.394340 0.112923
H40   H     H_    0.202050 0.944803 0.894826 0.127687
H41   H     H_    0.824180 0.339730 0.712670 0.187094
H42   H     H_    0.997567 0.620230 0.259545 0.152730
H43   H     H_    0.341732 0.159026 0.286600 0.118864
H44   H     H_    0.175214 0.839681 0.787366 0.192392
Cl1   Cl    Cl    0.054454 0.652628 0.755022 -0.743793
Cl2   Cl    Cl    0.446752 0.521904 0.108654 -0.690025
Cl3   Cl    Cl    0.535160 0.837533 0.239525 -0.728205
Cl4   Cl    Cl    0.946130 0.152671 0.744864 -0.764228

loop_
_geom_bond_atom_site_label_1
_geom_bond_atom_site_label_2
_ccdc_geom_bond_type
C24   H28   S    
C31   C35   S    
O1    C5    A    
O19   V1    S    
C15   C31   S    
C7    C25   S    
O3    C7    A    
C10   C14   S    
C40   H32   S    
O4    V2    S    
O15   V3    S    
H20   C36   S    
C8    C26   S    
C22   C38   S    
O7    C3    A    
C14   C30   S    
C18   C34   S    
O5    C1    A    
C5    C27   S    
O9    V1    S    
C36   H44   S    
C21   C25   S    
C22   H22   S    
C2    C31   S    
O1    V3    S    
O13   V1    S    
C18   C26   S    
O2    V4    S    
C14   H6    S    
C13   H9    S    
O3    V1    S    
H13   C17   S    
C1    O15   A    
C2    O16   A    
H15   C19   S    
C12   Cl4   S    
H16   C20   S    
O14   V2    S    
C11   C15   S    
C10   C26   S    
C9    C25   S    
C29   C37   S    
C16   H12   S    
O11   C7    A    
C11   C27   S    
O12   C8    A    
C34   H42   S    
O10   V2    S    
C33   H41   S    
H18   C34   S    
C6    C28   S    
C38   H30   S    
O5    V1    S    
C3    C30   S    
C22   H26   S    
C21   H25   S    
O8    V4    S    
C12   H4    S    
O7    V3    S    
C19   H39   S    
C21   H21   S    
O18   V4    S    
H14   C18   S    
C30   C34   S    
C9    H1    S    
C17   H37   S    
C37   H33   S    
C24   C28   S    
C11   H3    S    
O2    C6    A    
O8    C4    A    
C13   C29   S    
C23   C39   S    
O9    C5    A    
C24   H24   S    
C17   C33   S    
C14   H10   S    
O6    V2    S    
C19   C27   S    
C10   Cl2   S    
C12   C16   S    
C23   H23   S    
C11   Cl3   S    
C40   H36   S    
O16   V4    S    
C17   C25   S    
C20   H40   S    
C3    O13   A    
C19   C35   S    
C10   H2    S    
O17   V3    S    
C32   C36   S    
C38   H34   S    
C16   C32   S    
C35   H43   S    
O6    C2    A    
O11   V3    S    
O12   V4    S    
C31   C39   S    
C21   C37   S    
C30   C38   S    
C9    C13   S    
O10   C6    A    
O20   V2    S    
C15   H11   S    
C22   C26   S    
O4    C8    A    
C24   C40   S    
H17   C33   S    
C4    C29   S    
C23   C27   S    
C20   C28   S    
C37   H29   S    
H19   C35   S    
C1    C32   S    
C39   H31   S    
C16   H8    S    
C9    Cl1   S    
C4    O14   A    
C13   H5    S    
C32   C40   S    
C39   H35   S    
C15   H7    S    
C20   C36   S    
C23   H27   S    
C29   C33   S    
C12   C28   S    
C18   H38   S    
