data_mof_unit_45196.cif
_audit_creation_date              2012-12-10T18:11:49-0500
_audit_creation_method            fapswitch 2.2
_symmetry_space_group_name_H-M    P1
_symmetry_Int_Tables_number       1
_space_group_crystal_system       triclinic
_cell_length_a                    15.849516
_cell_length_b                    10.749743
_cell_length_c                    9.414733
_cell_angle_alpha                 90.081648
_cell_angle_beta                  90.056668
_cell_angle_gamma                 90.861207
_cell_volume                      1603.88183926

loop_
_atom_site_label
_atom_site_type_symbol
_atom_type_description
_atom_site_fract_x
_atom_site_fract_y
_atom_site_fract_z
_atom_type_partial_charge
C1    C     C_R   0.498844 0.259892 0.500131 0.788894
C2    C     C_3   0.082580 0.493227 0.498519 0.133654
C3    C     C_3   0.973545 0.579364 0.594290 -0.216522
C4    C     C_3   0.917121 0.497451 0.498456 0.138164
C5    C     C_3   0.030260 0.608597 0.463991 -0.129765
C6    C     C_3   0.972360 0.526604 0.368079 -0.222664
C7    C     C_1   0.174326 0.494321 0.499061 -0.050016
C8    C     C_1   0.825445 0.497309 0.499485 -0.015515
C9    C     C_3   0.492344 0.072678 0.655607 -0.383358
C10   C     C_3   0.490443 0.930015 0.656826 0.117472
C11   C     C_3   0.422133 0.070276 0.414846 -0.389526
C12   C     C_R   0.339761 0.499088 0.499918 0.844269
C13   C     C_3   0.581186 0.074888 0.435710 -0.449630
C14   C     C_3   0.498355 0.122189 0.501147 0.071979
C15   C     C_3   0.498281 0.878593 0.501493 0.042832
C16   C     C_3   0.422826 0.926678 0.412707 -0.453000
C17   C     C_3   0.581344 0.930423 0.432085 0.285726
C18   C     C_3   0.555876 0.602616 0.084794 -0.192911
C19   C     C_3   0.555509 0.604318 0.917068 -0.183941
C20   C     C_3   0.534003 0.382573 0.082313 -0.190990
C21   C     C_3   0.415809 0.517801 0.084063 -0.180990
C22   C     C_3   0.533433 0.384277 0.914946 -0.189767
C23   C     C_R   0.498831 0.740282 0.500337 0.851756
C24   C     C_3   0.415373 0.519304 0.916912 -0.178458
C25   C     C_R   0.660160 0.498442 0.500120 0.837113
C26   C     C_3   0.970439 0.384318 0.532135 0.516636
C27   C     C_3   0.026349 0.411014 0.401578 -0.253613
C28   C     C_1   0.249962 0.496462 0.499615 -0.187247
C29   C     C_1   0.749877 0.497238 0.500253 -0.196011
C30   C     C_3   0.027411 0.464067 0.629568 -0.232272
Cu1   Cu    Cu3+1 0.500040 0.499860 0.642410 0.926202
Cu2   Cu    Cu3+1 0.499960 0.500140 0.357590 0.897932
H1    H     H_    0.049823 0.342416 0.323398 0.131171
H2    H     H_    0.362141 0.102545 0.462836 0.178831
H3    H     H_    0.362005 0.889140 0.454411 0.218428
H4    H     H_    0.588833 0.111093 0.325653 0.137015
H5    H     H_    0.635287 0.111690 0.499424 0.173727
H6    H     H_    0.581041 0.899872 0.318901 0.083927
H7    H     H_    0.424500 0.105580 0.303811 0.173874
H8    H     H_    0.427809 0.894001 0.300809 0.169415
H9    H     H_    0.621782 0.593352 0.123506 0.143190
H10   H     H_    0.533729 0.694069 0.123845 0.145311
H11   H     H_    0.533205 0.696364 0.880559 0.171378
H12   H     H_    0.621194 0.595540 0.877358 0.146438
H13   H     H_    0.599082 0.365840 0.121538 0.142773
H14   H     H_    0.598148 0.367503 0.874268 0.145838
H15   H     H_    0.373010 0.441617 0.121186 0.144236
H16   H     H_    0.389342 0.606316 0.124622 0.156256
H17   H     H_    0.388400 0.608081 0.878804 0.194058
H18   H     H_    0.372617 0.443474 0.878366 0.142543
H19   H     H_    0.494440 0.302578 0.118831 0.142892
H20   H     H_    0.948353 0.553036 0.261699 0.149025
H21   H     H_    0.493293 0.305095 0.877715 0.145130
H22   H     H_    0.057192 0.700975 0.435298 0.146004
H23   H     H_    0.950490 0.648924 0.671801 0.145429
H24   H     H_    0.051068 0.436511 0.735811 0.135232
H25   H     H_    0.435011 0.110139 0.707545 0.203628
H26   H     H_    0.547591 0.106400 0.718829 0.147135
H27   H     H_    0.544786 0.897521 0.721140 0.151906
N1    N     N_3   0.501840 0.500250 0.143650 -0.117772
N2    N     N_3   0.501160 0.503300 0.856280 -0.122285
O1    O     O_R   0.500050 0.317570 0.620260 -0.605275
O2    O     O_R   0.499980 0.317810 0.379740 -0.597211
O3    O     O_R   0.379110 0.499870 0.620240 -0.576723
O4    O     O_R   0.379040 0.500110 0.379720 -0.593986
O5    O     O_R   0.500020 0.682190 0.620260 -0.556875
O6    O     O_R   0.499950 0.682430 0.379740 -0.614108
O7    O     O_R   0.620960 0.499890 0.620280 -0.578283
O8    O     O_R   0.620890 0.500130 0.379760 -0.592358
Br1   Br    Br    0.387975 0.872009 0.755199 -0.638587
O9    O     O_3   0.652664 0.882624 0.504234 -0.628746
C31   C     C_3   0.728294 0.900684 0.425684 0.050253
H28   H     H_    0.781262 0.894805 0.502656 0.177454
H29   H     H_    0.733445 0.994463 0.376308 0.125499
C32   C     C_3   0.739228 0.800170 0.311558 -0.362953
H30   H     H_    0.720673 0.708470 0.355223 0.238810
H31   H     H_    0.698067 0.819375 0.218894 0.187114
C33   C     C_3   0.830431 0.795136 0.260293 -0.929270
H32   H     H_    0.850369 0.886430 0.215364 0.256657
H33   H     H_    0.835983 0.722899 0.176549 0.251509
H34   H     H_    0.872999 0.771036 0.349600 0.264738
O10   O     O_3   0.931926 0.270171 0.571151 -0.623900
C34   C     C_3   0.990707 0.172625 0.568382 0.046580
H35   H     H_    0.982937 0.118566 0.668124 0.166613
H36   H     H_    0.058096 0.204371 0.565096 0.126061
C35   C     C_3   0.971144 0.086781 0.442401 -0.338379
H37   H     H_    0.904740 0.052682 0.449649 0.219010
H38   H     H_    0.978355 0.139366 0.341588 0.210383
C36   C     C_3   0.029590 0.975410 0.439723 -0.938319
H39   H     H_    0.096443 0.007086 0.431532 0.262524
H40   H     H_    0.014252 0.916144 0.346256 0.254775
H41   H     H_    0.021215 0.918999 0.537617 0.255825

loop_
_geom_bond_atom_site_label_1
_geom_bond_atom_site_label_2
_ccdc_geom_bond_type
Cu1   O5    S    
C24   N2    S    
C31   H29   S    
Cu1   N2    S    
C2    C7    S    
C4    C8    S    
C1    O1    A    
Cu1   Cu2   S    
C27   H1    S    
C26   C27   S    
C12   C28   S    
C8    C29   T    
C23   O5    A    
C18   C19   S    
C20   H19   S    
C10   C15   S    
C18   H10   S    
C16   H3    S    
C5    C6    S    
C12   O3    A    
C11   C14   S    
C33   H33   S    
C15   C16   S    
C9    H26   S    
C23   O6    A    
C9    H25   S    
C3    H23   S    
C34   H35   S    
C2    C27   S    
C20   N1    S    
C9    C10   S    
C13   H5    S    
C20   H13   S    
C21   H16   S    
C15   C23   S    
C26   O10   S    
C13   C14   S    
C25   C29   S    
Cu1   O1    S    
C25   O7    A    
C31   C32   S    
C1    O2    A    
C19   H11   S    
C22   H21   S    
C24   H18   S    
Cu1   O7    S    
C5    H22   S    
C13   H4    S    
C4    C6    S    
C18   H9    S    
C9    C14   S    
C35   H37   S    
C30   H24   S    
C7    C28   T    
C3    C30   S    
C32   H30   S    
C11   C16   S    
C6    C27   S    
C36   H41   S    
C11   H7    S    
C32   H31   S    
C21   N1    S    
C16   H8    S    
Cu2   O6    S    
C10   Br1   S    
C18   N1    S    
C22   H14   S    
C20   C22   S    
C17   O9    S    
C2    C5    S    
C36   H40   S    
Cu2   N1    S    
C3    C4    S    
C19   H12   S    
C24   H17   S    
C15   C17   S    
C34   H36   S    
C33   H32   S    
Cu1   O3    S    
C11   H2    S    
Cu2   O2    S    
C31   H28   S    
C3    C5    S    
C35   C36   S    
C4    C26   S    
C26   C30   S    
Cu2   O8    S    
C12   O4    A    
C13   C17   S    
C2    C30   S    
C10   H27   S    
O9    C31   S    
C22   N2    S    
C33   H34   S    
C19   N2    S    
C35   H38   S    
C17   H6    S    
C32   C33   S    
C34   C35   S    
C25   O8    A    
O10   C34   S    
C21   C24   S    
C1    C14   S    
C6    H20   S    
C36   H39   S    
Cu2   O4    S    
C21   H15   S    
