data_mof_unit_29739.cif
_audit_creation_date              2012-12-10T17:29:15-0500
_audit_creation_method            fapswitch 2.2
_symmetry_space_group_name_H-M    P1
_symmetry_Int_Tables_number       1
_space_group_crystal_system       triclinic
_cell_length_a                    12.021381
_cell_length_b                    12.885851
_cell_length_c                    13.169491
_cell_angle_alpha                 85.203465
_cell_angle_beta                  112.22107
_cell_angle_gamma                 94.192455
_cell_volume                      1880.0021654

loop_
_atom_site_label
_atom_site_type_symbol
_atom_type_description
_atom_site_fract_x
_atom_site_fract_y
_atom_site_fract_z
_atom_type_partial_charge
C1    C     C_R   0.475163 0.299911 0.493849 0.895365
C2    C     C_R   0.611232 0.544249 0.821728 -0.184494
C3    C     C_R   0.542253 0.814365 0.505643 -0.116978
C4    C     C_R   0.567251 0.510889 0.706544 0.862767
C5    C     C_R   0.455801 0.189466 0.481194 -0.060951
C6    C     C_R   0.352098 0.027141 0.498997 -0.189905
C7    C     C_R   0.358338 0.134829 0.496889 -0.203926
C8    C     C_R   0.540941 0.137791 0.458500 -0.254562
C9    C     C_R   0.541362 0.029948 0.468328 0.118911
C10   C     C_R   0.445740 0.974890 0.489803 0.157832
C11   C     C_R   0.444153 0.868136 0.501946 -0.322117
C12   C     C_R   0.556628 0.563552 0.979530 0.094671
C13   C     C_R   0.647802 0.870057 0.501910 0.075918
C14   C     C_R   0.639166 0.976607 0.465925 0.062433
C15   C     C_R   0.022312 0.617399 0.410096 -0.092595
C16   C     C_R   0.525184 0.701083 0.505079 0.879318
C17   C     C_R   0.140409 0.602338 0.419602 -0.066787
C18   C     C_R   0.151069 0.449740 0.534934 -0.049281
C19   C     C_R   0.032563 0.460387 0.528351 0.061835
C20   C     C_R   0.964566 0.544079 0.464004 -0.006428
C21   C     C_R   0.842852 0.548672 0.456987 0.027590
C22   C     C_R   0.864257 0.398236 0.578933 0.128015
C23   C     C_R   0.526070 0.572469 0.864958 0.063577
C24   C     C_R   0.981078 0.387280 0.583785 -0.366246
C25   C     C_R   0.433774 0.504242 0.291230 0.869440
C26   C     C_R   0.253133 0.578259 0.991175 -0.253291
C27   C     C_R   0.393926 0.519852 0.171085 -0.093097
C28   C     C_R   0.735489 0.544938 0.893360 0.113049
C29   C     C_R   0.766361 0.557074 0.005346 -0.177297
C30   C     C_R   0.678816 0.560912 0.048734 -0.220048
C31   C     C_3   0.166624 0.520304 0.134752 -0.402713
C32   C     C_3   0.148652 0.403420 0.164853 -0.307426
C33   C     C_3   0.053294 0.384682 0.215474 -0.866594
C34   C     C_R   0.463618 0.559101 0.020770 0.086899
C35   C     C_3   0.771030 0.822060 0.547004 -0.393062
C36   C     C_3   0.813372 0.796052 0.671257 -0.329821
C37   C     C_3   0.939014 0.752679 0.716078 -0.920104
C38   C     C_3   0.727069 0.028654 0.416456 -0.437552
C39   C     C_3   0.835508 0.085359 0.500821 -0.339294
C40   C     C_3   0.940703 0.101918 0.462270 -0.886589
C41   C     C_1   0.760111 0.616819 0.375422 0.205038
C42   C     C_1   0.814190 0.317838 0.633585 0.208633
C43   C     C_1   0.969079 0.711784 0.349896 0.117872
C44   C     C_3   0.840371 0.534550 0.858605 -0.424670
C45   C     C_R   0.346176 0.585658 0.950971 0.155551
C46   C     C_3   0.879302 0.421830 0.879481 -0.307571
C47   C     C_3   0.991453 0.410168 0.854081 -0.896881
C48   C     C_R   0.323158 0.617160 0.841255 -0.246559
C49   C     C_R   0.411967 0.610671 0.798560 -0.182881
C50   C     C_R   0.484147 0.523605 0.128653 -0.278717
C51   C     C_R   0.273852 0.540502 0.099852 0.100652
H1    H     H_    0.277685 0.984742 0.513517 0.137889
H2    H     H_    0.709673 0.567477 0.136352 0.155525
H3    H     H_    0.859723 0.560230 0.060791 0.142393
H4    H     H_    0.390857 0.638920 0.714075 0.181612
H5    H     H_    0.366241 0.827005 0.511361 0.172273
H6    H     H_    0.081450 0.424403 0.293180 0.277020
H7    H     H_    0.965774 0.413834 0.158374 0.245302
H8    H     H_    0.041490 0.299829 0.233807 0.245701
H9    H     H_    0.121253 0.358060 0.090744 0.213022
H10   H     H_    0.233301 0.370499 0.223770 0.228152
H11   H     H_    0.176362 0.569271 0.203193 0.221595
H12   H     H_    0.289951 0.174779 0.511357 0.157079
H13   H     H_    0.082872 0.545423 0.067436 0.181171
H14   H     H_    0.938155 0.678694 0.678009 0.263006
H15   H     H_    0.004375 0.809789 0.698752 0.265261
H16   H     H_    0.969162 0.737331 0.806417 0.245826
H17   H     H_    0.816027 0.867980 0.713395 0.223863
H18   H     H_    0.749998 0.737957 0.690247 0.221687
H19   H     H_    0.771573 0.753317 0.504111 0.231847
H20   H     H_    0.841552 0.874456 0.533390 0.209952
H21   H     H_    0.973167 0.025676 0.454137 0.263218
H22   H     H_    0.912801 0.147413 0.381839 0.268731
H23   H     H_    0.611557 0.182905 0.441273 0.163361
H24   H     H_    0.015886 0.145790 0.523235 0.243897
H25   H     H_    0.809522 0.162694 0.511891 0.227635
H26   H     H_    0.866037 0.041651 0.582250 0.229965
H27   H     H_    0.757803 0.969133 0.377592 0.219628
H28   H     H_    0.679980 0.084058 0.346437 0.191622
H29   H     H_    0.988640 0.458941 0.779920 0.268538
H30   H     H_    0.072538 0.435316 0.922488 0.259951
H31   H     H_    0.000472 0.327199 0.842948 0.254425
H32   H     H_    0.898612 0.394890 0.966457 0.220199
H33   H     H_    0.803995 0.371280 0.828411 0.248485
H34   H     H_    0.031877 0.321601 0.631198 0.151496
H35   H     H_    0.821894 0.563444 0.772774 0.234776
H36   H     H_    0.917104 0.585939 0.907210 0.181031
H37   H     H_    0.184624 0.657711 0.379013 0.143026
H38   H     H_    0.235276 0.643024 0.787377 0.152921
H39   H     H_    0.203275 0.385584 0.583812 0.132161
H40   H     H_    0.163632 0.599657 0.936644 0.137989
H41   H     H_    0.570946 0.495704 0.180910 0.168498
N1    N     N_R   0.798200 0.480260 0.519790 -0.138403
N2    N     N_R   0.201820 0.519740 0.480210 -0.111788
N3    N     N_1   0.693820 0.671657 0.309713 -0.213497
N4    N     N_1   0.775281 0.251565 0.677225 -0.239658
N5    N     N_1   0.927537 0.787843 0.301750 -0.210208
O1    O     O_R   0.579910 0.341070 0.505280 -0.615414
O2    O     O_R   0.388440 0.353740 0.492580 -0.621452
O3    O     O_R   0.643280 0.490550 0.663120 -0.614049
O4    O     O_R   0.451810 0.503220 0.650420 -0.610894
O5    O     O_R   0.611560 0.646260 0.507420 -0.622399
O6    O     O_R   0.420090 0.658930 0.494720 -0.636200
O7    O     O_R   0.548190 0.496780 0.349580 -0.613375
O8    O     O_R   0.356720 0.509450 0.336880 -0.614240
Zn1   Zn    Zn3+2 0.627850 0.491540 0.508480 0.945189
Zn2   Zn    Zn3+2 0.372150 0.508460 0.491520 0.927733

loop_
_geom_bond_atom_site_label_1
_geom_bond_atom_site_label_2
_ccdc_geom_bond_type
O4    Zn2   S    
C33   H7    S    
C17   H37   S    
C35   C36   S    
C1    O2    A    
O7    Zn1   S    
C25   O8    A    
C22   C42   S    
O8    Zn2   S    
C12   C23   A    
C42   N4    T    
C39   H26   S    
C36   C37   S    
C32   H10   S    
C13   C35   S    
C38   C39   S    
C23   C49   A    
C38   H28   S    
C40   H22   S    
C18   C19   A    
C47   H31   S    
C26   C45   A    
C19   C20   A    
C35   H19   S    
C44   C46   S    
C8    C9    A    
C37   H14   S    
C44   H36   S    
C24   H34   S    
C3    C13   A    
C27   C50   A    
C35   H20   S    
C33   H8    S    
C13   C14   A    
C4    O4    A    
C31   H11   S    
C47   H29   S    
C44   H35   S    
C27   C51   A    
C15   C20   A    
C30   H2    S    
N2    Zn2   S    
C34   C50   A    
C18   H39   S    
C21   C41   S    
C39   C40   S    
C5    C7    A    
C38   H27   S    
C26   H40   S    
C49   H4    S    
C28   C44   S    
C2    C4    S    
C9    C14   A    
C29   C30   A    
N1    Zn1   S    
C14   C38   S    
C16   O6    A    
C31   C32   S    
C37   H15   S    
C8    H23   S    
C34   C45   A    
C39   H25   S    
C7    H12   S    
C46   H33   S    
C50   H41   S    
C48   C49   A    
C48   H38   S    
C4    O3    A    
C18   N2    A    
C22   N1    A    
C1    C5    S    
C32   H9    S    
C12   C34   A    
C36   H18   S    
C9    C10   A    
C45   C48   A    
C16   O5    A    
C15   C17   A    
C46   C47   S    
C28   C29   A    
C33   H6    S    
C40   H21   S    
C12   C30   A    
C31   H13   S    
C43   N5    T    
C31   C51   S    
C1    O1    A    
C6    C10   A    
C5    C8    A    
O6    Zn2   S    
C36   H17   S    
C25   O7    A    
C6    C7    A    
C25   C27   S    
O2    Zn2   S    
O3    Zn1   S    
O1    Zn1   S    
C40   H24   S    
C32   C33   S    
C19   C24   A    
C15   C43   S    
C26   C51   A    
C41   N3    T    
C21   N1    A    
C37   H16   S    
O5    Zn1   S    
C22   C24   A    
C47   H30   S    
C3    C11   A    
C10   C11   A    
C11   H5    S    
C46   H32   S    
C20   C21   A    
C29   H3    S    
C2    C23   A    
C2    C28   A    
C17   N2    A    
C6    H1    S    
C3    C16   S    
