data_mof_unit_14106.cif
_audit_creation_date              2013-03-05T15:55:01-0500
_audit_creation_method            fapswitch 2.2
_symmetry_space_group_name_H-M    P1
_symmetry_Int_Tables_number       1
_space_group_crystal_system       triclinic
_cell_length_a                    11.698011
_cell_length_b                    12.360435
_cell_length_c                    13.191042
_cell_angle_alpha                 116.499681
_cell_angle_beta                  77.59593
_cell_angle_gamma                 101.336899
_cell_volume                      1655.98264956

loop_
_atom_site_label
_atom_site_type_symbol
_atom_site_description
_atom_site_fract_x
_atom_site_fract_y
_atom_site_fract_z
_atom_type_partial_charge
O1    O     O_R   0.533340 0.972510 0.318140 -0.571963
O2    O     O_R   0.488570 0.806530 0.359650 -0.578067
C1    C     C_R   0.510540 0.854531 0.286507 0.867007
O3    O     O_R   0.685190 0.083000 0.479260 -0.525266
O4    O     O_R   0.640410 0.917020 0.520770 -0.611876
C2    C     C_R   0.715771 0.999745 0.499700 0.802497
Cu1   Cu    Cu3+1 0.526510 0.098270 0.475420 1.027795
Cu2   Cu    Cu3+1 0.473490 0.901730 0.524580 1.014405
O5    O     O_R   0.511430 0.193470 0.640350 -0.567853
O6    O     O_R   0.466660 0.027490 0.681860 -0.530075
O7    O     O_R   0.359590 0.082980 0.479230 -0.588243
O8    O     O_R   0.314810 0.917000 0.520740 -0.509139
C3    C     C_R   0.488648 0.145104 0.713526 0.804523
C4    C     C_R   0.284237 0.000148 0.500147 0.851304
C5    C     C_1   0.837527 0.999583 0.499591 -0.094368
C6    C     C_1   0.940083 0.999649 0.499573 0.060501
C7    C     C_1   0.059970 0.999864 0.499692 0.049585
C8    C     C_1   0.162506 0.000053 0.499885 -0.120978
C9    C     C_R   0.385909 0.266694 0.029099 -0.081057
H1    H     H_    0.381701 0.090251 0.890632 0.204356
H2    H     H_    0.326869 0.232290 0.086272 0.211225
C10   C     C_R   0.482129 0.227084 0.836381 -0.146904
C11   C     C_R   0.610207 0.807314 0.089726 -0.243907
C12   C     C_R   0.678666 0.724653 0.999928 -0.189506
C13   C     C_R   0.658920 0.601739 0.979078 0.430566
C14   C     C_R   0.551670 0.557817 0.031155 -0.083430
C15   C     C_R   0.488144 0.643176 0.129064 -0.055864
C16   C     C_R   0.505096 0.432890 0.989511 0.005881
C17   C     C_R   0.421359 0.391747 0.063677 0.002294
C18   C     C_R   0.367351 0.476121 0.167052 0.299492
C19   C     C_R   0.388057 0.600792 0.189558 0.329997
C20   C     C_R   0.530745 0.350582 0.873463 0.425899
C21   C     C_R   0.417199 0.185008 0.916688 -0.237536
C22   C     C_R   0.527548 0.769247 0.164370 -0.059864
H3    H     H_    0.633002 0.902474 0.109346 0.236656
H4    H     H_    0.754669 0.758858 0.954837 0.202719
C23   C     C_R   0.688149 0.349389 0.329242 0.171758
H5    H     H_    0.718529 0.548011 0.290456 0.203104
N1    N     N_R   0.566700 0.246290 0.438210 -0.267670
C24   C     C_R   0.339931 0.758622 0.643904 0.543672
C25   C     C_R   0.292500 0.653759 0.661081 -0.308456
C26   C     C_R   0.341092 0.544779 0.595495 0.374926
C27   C     C_R   0.449158 0.543169 0.521122 -0.087602
C28   C     C_R   0.490054 0.650170 0.500846 0.158461
C29   C     C_R   0.518031 0.441369 0.465760 -0.031543
C30   C     C_R   0.616608 0.444457 0.382420 -0.003299
C31   C     C_R   0.645745 0.544608 0.355792 -0.179452
C32   C     C_R   0.586820 0.646072 0.416270 -0.141149
C33   C     C_R   0.497932 0.339470 0.493455 -0.031378
C34   C     C_R   0.662745 0.251861 0.359908 0.432143
N2    N     N_R   0.434010 0.754320 0.561170 -0.211930
H6    H     H_    0.431713 0.334658 0.562309 0.212572
H7    H     H_    0.212342 0.654525 0.720454 0.196342
H8    H     H_    0.621326 0.720035 0.393848 0.194884
N3    N     N_R   0.791244 0.354412 0.248973 0.149222
O9    O     O_R   0.883112 0.431299 0.284170 -0.303823
O10   O     O_R   0.795527 0.277883 0.141767 -0.271988
O11   O     O_3   0.288100 0.864887 0.704897 -0.689069
H9    H     H_    0.221403 0.853486 0.761333 0.309387
O12   O     O_3   0.273666 0.441512 0.598738 -0.693349
H10   H     H_    0.277680 0.378218 0.518747 0.332793
O13   O     O_3   0.288106 0.434573 0.239663 -0.708991
H11   H     H_    0.282758 0.501167 0.318028 0.337552
O14   O     O_3   0.590375 0.394932 0.795150 -0.692474
H12   H     H_    0.651791 0.340654 0.746607 0.359262
N4    N     N_R   0.754291 0.528100 0.919319 0.136399
O15   O     O_R   0.768680 0.444149 0.948016 -0.330280
O16   O     O_R   0.835122 0.554216 0.846191 -0.324706
O17   O     O_3   0.308259 0.680774 0.263996 -0.720525
H13   H     H_    0.230975 0.634385 0.275015 0.353548
N5    N     N_R   0.746811 0.166652 0.318557 0.160602
O18   O     O_R   0.750287 0.082770 0.214498 -0.355790
O19   O     O_R   0.841383 0.198456 0.366892 -0.303959

loop_
_geom_bond_atom_site_label_1
_geom_bond_atom_site_label_2
_geom_bond_distance
_ccdc_geom_bond_type
C32   H8    1.063552 S    
O4    Cu2   1.916309 S    
N4    O16   1.301863 A    
C34   N5    1.427576 S    
C17   C18   1.402178 A    
Cu2   O8    1.915852 S    
C24   N2    1.363920 A    
C25   C26   1.391363 A    
C4    C8    1.424528 S    
C19   O17   1.384074 S    
C14   C16   1.422625 A    
C31   C32   1.376678 A    
C29   C33   1.425642 A    
C18   C19   1.413273 A    
C11   C12   1.386537 A    
C11   C22   1.396928 A    
O14   H12   0.992366 S    
C33   H6    1.075335 S    
N3    O9    1.301052 A    
N3    O10   1.300613 A    
N4    O15   1.301899 A    
C14   C15   1.418932 A    
N5    O18   1.297458 A    
C2    C5    1.424386 S    
C12   H4    1.082801 S    
C29   C30   1.419616 A    
C13   C14   1.426690 A    
Cu1   O7    1.916309 S    
C23   C34   1.395640 A    
C27   C29   1.446204 A    
Cu2   N2    2.030842 S    
C25   H7    1.083573 S    
H5    C31   1.082826 S    
O13   H11   0.991548 S    
C10   C20   1.415893 A    
C27   C28   1.435809 A    
O3    Cu1   1.915852 S    
H1    C21   1.083161 S    
C28   N2    1.383400 A    
Cu2   O6    1.956193 S    
C16   C17   1.418341 A    
N1    C33   1.366795 A    
O8    C4    1.301291 A    
C3    C10   1.473348 S    
C7    C8    1.199557 T    
C11   H3    1.075303 S    
O17   H13   0.990645 S    
C18   O13   1.382327 S    
C15   C22   1.421212 A    
O4    C2    1.301508 A    
O7    C4    1.301595 A    
Cu1   N1    2.042899 S    
O11   H9    0.991791 S    
C24   O11   1.378639 S    
C26   C27   1.421490 A    
C15   C19   1.418648 A    
C5    C6    1.199500 T    
C9    C17   1.403330 A    
Cu1   O5    1.944525 S    
Cu1   Cu2   2.710616 S    
N1    C34   1.366904 A    
C12   C13   1.397722 A    
C20   O14   1.378282 S    
O3    C2    1.301311 A    
C9    C21   1.388614 A    
C26   O12   1.375357 S    
N5    O19   1.301286 A    
C10   C21   1.400085 A    
O5    C3    1.304591 A    
C30   C31   1.393787 A    
C24   C25   1.401614 A    
O2    C1    1.301286 A    
C1    C22   1.475012 S    
C9    H2    1.083310 S    
C23   C30   1.404319 A    
O1    Cu1   1.956195 S    
C16   C20   1.414671 A    
O2    Cu2   1.944525 S    
C13   N4    1.440720 S    
C28   C32   1.399343 A    
C6    C7    1.402253 S    
O12   H10   0.992026 S    
O1    C1    1.312894 A    
O6    C3    1.308173 A    
C23   N3    1.435295 S    
