data_mof_unit_51538.cif
_audit_creation_date              2012-12-11T16:26:13-0500
_audit_creation_method            fapswitch 2.2
_symmetry_space_group_name_H-M    P1
_symmetry_Int_Tables_number       1
_space_group_crystal_system       triclinic
_cell_length_a                    14.013526
_cell_length_b                    13.986753
_cell_length_c                    31.879432
_cell_angle_alpha                 89.927999
_cell_angle_beta                  90.246428
_cell_angle_gamma                 119.795472
_cell_volume                      5422.4140201

loop_
_atom_site_label
_atom_site_type_symbol
_atom_type_description
_atom_site_fract_x
_atom_site_fract_y
_atom_site_fract_z
_atom_type_partial_charge
C1    C     C_R   0.568696 0.442499 0.811342 0.544157
C2    C     C_R   0.876854 0.432550 0.689715 0.560551
C3    C     C_R   0.557030 0.124263 0.810859 0.542596
C4    C     C_R   0.567242 0.444329 0.689612 0.543486
C5    C     C_R   0.878078 0.433638 0.810452 0.531082
C6    C     C_R   0.555701 0.123587 0.689785 0.551447
C7    C     C_R   0.444439 0.567025 0.310260 0.538216
C8    C     C_R   0.432176 0.876630 0.189338 0.552178
C9    C     C_R   0.124062 0.556175 0.310426 0.535112
C10   C     C_R   0.444555 0.566668 0.189690 0.536340
C11   C     C_R   0.431839 0.875533 0.310560 0.533256
C12   C     C_R   0.121619 0.555497 0.189710 0.537302
C13   C     C_1   0.958960 0.495775 0.023286 0.009600
C14   C     C_1   0.526160 0.976670 0.483345 -0.005787
C15   C     C_1   0.535626 0.476615 0.025751 0.005010
C16   C     C_1   0.036741 0.553156 0.484391 -0.011929
C17   C     C_1   0.487886 0.957809 0.014719 -0.002979
C18   C     C_1   0.473498 0.468831 0.480422 -0.005063
C19   C     C_1   0.534984 0.994358 0.520227 0.002426
C20   C     C_1   0.956970 0.493890 0.985454 0.009057
C21   C     C_1   0.478028 0.463342 0.517725 -0.007259
C22   C     C_1   0.492277 0.960650 0.977074 -0.013088
C23   C     C_1   0.021653 0.543901 0.521440 -0.029963
C24   C     C_1   0.538851 0.472930 0.988130 0.000483
C25   C     C_R   0.932264 0.472170 0.852236 -0.048310
C26   C     C_R   0.539568 0.074037 0.648153 -0.012675
C27   C     C_R   0.535786 0.451097 0.854961 -0.022071
C28   C     C_R   0.930172 0.468336 0.648523 -0.021968
C29   C     C_R   0.541047 0.063331 0.850869 -0.038813
C30   C     C_R   0.529501 0.461360 0.648340 -0.018091
C31   C     C_R   0.462109 0.917524 0.353499 -0.032023
C32   C     C_R   0.054720 0.533929 0.150728 -0.038329
C33   C     C_R   0.462665 0.527964 0.350970 -0.036571
C34   C     C_R   0.467024 0.927879 0.147223 -0.025960
C35   C     C_R   0.088184 0.546731 0.354041 -0.026851
C36   C     C_R   0.468752 0.522438 0.151150 -0.040435
C37   C     C_R   0.938492 0.565417 0.872580 0.162502
C38   C     C_R   0.585299 0.007979 0.636497 0.151371
C39   C     C_R   0.471576 0.354579 0.879362 0.154307
C40   C     C_R   0.988789 0.580086 0.636120 0.139245
C41   C     C_R   0.631527 0.081733 0.876827 0.128482
C42   C     C_R   0.425160 0.384857 0.631386 0.151437
C43   C     C_R   0.572607 0.978624 0.367381 0.145132
C44   C     C_R   0.033011 0.613577 0.131809 0.148301
C45   C     C_R   0.388939 0.421918 0.367421 0.143402
C46   C     C_R   0.556117 0.929006 0.126282 0.153288
C47   C     C_R   0.013262 0.579721 0.368000 0.144787
C48   C     C_R   0.386145 0.436910 0.126280 0.144843
C49   C     C_R   0.944680 0.572106 0.916998 0.140723
C50   C     C_R   0.583057 0.979590 0.593805 0.122423
C51   C     C_R   0.475127 0.361659 0.923571 0.125358
C52   C     C_R   0.025493 0.606668 0.594248 0.126673
C53   C     C_R   0.613452 0.038902 0.917556 0.161248
C54   C     C_R   0.406604 0.386006 0.587806 0.118077
C55   C     C_R   0.594664 0.001298 0.410580 0.139210
C56   C     C_R   0.992088 0.597377 0.090242 0.152375
C57   C     C_R   0.393431 0.401098 0.410342 0.137935
C58   C     C_R   0.561941 0.937407 0.082080 0.136602
C59   C     C_R   0.996096 0.582814 0.411436 0.142978
C60   C     C_R   0.413045 0.414477 0.086454 0.148647
C61   C     C_R   0.957127 0.492671 0.940082 0.030314
C62   C     C_R   0.537981 0.020162 0.563707 0.030426
C63   C     C_R   0.533577 0.465610 0.943019 0.038930
C64   C     C_R   0.999303 0.521071 0.565163 0.012419
C65   C     C_R   0.506175 0.975867 0.932483 0.030692
C66   C     C_R   0.491299 0.464250 0.562199 0.032261
C67   C     C_R   0.506734 0.957249 0.439335 0.021594
C68   C     C_R   0.969796 0.500935 0.068472 0.038878
C69   C     C_R   0.473270 0.484179 0.436136 0.027910
C70   C     C_R   0.485718 0.956751 0.059841 0.041235
C71   C     C_R   0.054765 0.554370 0.440219 0.018338
C72   C     C_R   0.519323 0.480563 0.070149 0.036628
C73   C     C_R   0.972248 0.413282 0.918763 0.121647
C74   C     C_R   0.491027 0.084086 0.575898 0.106101
C75   C     C_R   0.581372 0.562162 0.918577 0.119687
C76   C     C_R   0.946296 0.410550 0.578320 0.112204
C77   C     C_R   0.416075 0.942925 0.904990 0.112794
C78   C     C_R   0.590570 0.545517 0.579781 0.103856
C79   C     C_R   0.397431 0.897759 0.425248 0.108390
C80   C     C_R   0.971242 0.414423 0.090031 0.116792
C81   C     C_R   0.553031 0.584754 0.418970 0.114977
C82   C     C_R   0.411876 0.979365 0.081949 0.122378
C83   C     C_R   0.128664 0.521415 0.426047 0.108436
C84   C     C_R   0.603242 0.558897 0.095864 0.115137
C85   C     C_R   0.958470 0.402939 0.875266 -0.177383
C86   C     C_R   0.489811 0.107974 0.618021 -0.169467
C87   C     C_R   0.584452 0.554072 0.874819 -0.183003
C88   C     C_R   0.913067 0.385588 0.619751 -0.141921
C89   C     C_R   0.434192 0.989592 0.864752 -0.147896
C90   C     C_R   0.607449 0.545218 0.622741 -0.178955
C91   C     C_R   0.376183 0.879091 0.382585 -0.157929
C92   C     C_R   0.015301 0.431800 0.130557 -0.172553
C93   C     C_R   0.547842 0.605228 0.376559 -0.163859
C94   C     C_R   0.400470 0.960109 0.125269 -0.171297
C95   C     C_R   0.143297 0.516245 0.383204 -0.152259
C96   C     C_R   0.578147 0.574357 0.136845 -0.175762
Cr1   Cr    Cr6+3 0.504240 0.249200 0.750000 1.019922
Cr2   Cr    Cr6+3 0.744960 0.495760 0.750000 0.994277
Cr3   Cr    Cr6+3 0.750800 0.255040 0.750000 1.001337
Cr4   Cr    Cr6+3 0.249200 0.504240 0.250000 0.986205
Cr5   Cr    Cr6+3 0.495760 0.744960 0.250000 0.998984
Cr6   Cr    Cr6+3 0.255040 0.750800 0.250000 0.989339
H1    H     H_    0.021877 0.365764 0.145577 0.138353
H2    H     H_    0.291414 0.829698 0.372340 0.144383
H3    H     H_    0.644003 0.634109 0.156448 0.120844
H4    H     H_    0.202942 0.493616 0.372698 0.139855
H5    H     H_    0.337412 0.968310 0.141725 0.127138
H6    H     H_    0.606701 0.685721 0.364528 0.135340
H7    H     H_    0.456517 0.160469 0.626786 0.154053
H8    H     H_    0.963409 0.336754 0.859735 0.140632
H9    H     H_    0.686222 0.606221 0.635325 0.126666
H10   H     H_    0.364245 0.969682 0.844615 0.141592
H11   H     H_    0.869183 0.299631 0.628960 0.162007
H12   H     H_    0.628092 0.628538 0.856355 0.112099
O1    O     O_R   0.480350 0.140770 0.796330 -0.504393
O2    O     O_R   0.660420 0.519650 0.703670 -0.541096
O3    O     O_R   0.859230 0.339580 0.796330 -0.538856
O4    O     O_R   0.480350 0.140770 0.703670 -0.521190
O5    O     O_R   0.660420 0.519650 0.796330 -0.532958
O6    O     O_R   0.859230 0.339580 0.703670 -0.524338
O7    O     O_R   0.140770 0.480350 0.296330 -0.519068
O8    O     O_R   0.519650 0.660420 0.203670 -0.522557
O9    O     O_R   0.339580 0.859230 0.296330 -0.518568
O10   O     O_R   0.140770 0.480350 0.203670 -0.529545
O11   O     O_R   0.519650 0.660420 0.296330 -0.529258
O12   O     O_R   0.339580 0.859230 0.203670 -0.536085
O13   O     O_R   0.514930 0.348530 0.793250 -0.463771
O14   O     O_R   0.833600 0.485070 0.706750 -0.474872
O15   O     O_R   0.651470 0.166400 0.793250 -0.496529
O16   O     O_R   0.514930 0.348530 0.706750 -0.463074
O17   O     O_R   0.833600 0.485070 0.793250 -0.479466
O18   O     O_R   0.651470 0.166400 0.706750 -0.469467
O19   O     O_R   0.348530 0.514930 0.293250 -0.501093
O20   O     O_R   0.485070 0.833600 0.206750 -0.458140
O21   O     O_R   0.166400 0.651470 0.293250 -0.505603
O22   O     O_R   0.348530 0.514930 0.206750 -0.498107
O23   O     O_R   0.485070 0.833600 0.293250 -0.495550
O24   O     O_R   0.166400 0.651470 0.206750 -0.495937
O25   O     O_3   0.666667 0.333333 0.750000 -0.237185
O26   O     O_3   0.333333 0.666667 0.250000 -0.223972
N1    N     N_2   0.948983 0.656411 0.848560 -0.502799
H13   H     H_    0.982173 0.667222 0.818955 0.246284
C97   C     C_3   0.868435 0.691296 0.854089 -0.254367
H14   H     H_    0.909606 0.776452 0.866755 0.132362
H15   H     H_    0.802586 0.636219 0.875934 0.184826
H16   H     H_    0.830947 0.691458 0.823406 0.147752
N2    N     N_2   0.637284 0.974603 0.667200 -0.492942
H17   H     H_    0.697283 0.959496 0.655797 0.271693
C98   C     C_3   0.563211 0.890150 0.695876 -0.306134
H18   H     H_    0.510308 0.812236 0.678689 0.130212
H19   H     H_    0.510490 0.916415 0.712400 0.147620
H20   H     H_    0.611698 0.874643 0.719817 0.130899
N3    N     N_2   0.409832 0.249468 0.859732 -0.454264
H21   H     H_    0.404016 0.183560 0.876357 0.275912
C99   C     C_3   0.306168 0.228140 0.841541 -0.278674
H22   H     H_    0.248525 0.222815 0.866371 0.109209
H23   H     H_    0.268563 0.148831 0.824176 0.136209
H24   H     H_    0.318651 0.294392 0.819225 0.144910
N4    N     N_2   0.013001 0.664978 0.665924 -0.498069
H25   H     H_    0.095424 0.722913 0.667472 0.255477
C100  C     C_3   0.944693 0.715338 0.662566 -0.277899
H26   H     H_    0.961134 0.762203 0.632801 0.151204
H27   H     H_    0.962656 0.772899 0.689227 0.123161
H28   H     H_    0.856623 0.651686 0.663762 0.177507
N5    N     N_2   0.742013 0.151569 0.864547 -0.504742
H29   H     H_    0.761830 0.230172 0.856375 0.282806
C101  C     C_3   0.795304 0.100880 0.842167 -0.275555
H30   H     H_    0.807644 0.126854 0.808825 0.171425
H31   H     H_    0.877010 0.127720 0.856525 0.114424
H32   H     H_    0.746329 0.009408 0.843441 0.127762
N6    N     N_2   0.341746 0.303647 0.657563 -0.483565
H33   H     H_    0.284096 0.233001 0.642548 0.271563
C102  C     C_3   0.293193 0.345777 0.687011 -0.292714
H34   H     H_    0.248375 0.380915 0.670043 0.128236
H35   H     H_    0.357115 0.410372 0.707376 0.144376
H36   H     H_    0.234310 0.277724 0.707425 0.128411
N7    N     N_2   0.661512 0.019890 0.338355 -0.496293
H37   H     H_    0.642887 0.034701 0.308581 0.242065
C103  C     C_3   0.723934 0.962790 0.338411 -0.276487
H38   H     H_    0.758026 0.964427 0.370052 0.171359
H39   H     H_    0.793676 0.003892 0.316221 0.125020
H40   H     H_    0.671209 0.875842 0.328449 0.161456
N8    N     N_2   0.048869 0.708932 0.153788 -0.498420
H41   H     H_    0.128600 0.764156 0.162371 0.272646
C104  C     C_3   0.966319 0.689643 0.184853 -0.286739
H42   H     H_    0.981244 0.769701 0.197677 0.121291
H43   H     H_    0.969528 0.638803 0.211020 0.143260
H44   H     H_    0.883119 0.647042 0.170310 0.149289
N9    N     N_2   0.306644 0.336269 0.342293 -0.483549
H45   H     H_    0.243204 0.348529 0.332768 0.272778
C105  C     C_3   0.346510 0.290877 0.310615 -0.295455
H46   H     H_    0.275799 0.217886 0.296026 0.128330
H47   H     H_    0.401868 0.264250 0.324970 0.141821
H48   H     H_    0.391561 0.352401 0.285719 0.140225
N10   N     N_2   0.642302 0.929334 0.150366 -0.489108
H49   H     H_    0.703419 0.005791 0.160137 0.227034
C106  C     C_3   0.676837 0.850199 0.140860 -0.243546
H50   H     H_    0.695158 0.821460 0.170630 0.149231
H51   H     H_    0.611519 0.778758 0.123480 0.182867
H52   H     H_    0.753441 0.889351 0.122117 0.132416
N11   N     N_2   0.952620 0.607029 0.339095 -0.498490
H53   H     H_    0.994023 0.646717 0.312262 0.251225
C107  C     C_3   0.842883 0.517675 0.330340 -0.299822
H54   H     H_    0.799436 0.547510 0.309532 0.134385
H55   H     H_    0.795019 0.486721 0.359786 0.177066
H56   H     H_    0.846898 0.449191 0.314346 0.127698
N12   N     N_2   0.274386 0.375821 0.139045 -0.490644
H57   H     H_    0.238487 0.421511 0.147661 0.276464
C108  C     C_3   0.247497 0.281001 0.165013 -0.272795
H58   H     H_    0.157757 0.235771 0.171275 0.123809
H59   H     H_    0.292392 0.306929 0.195386 0.139896
H60   H     H_    0.269307 0.224422 0.148637 0.153825
N13   N     N_2   0.966513 0.674643 0.071421 -0.505216
H61   H     H_    0.911083 0.646343 0.046859 0.255148
C109  C     C_3   0.054573 0.787139 0.066958 -0.292741
H62   H     H_    0.062739 0.811251 0.033504 0.107960
H63   H     H_    0.134629 0.798031 0.078152 0.168086
H64   H     H_    0.034384 0.842339 0.085124 0.160652
N14   N     N_2   0.705251 0.068446 0.424657 -0.508406
H65   H     H_    0.722592 0.046571 0.453396 0.231964
C110  C     C_3   0.746050 0.185588 0.421179 -0.292229
H66   H     H_    0.698114 0.210181 0.441790 0.118721
H67   H     H_    0.740296 0.208216 0.388227 0.178131
H68   H     H_    0.833763 0.231540 0.430974 0.144582
N15   N     N_2   0.330276 0.327046 0.062260 -0.496059
H69   H     H_    0.357658 0.280650 0.046764 0.247754
C111  C     C_3   0.267210 0.358985 0.035668 -0.315870
H70   H     H_    0.316879 0.407944 0.008541 0.133377
H71   H     H_    0.239618 0.408912 0.053544 0.162998
H72   H     H_    0.194349 0.283593 0.023684 0.125555
N16   N     N_2   0.920346 0.615509 0.425694 -0.495437
H73   H     H_    0.873404 0.571007 0.450929 0.238196
C112  C     C_3   0.968413 0.733006 0.431578 -0.300603
H74   H     H_    0.029920 0.761519 0.457414 0.123444
H75   H     H_    0.903155 0.752417 0.439970 0.130394
H76   H     H_    0.008478 0.777731 0.402246 0.172198
N17   N     N_2   0.643734 0.925084 0.060254 -0.527243
H77   H     H_    0.617818 0.881834 0.032503 0.242380
C113  C     C_3   0.748396 0.025066 0.056609 -0.306465
H78   H     H_    0.740147 0.085841 0.036688 0.185660
H79   H     H_    0.809157 0.006047 0.042351 0.118948
H80   H     H_    0.779753 0.060740 0.088053 0.149131
N18   N     N_2   0.313188 0.298091 0.427545 -0.502694
H81   H     H_    0.285702 0.300661 0.457258 0.236381
C114  C     C_3   0.331473 0.206101 0.420591 -0.281006
H82   H     H_    0.341615 0.173929 0.451111 0.111542
H83   H     H_    0.406122 0.229658 0.401464 0.148849
H84   H     H_    0.259105 0.139397 0.404122 0.161612
N19   N     N_2   0.625974 0.910461 0.581496 -0.531579
H85   H     H_    0.667058 0.929758 0.553259 0.242568
C115  C     C_3   0.553331 0.793384 0.587777 -0.302179
H86   H     H_    0.532882 0.749649 0.557184 0.137548
H87   H     H_    0.474924 0.775368 0.603081 0.142664
H88   H     H_    0.595307 0.760661 0.607886 0.154622
N20   N     N_2   0.934262 0.656308 0.938125 -0.514699
H89   H     H_    0.887655 0.630793 0.965055 0.246512
C116  C     C_3   0.035771 0.758998 0.943715 -0.312350
H90   H     H_    0.092241 0.746679 0.964694 0.134289
H91   H     H_    0.018033 0.820694 0.958119 0.121996
H92   H     H_    0.075787 0.791903 0.913006 0.198396
N21   N     N_2   0.304617 0.305555 0.569848 -0.541744
H93   H     H_    0.312611 0.271371 0.542367 0.242368
C117  C     C_3   0.223242 0.340075 0.566379 -0.304971
H94   H     H_    0.251348 0.410098 0.544188 0.147139
H95   H     H_    0.207579 0.365065 0.597443 0.162927
H96   H     H_    0.144796 0.270564 0.554480 0.151915
N22   N     N_2   0.704209 0.065646 0.944844 -0.502762
H97   H     H_    0.759777 0.148731 0.947323 0.273313
C118  C     C_3   0.754963 0.997724 0.940312 -0.308488
H98   H     H_    0.756614 0.961971 0.971087 0.140927
H99   H     H_    0.840942 0.048349 0.929238 0.123409
H100  H     H_    0.709471 0.928935 0.917760 0.142471
N23   N     N_2   0.084797 0.719077 0.581478 -0.526450
H101  H     H_    0.056390 0.734767 0.553879 0.242204
C119  C     C_3   0.203051 0.766314 0.581700 -0.304094
H102  H     H_    0.228223 0.725769 0.557669 0.148521
H103  H     H_    0.232227 0.756873 0.613062 0.142933
H104  H     H_    0.242822 0.855610 0.574391 0.157228
N24   N     N_2   0.423336 0.263205 0.948117 -0.525191
H105  H     H_    0.462648 0.264305 0.975685 0.259211
C120  C     C_3   0.304690 0.209931 0.951524 -0.323007
H106  H     H_    0.279080 0.185546 0.984463 0.128518
H107  H     H_    0.266513 0.133688 0.932309 0.151923
H108  H     H_    0.273004 0.264947 0.941148 0.138354
N25   N     N_2   0.924555 0.308358 0.071476 -0.506110
H109  H     H_    0.874886 0.246909 0.092017 0.238686
C121  C     C_3   0.002996 0.285426 0.051438 -0.317722
H110  H     H_    0.054296 0.274565 0.075559 0.145343
H111  H     H_    0.055773 0.353503 0.029883 0.178257
H112  H     H_    0.959032 0.208645 0.032725 0.142692
N26   N     N_2   0.308238 0.853457 0.454084 -0.519164
H113  H     H_    0.243081 0.778771 0.444774 0.250242
C122  C     C_3   0.271971 0.929688 0.466321 -0.311296
H114  H     H_    0.233161 0.947443 0.439188 0.122280
H115  H     H_    0.342110 0.007793 0.477977 0.193310
H116  H     H_    0.210817 0.892944 0.491928 0.136700
N27   N     N_2   0.712499 0.624432 0.080635 -0.513703
H117  H     H_    0.772769 0.651393 0.103469 0.263412
C123  C     C_3   0.729574 0.709273 0.050467 -0.293941
H118  H     H_    0.790432 0.791731 0.062856 0.122989
H119  H     H_    0.652265 0.710096 0.043199 0.162413
H120  H     H_    0.762233 0.694810 0.020959 0.169705
N28   N     N_2   0.189377 0.493924 0.454824 -0.521034
H121  H     H_    0.205668 0.434213 0.443799 0.257890
C124  C     C_3   0.287056 0.588251 0.471366 -0.310516
H122  H     H_    0.328459 0.560249 0.493920 0.131096
H123  H     H_    0.265460 0.644028 0.488357 0.170208
H124  H     H_    0.345098 0.634063 0.445536 0.151318
N29   N     N_2   0.357178 0.031492 0.062525 -0.513599
H125  H     H_    0.323996 0.064518 0.082833 0.245354
C125  C     C_3   0.291883 0.983388 0.025061 -0.318788
H126  H     H_    0.216078 0.989776 0.026244 0.112697
H127  H     H_    0.268137 0.895255 0.021719 0.133964
H128  H     H_    0.338963 0.030346 0.997170 0.177579
N30   N     N_2   0.637059 0.667496 0.444524 -0.494549
H129  H     H_    0.711583 0.710210 0.429396 0.242860
C126  C     C_3   0.606296 0.741282 0.464258 -0.294918
H130  H     H_    0.674457 0.800246 0.484764 0.141729
H131  H     H_    0.532267 0.694462 0.483972 0.157888
H132  H     H_    0.589478 0.788407 0.440079 0.134741
N31   N     N_2   0.446271 0.126559 0.545819 -0.528018
H133  H     H_    0.379999 0.132049 0.556797 0.250457
C127  C     C_3   0.527152 0.227817 0.526124 -0.321808
H134  H     H_    0.485938 0.255611 0.503375 0.138301
H135  H     H_    0.588093 0.214677 0.508759 0.148603
H136  H     H_    0.570061 0.293434 0.550081 0.147918
N32   N     N_2   0.998127 0.340900 0.940970 -0.510436
H137  H     H_    0.957025 0.261318 0.929615 0.247011
C128  C     C_3   0.115031 0.381673 0.944215 -0.333751
H138  H     H_    0.129195 0.320416 0.960998 0.116406
H139  H     H_    0.155741 0.460550 0.961943 0.152035
H140  H     H_    0.152181 0.394338 0.912506 0.135486
N33   N     N_2   0.675938 0.625634 0.554092 -0.500025
H141  H     H_    0.719759 0.701905 0.568176 0.240531
C129  C     C_3   0.747903 0.589507 0.536586 -0.290267
H142  H     H_    0.808666 0.654469 0.515598 0.143277
H143  H     H_    0.700207 0.513129 0.517834 0.159000
H144  H     H_    0.792977 0.574016 0.562062 0.134983
N34   N     N_2   0.307593 0.862299 0.916930 -0.533073
H145  H     H_    0.293787 0.854145 0.948763 0.241353
C130  C     C_3   0.268844 0.756769 0.896560 -0.318054
H146  H     H_    0.185281 0.696952 0.907775 0.149022
H147  H     H_    0.324290 0.723445 0.904062 0.134034
H148  H     H_    0.264751 0.765002 0.862037 0.155056
N35   N     N_2   0.924480 0.322671 0.550232 -0.518919
H149  H     H_    0.981047 0.342082 0.526538 0.266150
C131  C     C_3   0.811996 0.261747 0.535536 -0.311231
H150  H     H_    0.800319 0.190115 0.516619 0.140734
H151  H     H_    0.792915 0.315486 0.515660 0.130341
H152  H     H_    0.754210 0.230280 0.562407 0.162292
N36   N     N_2   0.629421 0.667672 0.938018 -0.521669
H153  H     H_    0.693757 0.729170 0.921429 0.236656
C132  C     C_3   0.550199 0.699590 0.950848 -0.318393
H154  H     H_    0.592349 0.777122 0.969106 0.132421
H155  H     H_    0.485927 0.635695 0.971179 0.151936
H156  H     H_    0.510702 0.712972 0.922863 0.137299

loop_
_geom_bond_atom_site_label_1
_geom_bond_atom_site_label_2
_ccdc_geom_bond_type
N20   C116  S    
C82   C94   A    
C18   C21   T    
N11   C107  S    
N26   H113  S    
C35   C47   A    
C132  H156  S    
C29   C89   A    
C74   N31   S    
N28   C124  S    
N33   H141  S    
C120  H108  S    
C107  H55   S    
C45   C57   A    
C7    O19   A    
C49   N20   S    
C28   C40   A    
C97   H14   S    
C33   C45   A    
N27   C123  S    
C106  H51   S    
C119  H102  S    
Cr2   O17   S    
C9    O7    A    
N4    C100  S    
Cr1   O1    S    
N29   C125  S    
C114  H82   S    
C99   H24   S    
C7    C33   S    
C16   C71   S    
C132  H155  S    
C132  H154  S    
N13   C109  S    
C65   C77   A    
Cr3   O15   S    
C127  H134  S    
C117  H94   S    
C67   C79   A    
C6    O18   A    
C85   H8    S    
C129  H143  S    
Cr5   O23   S    
C26   C38   A    
C4    O16   A    
Cr4   O10   S    
C80   C92   A    
C126  H132  S    
N8    H41   S    
N6    C102  S    
N28   H121  S    
C77   C89   A    
C51   N24   S    
C72   C84   A    
C102  H35   S    
C5    C25   S    
C8    O12   A    
C23   C64   S    
C24   C63   S    
C118  H99   S    
C77   N34   S    
Cr6   O9    S    
C117  H95   S    
C13   C20   T    
C3    O15   A    
C14   C19   T    
C34   C94   A    
C10   O8    A    
C83   N28   S    
C122  H116  S    
Cr5   O8    S    
C105  H48   S    
N25   C121  S    
Cr5   O20   S    
C32   C92   A    
N24   C120  S    
C70   C82   A    
C47   C59   A    
N10   H49   S    
N27   H117  S    
N31   H133  S    
C114  H84   S    
C99   H22   S    
C60   C72   A    
C39   C51   A    
C21   C66   S    
C40   N4    S    
N36   H153  S    
C59   N16   S    
C101  H31   S    
C15   C72   S    
N19   H85   S    
C110  H66   S    
C31   C43   A    
N26   C122  S    
C98   H19   S    
N21   H93   S    
C104  H43   S    
C131  H151  S    
C58   C70   A    
C116  H90   S    
C20   C61   S    
C3    C29   S    
Cr6   O21   S    
N7    C103  S    
Cr5   O11   S    
C14   C67   S    
C34   C46   A    
C53   C65   A    
C112  H74   S    
C79   C91   A    
C18   C69   S    
N5    C101  S    
N17   H77   S    
C46   C58   A    
C128  H139  S    
Cr3   O25   S    
C90   H9    S    
C25   C85   A    
N23   H101  S    
C71   C83   A    
C130  H147  S    
C64   C76   A    
N15   C111  S    
C94   H5    S    
C8    O20   A    
C119  H104  S    
C109  H64   S    
N32   C128  S    
C2    O6    A    
C115  H88   S    
C55   N14   S    
C56   C68   A    
C129  H142  S    
C127  H135  S    
C22   C65   S    
C122  H114  S    
C95   H4    S    
Cr3   O3    S    
C123  H119  S    
C73   C85   A    
C121  H111  S    
C108  H58   S    
C78   N33   S    
C75   N36   S    
C113  H79   S    
C8    C34   S    
C27   C87   A    
C44   N8    S    
C41   C53   A    
C73   N32   S    
C75   C87   A    
C15   C24   T    
C111  H71   S    
C124  H122  S    
C16   C23   T    
C31   C91   A    
C125  H127  S    
C12   O24   A    
N35   C131  S    
C9    O21   A    
C84   N27   S    
C43   C55   A    
N14   H65   S    
C29   C41   A    
C54   N21   S    
C30   C42   A    
Cr6   O12   S    
N22   H97   S    
C54   C66   A    
C120  H107  S    
N11   H53   S    
Cr2   O25   S    
C116  H92   S    
C131  H152  S    
C82   N29   S    
C6    C26   S    
C63   C75   A    
N23   C119  S    
C36   C48   A    
C106  H50   S    
C123  H120  S    
C42   N6    S    
N12   C108  S    
Cr1   O25   S    
Cr4   O22   S    
N10   C106  S    
C13   C68   S    
C97   H16   S    
C96   H3    S    
C99   H23   S    
C113  H78   S    
C30   C90   A    
C100  H26   S    
C115  H86   S    
N13   H61   S    
C78   C90   A    
C89   H10   S    
C37   N1    S    
Cr3   O18   S    
C39   N3    S    
N2    C98   S    
Cr1   O16   S    
C110  H68   S    
N1    C97   S    
C93   H6    S    
C102  H36   S    
N18   H81   S    
C108  H60   S    
Cr4   O7    S    
C1    O5    A    
C126  H131  S    
C100  H27   S    
N2    H17   S    
N24   H105  S    
N3    C99   S    
C58   N17   S    
C103  H40   S    
Cr2   O14   S    
N30   H129  S    
C118  H98   S    
N33   C129  S    
C66   C78   A    
C107  H56   S    
C49   C61   A    
N12   H57   S    
Cr2   O5    S    
C86   H7    S    
C51   C63   A    
N18   C114  S    
C52   C64   A    
C101  H30   S    
C61   C73   A    
C102  H34   S    
C105  H46   S    
C106  H52   S    
C123  H118  S    
C105  H47   S    
N25   H109  S    
C37   C49   A    
C44   C56   A    
N34   H145  S    
C121  H112  S    
N16   C112  S    
Cr6   O26   S    
C7    O11   A    
C114  H83   S    
C131  H150  S    
C100  H28   S    
C43   N7    S    
C4    O2    A    
C11   O9    A    
C33   C93   A    
C129  H144  S    
N36   C132  S    
N30   C126  S    
C35   C95   A    
C17   C22   T    
C76   N35   S    
C109  H63   S    
C11   O23   A    
N32   H137  S    
C57   N18   S    
C3    O1    A    
C98   H18   S    
C42   C54   A    
N22   C118  S    
C104  H42   S    
C48   N12   S    
C109  H62   S    
N9    H45   S    
C38   N2    S    
C69   C81   A    
C103  H38   S    
C5    O17   A    
C122  H115  S    
N7    H37   S    
C118  H100  S    
C9    C35   S    
C62   C74   A    
C10   C36   S    
C79   N26   S    
C2    O14   A    
C68   C80   A    
C117  H96   S    
N6    H33   S    
N5    H29   S    
C128  H138  S    
C91   H2    S    
Cr1   O13   S    
C46   N10   S    
N29   H125  S    
C80   N25   S    
C119  H103  S    
C10   O22   A    
N8    C104  S    
C84   C96   A    
C115  H87   S    
C19   C62   S    
C88   H11   S    
C53   N22   S    
C47   N11   S    
N9    C105  S    
C60   N15   S    
Cr6   O24   S    
Cr1   O4    S    
C111  H70   S    
C87   H12   S    
Cr4   O26   S    
C92   H1    S    
C25   C37   A    
Cr3   O6    S    
C81   N30   S    
N4    H25   S    
C27   C39   A    
N31   C127  S    
C41   N5    S    
C28   C88   A    
C76   C88   A    
C11   C31   S    
C17   C70   S    
C12   C32   S    
C112  H76   S    
Cr5   O26   S    
C48   C60   A    
C101  H32   S    
N19   C115  S    
C98   H20   S    
N21   C117  S    
C104  H44   S    
C125  H126  S    
C124  H123  S    
C120  H106  S    
C40   C52   A    
C5    O3    A    
C116  H91   S    
N14   C110  S    
C81   C93   A    
C36   C96   A    
Cr2   O2    S    
C12   O10   A    
C26   C86   A    
C124  H124  S    
C83   C95   A    
N15   H69   S    
C32   C44   A    
C74   C86   A    
C112  H75   S    
C56   N13   S    
C50   N19   S    
C45   N9    S    
N34   C130  S    
N17   C113  S    
C121  H110  S    
C50   C62   A    
C128  H140  S    
N20   H89   S    
Cr4   O19   S    
C130  H148  S    
C97   H15   S    
C1    O13   A    
C55   C67   A    
C52   N23   S    
C38   C50   A    
C127  H136  S    
N35   H149  S    
C110  H67   S    
N1    H13   S    
C108  H59   S    
C113  H80   S    
C126  H130  S    
C111  H72   S    
C125  H128  S    
N16   H73   S    
C1    C27   S    
C130  H146  S    
C2    C28   S    
C107  H54   S    
C57   C69   A    
N3    H21   S    
C6    O4    A    
C4    C30   S    
C59   C71   A    
C103  H39   S    
