data_mof_unit_66984.cif
_audit_creation_date              2013-03-05T15:58:12-0500
_audit_creation_method            fapswitch 2.2
_symmetry_space_group_name_H-M    P1
_symmetry_Int_Tables_number       1
_space_group_crystal_system       triclinic
_cell_length_a                    8.207553
_cell_length_b                    12.707444
_cell_length_c                    14.370444
_cell_angle_alpha                 93.112692
_cell_angle_beta                  91.076808
_cell_angle_gamma                 98.209645
_cell_volume                      1480.71212293

loop_
_atom_site_label
_atom_site_type_symbol
_atom_site_description
_atom_site_fract_x
_atom_site_fract_y
_atom_site_fract_z
_atom_type_partial_charge
P1    P     P_3+3 0.054400 0.427280 0.286870 0.517817
O1    O     O_2   0.887370 0.460630 0.272300 -0.311526
O2    O     O_3   0.129410 0.451380 0.388510 -0.428908
O3    O     O_3   0.670210 0.653170 0.329170 -0.406552
O4    O     O_2   0.785904 0.586254 0.166667 -0.286909
O5    O     O_3   0.019228 0.288517 0.269494 -0.526838
O6    O     O_3   0.712051 0.777112 0.169913 -0.470199
H1    H     H_    0.745160 0.871280 0.292456 0.134445
C1    C     C_3   0.636971 0.951135 0.183186 -0.957065
H2    H     H_    0.599985 0.012911 0.233237 0.240005
H3    H     H_    0.755388 0.982369 0.151590 0.285874
P2    P     P_3+3 0.668300 0.742890 0.573060 0.474677
P3    P     P_3+3 0.134845 0.843134 0.376827 0.523382
O7    O     O_2   0.845380 0.761330 0.544970 -0.318622
O8    O     O_3   0.088930 0.704860 0.376040 -0.330421
O9    O     O_2   0.023673 0.886693 0.450595 -0.328657
O10   O     O_3   0.686494 0.763596 0.694809 -0.576006
O11   O     O_3   0.062231 0.889864 0.273350 -0.577408
C2    C     C_3   0.176187 0.886207 0.201547 0.925841
H4    H     H_    0.298994 0.872155 0.226545 -0.149995
C3    C     C_3   0.201069 0.994159 0.157441 -1.016362
H5    H     H_    0.080860 0.017496 0.136512 0.285257
H6    H     H_    0.264958 0.055234 0.208889 0.243086
C4    C     C_3   0.276293 0.775371 0.737223 0.872291
H7    H     H_    0.367459 0.737754 0.695288 0.002864
C5    C     C_3   0.350421 0.814870 0.834671 -1.057250
H8    H     H_    0.485882 0.813425 0.835693 0.238765
H9    H     H_    0.329071 0.899283 0.852321 0.281570
H10   H     H_    0.292686 0.765747 0.892030 0.275270
Ba1   Ba    Ba6+2 0.855630 0.555280 0.454520 1.634947
C6    C     C_3   0.965279 0.240108 0.350488 0.412854
H11   H     H_    0.838849 0.255493 0.362835 0.092880
H12   H     H_    0.045835 0.268353 0.412309 0.126349
C7    C     C_3   0.967543 0.121166 0.334634 -0.892050
H13   H     H_    0.904623 0.092147 0.267423 0.276087
H14   H     H_    0.904936 0.076505 0.390782 0.222631
H15   H     H_    0.096778 0.105357 0.332846 0.257597
C8    C     C_3   0.720275 0.670174 0.734144 0.387577
H16   H     H_    0.822968 0.639236 0.698102 0.129964
H17   H     H_    0.609821 0.608357 0.728685 0.109244
C9    C     C_3   0.769170 0.694593 0.837078 -0.863383
H18   H     H_    0.869316 0.763562 0.845170 0.311868
H19   H     H_    0.812357 0.625104 0.867498 0.215916
H20   H     H_    0.662263 0.712011 0.877965 0.225493
P4    P     P_3+3 0.135310 0.572810 0.713130 0.464209
O12   O     O_2   0.302330 0.539400 0.727760 -0.416563
O13   O     O_3   0.060300 0.548700 0.611500 -0.372120
O14   O     O_3   0.519500 0.346920 0.670840 -0.377339
O15   O     O_3   0.130992 0.706266 0.748622 -0.598220
P5    P     P_3+3 0.061838 0.156645 0.624331 0.504421
O16   O     O_3   0.614310 0.373510 0.452640 -0.400543
O17   O     O_3   0.100780 0.295230 0.623970 -0.411643
O18   O     O_2   0.194028 0.112516 0.564374 -0.332604
O19   O     O_3   0.105465 0.121114 0.736761 -0.461226
Ba2   Ba    Ba6+2 0.334200 0.444810 0.545490 1.572297
P6    P     P_3+3 0.652966 0.648821 0.206971 0.525312
C10   C     C_3   0.655112 0.850935 0.233242 0.458751
H21   H     H_    0.533924 0.820214 0.261647 0.003841
H22   H     H_    0.541644 0.932386 0.126369 0.256864
O20   O     O_3   0.575400 0.626570 0.547370 -0.412291
C11   C     C_3   0.453452 0.304732 0.261891 0.460718
H23   H     H_    0.349489 0.331315 0.300276 0.081055
H24   H     H_    0.555758 0.372111 0.262898 0.134324
C12   C     C_3   0.394599 0.273510 0.161546 -0.915500
H25   H     H_    0.267213 0.230419 0.160127 0.265666
H26   H     H_    0.395563 0.345516 0.121217 0.220428
H27   H     H_    0.475828 0.221383 0.127055 0.301184
P7    P     P_3+3 0.526038 0.241234 0.422508 0.408583
O21   O     O_2   0.344320 0.238700 0.455090 -0.380572
O22   O     O_3   0.508344 0.217063 0.301437 -0.585928
H28   H     H_    0.278537 0.991480 0.095083 0.248156
C13   C     C_3   0.061473 0.198144 0.801345 0.433595
H29   H     H_    0.140502 0.275658 0.794979 0.148206
H30   H     H_    0.930523 0.208769 0.791554 0.005490
C14   C     C_3   0.087125 0.162106 0.898814 -0.839379
H31   H     H_    0.221067 0.162947 0.914202 0.278949
H32   H     H_    0.038931 0.217936 0.949814 0.238068
H33   H     H_    0.020906 0.079665 0.905637 0.271204
P8    P     P_3+3 0.537684 0.340284 0.790066 0.448099
C15   C     C_3   0.552565 0.141911 0.749053 0.492777
H34   H     H_    0.663696 0.183113 0.715914 0.019431
O23   O     O_2   0.407625 0.401674 0.835842 -0.408227
O24   O     O_3   0.484341 0.207104 0.816109 -0.526603
H35   H     H_    0.457886 0.114504 0.693102 0.147097
H36   H     H_    0.740081 0.055456 0.806741 0.249936
C16   C     C_3   0.603681 0.045406 0.794452 -0.978096
H37   H     H_    0.568421 0.972715 0.747102 0.243847
H38   H     H_    0.544322 0.034366 0.863146 0.285031
C17   C     C_R   0.990690 0.422308 0.052540 0.347346
C18   C     C_R   0.182000 0.488782 0.192408 0.300745
C19   C     C_R   0.334807 0.543590 0.223035 -0.469657
C20   C     C_R   0.447927 0.589062 0.161042 0.228615
C21   C     C_R   0.404817 0.588742 0.066495 -0.227072
C22   C     C_R   0.249815 0.537772 0.032162 0.095045
C23   C     C_R   0.138475 0.481097 0.093571 -0.122197
H39   H     H_    0.369206 0.547590 0.296375 0.150787
C24   C     C_R   0.058368 0.489674 0.896908 -0.041489
C25   C     C_R   0.948180 0.431465 0.957141 -0.084585
C26   C     C_R   0.013211 0.491177 0.799149 0.284914
C27   C     C_R   0.858945 0.439682 0.767516 -0.526711
C28   C     C_R   0.746947 0.392528 0.829511 0.223523
C29   C     C_R   0.792978 0.383664 0.921258 -0.229014
C30   C     C_R   0.208364 0.542466 0.936549 -0.097103
H40   H     H_    0.492749 0.628053 0.019672 0.139851
H41   H     H_    0.702865 0.340042 0.963677 0.208118
H42   H     H_    0.821350 0.442460 0.695229 0.173123
H43   H     H_    0.295728 0.587780 0.893573 0.148505
C31   C     C_R   0.763722 0.176239 0.536658 -0.533056
C32   C     C_R   0.438112 0.812524 0.454867 -0.359111
C33   C     C_R   0.411886 0.993869 0.423832 -0.207150
C34   C     C_R   0.349905 0.886332 0.416034 0.213640
C35   C     C_R   0.579514 0.846180 0.510668 0.254751
C36   C     C_R   0.643528 0.956777 0.520769 -0.091687
C37   C     C_R   0.558498 0.030899 0.475252 -0.026693
C38   C     C_R   0.619788 0.140761 0.484462 0.254609
C39   C     C_R   0.853610 0.104692 0.576747 0.201675
C40   C     C_R   0.790871 0.995948 0.572601 -0.174652
H44   H     H_    0.339841 0.047696 0.392399 0.162872
H45   H     H_    0.860978 0.943661 0.607997 0.230473
H46   H     H_    0.811623 0.260298 0.541390 0.169345
H47   H     H_    0.387057 0.728996 0.449437 0.160511
N1    N     N_R   0.112823 0.799830 0.133280 0.238819
O25   O     O_R   0.093665 0.702702 0.159561 -0.392925
O26   O     O_R   0.067671 0.817622 0.048525 -0.397404
N2    N     N_R   0.888104 0.345847 0.103183 0.244708
O27   O     O_R   0.742320 0.365076 0.125706 -0.419007
O28   O     O_R   0.915066 0.247381 0.097780 -0.421857
N3    N     N_R   0.228175 0.865454 0.689439 0.212926
O29   O     O_R   0.234923 0.862726 0.598893 -0.431835
O30   O     O_R   0.118767 0.917380 0.728046 -0.348774

loop_
_geom_bond_atom_site_label_1
_geom_bond_atom_site_label_2
_geom_bond_distance
_ccdc_geom_bond_type
C11   O22   1.403395 S    
O14   Ba2   2.790315 S    
C8    H17   1.110101 S    
Ba1   O16   2.818449 S    
C2    N1    1.462370 S    
C21   C22   1.409882 A    
C11   C12   1.525465 S    
C7    H15   1.107892 S    
C9    H18   1.112131 S    
C31   H46   1.082299 S    
O4    P6    1.542588 D    
C2    H4    1.105286 S    
C15   H35   1.113749 S    
N3    O29   1.302185 A    
C33   H44   1.077303 S    
C37   C38   1.412954 A    
C10   H21   1.109067 S    
C18   C23   1.452727 A    
C17   N2    1.431360 S    
P4    O12   1.506215 D    
C5    H8    1.114411 S    
P5    O19   1.745320 S    
P3    O11   1.755747 S    
C3    H28   1.110285 S    
O14   P8    1.724691 S    
O13   Ba2   2.913443 S    
C2    C3    1.531176 S    
C4    C5    1.545169 S    
O11   C2    1.408942 S    
C32   C34   1.396713 A    
H36   C16   1.118067 S    
C8    H16   1.105512 S    
C16   H38   1.115844 S    
C39   C40   1.401759 A    
C29   H41   1.078155 S    
C7    H13   1.106225 S    
C11   H24   1.109623 S    
C33   C34   1.386149 A    
P1    Ba1   3.404622 S    
C15   C16   1.526132 S    
C19   H39   1.082575 S    
O2    Ba2   2.799843 S    
C26   C27   1.395494 A    
P7    O21   1.568082 D    
Ba1   O20   2.910356 S    
O12   Ba2   2.854396 S    
P5    O17   1.744662 S    
C6    H12   1.109377 S    
C1    H2    1.113848 S    
C33   C37   1.408026 A    
C1    C10   1.520019 S    
O17   Ba2   2.798074 S    
O10   C8    1.402395 S    
O5    C6    1.395891 S    
Ba2   O20   2.817781 S    
O3    P6    1.756335 S    
C9    H19   1.105429 S    
C11   H23   1.107362 S    
O6    P6    1.747772 S    
O7    Ba1   2.872255 S    
C13   C14   1.517244 S    
C21   H40   1.083948 S    
C35   C36   1.427024 A    
C24   C26   1.447982 A    
C24   C25   1.422029 A    
P4    O13   1.571496 S    
C3    H6    1.109420 S    
P5    O18   1.546085 D    
P1    O5    1.749027 S    
C28   C29   1.379604 A    
Ba1   O13   2.799282 S    
C4    H7    1.113262 S    
C8    C9    1.528944 S    
C13   H30   1.109505 S    
P4    C26   1.870115 S    
C32   C35   1.399596 A    
C19   C20   1.386832 A    
C16   H37   1.117136 S    
C13   H29   1.108540 S    
O16   Ba2   2.909576 S    
C25   C29   1.406352 A    
C1    H22   1.112294 S    
C12   H26   1.108548 S    
C17   C23   1.429517 A    
O2    Ba1   2.912682 S    
C14   H31   1.115710 S    
C12   H27   1.109872 S    
H1    C10   1.111331 S    
C1    H3    1.110993 S    
C6    H11   1.098897 S    
P4    O15   1.749668 S    
C6    C7    1.519049 S    
C24   C30   1.409404 A    
N2    O28   1.299930 A    
C20   C21   1.397193 A    
C14   H32   1.109720 S    
Ba2   O21   2.872464 S    
C36   C40   1.420924 A    
P2    O7    1.505081 D    
C22   C30   1.415742 A    
P3    O8    1.743034 S    
N2    O27   1.298312 A    
C9    H20   1.106731 S    
N1    O26   1.307194 A    
P1    C18   1.866867 S    
P2    C35   1.853135 S    
C31   C38   1.392594 A    
O8    Ba1   2.797488 S    
C15   O24   1.412265 S    
C36   C37   1.428125 A    
C4    O15   1.394294 S    
P2    Ba1   3.413752 S    
C27   H42   1.081945 S    
C15   H34   1.113498 S    
N3    O30   1.302980 A    
P8    O23   1.545732 D    
Ba1   Ba2   4.548510 S    
C5    H9    1.127599 S    
C17   C25   1.423255 A    
O1    Ba1   2.853867 S    
C12   H25   1.108094 S    
C31   C39   1.391131 A    
C40   H45   1.079899 S    
P3    C34   1.840306 S    
P2    O10   1.755439 S    
P8    O24   1.749055 S    
C32   H47   1.082148 S    
C18   C19   1.395792 A    
P1    O1    1.505855 D    
C27   C28   1.388946 A    
C7    H14   1.104171 S    
P5    C39   1.846360 S    
O16   P7    1.760443 S    
C22   C23   1.429644 A    
C14   H33   1.119400 S    
P7    C38   1.842031 S    
P2    O20   1.584557 S    
P6    C20   1.839344 S    
O19   C13   1.401703 S    
P4    Ba2   3.405075 S    
C5    H10   1.131245 S    
P7    O22   1.749922 S    
P3    O9    1.542602 D    
C4    N3    1.463620 S    
P8    C28   1.819027 S    
C30   H43   1.079105 S    
P1    O2    1.571616 S    
N1    O25   1.299287 A    
C3    H5    1.110817 S    
O6    C10   1.405390 S    
O3    Ba1   2.790903 S    
