data_mof_unit_18081.cif
_audit_creation_date              2012-12-11T17:01:31-0500
_audit_creation_method            fapswitch 2.2
_symmetry_space_group_name_H-M    P1
_symmetry_Int_Tables_number       1
_space_group_crystal_system       triclinic
_cell_length_a                    15.220282
_cell_length_b                    14.936123
_cell_length_c                    14.853247
_cell_angle_alpha                 109.245067
_cell_angle_beta                  109.135306
_cell_angle_gamma                 110.468389
_cell_volume                      2584.94628156

loop_
_atom_site_label
_atom_site_type_symbol
_atom_type_description
_atom_site_fract_x
_atom_site_fract_y
_atom_site_fract_z
_atom_type_partial_charge
C1    C     C_R   0.999468 0.801203 0.093126 -0.055328
C2    C     C_R   0.222844 0.752508 0.315887 -0.118284
C3    C     C_R   0.903243 0.410510 0.209533 0.598283
C4    C     C_R   0.792696 0.193929 0.702495 -0.027577
C5    C     C_R   0.306045 0.591133 0.009664 -0.071396
C6    C     C_R   0.930623 0.503202 0.301364 -0.276615
C7    C     C_R   0.311570 0.498051 0.964489 0.105950
C8    C     C_R   0.324399 0.778981 0.326089 0.050087
C9    C     C_R   0.049167 0.227959 0.054596 0.041782
C10   C     C_3   0.488821 0.372400 0.953931 0.773173
C11   C     C_3   0.385540 0.375652 0.931923 -0.619878
C12   C     C_R   0.698488 0.131220 0.698480 0.006314
C13   C     C_3   0.589602 0.545397 0.141171 -0.055975
C14   C     C_3   0.576274 0.562764 0.972063 -0.308016
C15   C     C_3   0.589275 0.494368 0.030597 -0.059654
C16   C     C_R   0.025114 0.593275 0.779506 -0.245099
C17   C     C_3   0.411266 0.496454 0.988373 0.038106
C18   C     C_3   0.486825 0.554234 0.116606 0.744993
C19   C     C_3   0.468394 0.557752 0.940973 -0.364283
C20   C     C_R   0.620659 0.965801 0.520035 0.039705
C21   C     C_R   0.619852 0.014649 0.617647 0.105689
C22   C     C_R   0.530316 0.955275 0.625534 -0.121266
C23   C     C_R   0.952024 0.502826 0.674994 -0.082455
C24   C     C_R   0.434396 0.865727 0.529850 -0.170567
C25   C     C_R   0.428341 0.836734 0.426872 0.092383
C26   C     C_R   0.525664 0.879474 0.425426 0.012930
C27   C     C_3   0.556250 0.923058 0.355737 0.588369
C28   C     C_R   0.696731 0.405930 0.993576 0.000989
C29   C     C_3   0.660770 0.015808 0.458999 -0.553868
C30   C     C_R   0.955175 0.609804 0.483979 0.253102
C31   C     C_R   0.897274 0.510113 0.384105 0.087607
C32   C     C_R   0.822689 0.415297 0.376133 -0.145026
C33   C     C_R   0.828843 0.415181 0.472366 -0.167248
C34   C     C_R   0.690232 0.496596 0.045961 0.064462
C35   C     C_R   0.909479 0.509800 0.575590 0.063583
C36   C     C_R   0.961276 0.609569 0.578429 0.134011
C37   C     C_3   0.077494 0.701291 0.648047 -0.588788
C38   C     C_3   0.070911 0.701841 0.545102 -0.365366
C39   C     C_R   0.021445 0.013413 0.129770 -0.051582
C40   C     C_R   0.937667 0.409703 0.684496 0.712974
C41   C     C_R   0.082329 0.976552 0.093033 0.125384
C42   C     C_R   0.160827 0.047392 0.080315 -0.148562
C43   C     C_R   0.161436 0.142106 0.082784 -0.132105
C44   C     C_R   0.083602 0.165066 0.098042 0.120361
C45   C     C_R   0.992208 0.592675 0.297011 0.590429
C46   C     C_R   0.023921 0.107510 0.135163 -0.134327
C47   C     C_3   0.907612 0.061325 0.108221 0.635334
C48   C     C_3   0.905019 0.956977 0.101702 -0.045886
C49   C     C_R   0.786476 0.590515 0.084653 -0.044909
C50   C     C_R   0.699049 0.196236 0.790068 -0.045040
C51   C     C_R   0.090503 0.804396 0.002172 -0.115138
C52   C     C_R   0.056605 0.864181 0.060570 0.068987
C53   C     C_R   0.212187 0.406738 0.917292 -0.142972
C54   C     C_R   0.312058 0.747818 0.222326 0.015809
C55   C     C_R   0.978431 0.259104 0.071907 0.020299
C56   C     C_R   0.064224 0.249923 0.975152 -0.093696
F1    F     F_    0.823051 0.305859 0.166329 -0.697027
F2    F     F_    0.482797 0.324340 0.852809 -0.684735
F3    F     F_    0.516928 0.664686 0.164401 -0.707440
F4    F     F_    0.492477 0.962115 0.312962 -0.675093
F5    F     F_    0.839597 0.044252 0.007562 -0.638161
F6    F     F_    0.878881 0.303597 0.601365 -0.749042
F7    F     F_    0.003563 0.693639 0.344281 -0.705219
H1    H     H_    0.976627 0.828095 0.154146 0.113848
H2    H     H_    0.341196 0.328334 0.962232 0.177036
H3    H     H_    0.587051 0.488884 0.174531 0.125456
H4    H     H_    0.641772 0.651081 0.027233 0.196597
H5    H     H_    0.582299 0.531526 0.896390 0.217982
H6    H     H_    0.417317 0.514011 0.849631 0.188606
H7    H     H_    0.482785 0.643197 0.973435 0.203820
H8    H     H_    0.528977 0.985149 0.701734 0.142528
H9    H     H_    0.052446 0.678720 0.804316 0.161664
H10   H     H_    0.362807 0.829343 0.535772 0.126778
H11   H     H_    0.567247 0.867637 0.294835 0.116701
H12   H     H_    0.182741 0.321096 0.863484 0.113861
H13   H     H_    0.732587 0.011479 0.460267 0.190791
H14   H     H_    0.668701 0.098023 0.480446 0.262973
H15   H     H_    0.768606 0.338290 0.298948 0.229949
H16   H     H_    0.779379 0.338314 0.465844 0.211194
H17   H     H_    0.088556 0.778157 0.708342 0.217199
H18   H     H_    0.134303 0.675256 0.682547 0.218150
H19   H     H_    0.078506 0.779427 0.547332 0.248153
H20   H     H_    0.640723 0.319177 0.955824 0.170338
H21   H     H_    0.124035 0.676418 0.521230 0.170882
H22   H     H_    0.214028 0.024865 0.058094 0.140202
H23   H     H_    0.372912 0.752550 0.199919 0.129884
H24   H     H_    0.213816 0.189209 0.060583 0.146352
H25   H     H_    0.898286 0.107270 0.177010 0.015840
H26   H     H_    0.896894 0.945138 0.169237 0.077977
H27   H     H_    0.811138 0.676317 0.129403 0.145499
H28   H     H_    0.646040 0.169413 0.821254 0.123883
H29   H     H_    0.149676 0.835588 0.978730 0.101467
H30   H     H_    0.952691 0.257127 0.130977 0.141898
H31   H     H_    0.113068 0.233309 0.941197 0.105960
H32   H     H_    0.202608 0.764420 0.380464 0.144712
H33   H     H_    0.365563 0.675725 0.041199 0.142772
H34   H     H_    0.330979 0.334097 0.841308 0.244799
H35   H     H_    0.827893 0.162916 0.656859 0.161464
I1    I     I_    0.488006 0.261627 0.020882 -0.389989
I2    I     I_    0.406947 0.486735 0.195221 -0.408679
I3    I     I_    0.733581 0.698342 0.281121 -0.282819
I4    I     I_    0.790296 0.812856 0.939077 -0.304751
N1    N     N_R   0.995640 0.706130 0.053910 -0.044885
N2    N     N_R   0.054010 0.556790 0.847890 -0.078165
N3    N     N_R   0.789940 0.443190 0.997130 -0.071655
N4    N     N_R   0.997630 0.443170 0.791110 -0.110081
N5    N     N_R   0.846320 0.556810 0.053910 -0.059869
N6    N     N_R   0.791080 0.293860 0.847890 -0.056559
N7    N     N_R   0.052880 0.706130 0.997130 -0.043769
N8    N     N_R   0.002370 0.556830 0.208890 -0.141808
N9    N     N_R   0.153680 0.443190 0.946090 -0.044979
N10   N     N_R   0.208920 0.706140 0.152110 -0.061532
N11   N     N_R   0.947120 0.293870 0.002870 -0.046442
N12   N     N_R   0.004360 0.293870 0.946090 -0.057551
N13   N     N_R   0.151690 0.706140 0.208890 -0.043130
N14   N     N_R   0.945990 0.443210 0.152110 -0.152320
N15   N     N_R   0.210060 0.556810 0.002870 -0.057584
N16   N     N_R   0.848310 0.293860 0.791110 -0.060649
Ni1   Ni    Ni4+2 0.999010 0.630300 0.130220 0.271166
Ni2   Ni    Ni4+2 0.000990 0.369700 0.869780 0.234966
Ni3   Ni    Ni4+2 0.130280 0.630280 0.000000 0.221271
Ni4   Ni    Ni4+2 0.869720 0.369720 0.000000 0.279130

loop_
_geom_bond_atom_site_label_1
_geom_bond_atom_site_label_2
_ccdc_geom_bond_type
C6    C45   A    
C4    H35   S    
C27   C29   S    
C41   C42   A    
C35   C36   A    
C16   H9    S    
C49   H27   S    
C55   H30   S    
C3    C6    A    
C4    N16   A    
N2    N4    A    
C39   C41   A    
C29   H13   S    
C56   H31   S    
N3    N5    A    
C26   C27   S    
N14   Ni4   S    
C13   C18   S    
C40   N4    A    
C36   C37   S    
C10   F2    S    
C3    N14   A    
C30   C31   A    
C24   H10   S    
N9    N15   A    
C9    C56   A    
C23   C40   A    
C40   F6    S    
C30   C38   S    
N15   Ni3   S    
C17   C19   S    
C16   N2    A    
N11   Ni4   S    
C31   C32   A    
C7    C17   S    
C14   H4    S    
C9    C55   A    
C4    C12   A    
C27   H11   S    
C1    N1    A    
C15   C34   S    
C20   C29   S    
C38   H21   S    
C53   N9    A    
C27   F4    S    
C28   C34   A    
C51   N7    A    
C21   C22   A    
C38   H19   S    
C28   H20   S    
C50   N6    A    
C8    C25   S    
C37   H18   S    
C53   H12   S    
C18   I2    S    
N5    Ni1   S    
C44   C46   A    
C13   H3    S    
C37   H17   S    
N1    Ni1   S    
C51   C52   A    
N6    N16   A    
C24   C25   A    
C49   N5    A    
C8    C54   A    
C5    C7    A    
C45   N8    A    
C33   H16   S    
N2    Ni3   S    
C55   N11   A    
C25   C26   A    
C12   C21   S    
C45   F7    S    
C5    N15   A    
N9    Ni2   S    
C43   C44   A    
C37   C38   S    
C51   H29   S    
C2    N13   A    
C18   F3    S    
C47   C48   S    
C28   N3    A    
C48   I4    S    
C17   C18   S    
C54   N10   A    
C42   H22   S    
C9    C44   S    
C39   C46   A    
C3    F1    S    
C16   C23   A    
C23   C35   S    
C48   H26   S    
C13   C15   S    
C22   C24   A    
C19   H6    S    
C42   C43   A    
C7    C53   A    
C13   I3    S    
C1    H1    S    
N8    N14   A    
C22   H8    S    
C5    H33   S    
C54   H23   S    
N11   N12   A    
C46   C47   S    
C11   C17   S    
C34   C49   A    
C14   H5    S    
C41   C52   S    
N4    Ni2   S    
C10   C15   S    
C14   C19   S    
C2    C8    A    
N6    Ni4   S    
C2    H32   S    
N8    Ni1   S    
C47   F5    S    
C12   C50   A    
C30   C36   A    
N13   Ni1   S    
C11   H34   S    
N1    N7    A    
C43   H24   S    
C32   C33   A    
N10   Ni3   S    
C47   H25   S    
N7    Ni3   S    
C20   C26   A    
C33   C35   A    
N3    Ni4   S    
C6    C31   S    
C10   I1    S    
C1    C52   A    
N16   Ni2   S    
C10   C11   S    
C32   H15   S    
C50   H28   S    
C29   H14   S    
C20   C21   A    
C56   N12   A    
C14   C15   S    
C19   H7    S    
N10   N13   A    
N12   Ni2   S    
C11   H2    S    
C39   C48   S    
