data_mof_unit_31413.cif
_audit_creation_date              2012-12-10T18:06:43-0500
_audit_creation_method            fapswitch 2.2
_symmetry_space_group_name_H-M    P1
_symmetry_Int_Tables_number       1
_space_group_crystal_system       triclinic
_cell_length_a                    12.605622
_cell_length_b                    13.153529
_cell_length_c                    15.4614
_cell_angle_alpha                 83.277442
_cell_angle_beta                  99.216478
_cell_angle_gamma                 96.683213
_cell_volume                      2500.64158958

loop_
_atom_site_label
_atom_site_type_symbol
_atom_type_description
_atom_site_fract_x
_atom_site_fract_y
_atom_site_fract_z
_atom_type_partial_charge
C1    C     C_R   0.442339 0.308730 0.507234 0.882132
C2    C     C_R   0.447166 0.557260 0.094129 0.094443
C3    C     C_R   0.336055 0.556584 0.059092 0.171134
C4    C     C_R   0.525218 0.562784 0.037241 0.069890
C5    C     C_R   0.489649 0.545136 0.948651 0.109180
C6    C     C_R   0.380258 0.553508 0.913580 -0.125107
C7    C     C_R   0.304346 0.560282 0.968215 -0.237074
C8    C     C_R   0.636992 0.585897 0.065399 -0.225475
C9    C     C_R   0.711313 0.586198 0.008002 -0.197456
C10   C     C_R   0.677014 0.555720 0.923846 0.127385
C11   C     C_R   0.565941 0.526330 0.896388 -0.035937
C12   C     C_R   0.435516 0.514597 0.335952 0.846240
C13   C     C_R   0.752001 0.554608 0.866440 -0.194238
C14   C     C_R   0.716504 0.528225 0.781399 -0.258307
C15   C     C_R   0.536087 0.478174 0.818202 0.362041
C16   C     C_R   0.641762 0.942617 0.369146 -0.198638
C17   C     C_R   0.582349 0.800863 0.469616 -0.044436
C18   C     C_R   0.334379 0.159393 0.571563 -0.130855
C19   C     C_R   0.315032 0.053912 0.591082 -0.140028
C20   C     C_R   0.372406 0.988028 0.556728 -0.189737
C21   C     C_R   0.447136 0.027244 0.498478 0.093567
C22   C     C_R   0.453718 0.132741 0.468648 0.085220
C23   C     C_R   0.555935 0.691480 0.489119 0.843583
C24   C     C_R   0.515586 0.965440 0.468784 0.085225
C25   C     C_R   0.576476 0.005314 0.400375 0.176551
C26   C     C_R   0.569485 0.106314 0.363035 -0.244660
C27   C     C_R   0.508525 0.169343 0.396558 -0.203476
C28   C     C_R   0.526265 0.865165 0.506322 -0.251424
C29   C     C_R   0.643193 0.839696 0.402695 -0.192181
C30   C     C_R   0.406230 0.199297 0.512608 -0.129465
C31   C     C_R   0.139373 0.640393 0.623496 -0.305854
C32   C     C_R   0.756950 0.380626 0.395547 0.028894
C33   C     C_R   0.851989 0.354890 0.373488 -0.246917
C34   C     C_R   0.564930 0.487082 0.663810 0.932745
C35   C     C_R   0.950022 0.399895 0.413457 -0.192514
C36   C     C_R   0.952730 0.471327 0.475797 0.017251
C37   C     C_R   0.853601 0.494577 0.495967 0.237321
C38   C     C_R   0.049102 0.520540 0.518568 -0.012732
C39   C     C_R   0.044660 0.591294 0.580640 0.198312
C40   C     C_R   0.945824 0.612513 0.599078 -0.287655
C41   C     C_R   0.851530 0.564854 0.556909 -0.213759
C42   C     C_R   0.150611 0.502705 0.502210 -0.038484
C43   C     C_R   0.237318 0.619217 0.604216 0.062962
C44   C     C_R   0.399024 0.531992 0.241392 -0.052308
C45   C     C_R   0.607904 0.492399 0.756511 -0.163535
C46   C     C_R   0.258431 0.550082 0.115692 -0.193211
C47   C     C_R   0.289824 0.537781 0.206701 -0.191831
C48   C     C_R   0.476521 0.543887 0.185189 -0.259113
H1    H     H_    0.220382 0.564049 0.939715 0.149440
H2    H     H_    0.836701 0.579405 0.885655 0.145120
H3    H     H_    0.686643 0.789617 0.373347 0.158577
H4    H     H_    0.612386 0.137106 0.308779 0.146223
H5    H     H_    0.687781 0.971960 0.316470 0.140372
H6    H     H_    0.487789 0.833225 0.562352 0.139772
H7    H     H_    0.295816 0.209802 0.604759 0.192471
H8    H     H_    0.354666 0.906931 0.575196 0.129245
H9    H     H_    0.258726 0.023222 0.635898 0.148383
H10   H     H_    0.503544 0.246757 0.364799 0.154727
H11   H     H_    0.312086 0.656014 0.636440 0.117839
H12   H     H_    0.941285 0.666347 0.646078 0.153177
H13   H     H_    0.137575 0.694322 0.671026 0.138602
H14   H     H_    0.162809 0.450871 0.456614 0.118971
H15   H     H_    0.680197 0.346647 0.364537 0.132709
H16   H     H_    0.021481 0.377283 0.394064 0.136746
H17   H     H_    0.849726 0.300510 0.325641 0.150556
H18   H     H_    0.777983 0.584558 0.573179 0.209681
H19   H     H_    0.773433 0.537504 0.734905 0.175800
H20   H     H_    0.796001 0.608246 0.030147 0.141358
H21   H     H_    0.173459 0.551346 0.089610 0.135720
H22   H     H_    0.228738 0.530193 0.249599 0.154997
H23   H     H_    0.559608 0.536832 0.213374 0.160861
H24   H     H_    0.353423 0.557464 0.843514 0.180796
H25   H     H_    0.668267 0.609862 0.129824 0.144025
N1    N     N_R   0.239390 0.551900 0.544730 -0.095309
N2    N     N_R   0.759950 0.448600 0.455730 -0.131460
O1    O     O_R   0.374950 0.371210 0.521360 -0.598255
O2    O     O_R   0.542050 0.338030 0.492790 -0.605934
O3    O     O_R   0.368720 0.526070 0.390200 -0.620294
O4    O     O_R   0.535820 0.492890 0.361630 -0.631711
O5    O     O_R   0.457950 0.661970 0.507210 -0.620035
O6    O     O_R   0.625050 0.628790 0.478640 -0.640768
O7    O     O_R   0.464180 0.507110 0.638370 -0.568820
O8    O     O_R   0.631280 0.473930 0.609800 -0.631410
Zn1   Zn    Zn3+2 0.388420 0.522150 0.519080 0.978774
Zn2   Zn    Zn3+2 0.611580 0.477850 0.480920 0.933381
S1    S     S_3+6 0.429392 0.375911 0.808698 0.008594
O9    O     O_2   0.329291 0.413276 0.753659 -0.325262
O10   O     O_2   0.464437 0.291512 0.765317 -0.308435
O11   O     O_3   0.401146 0.327931 0.909106 -0.549005
H26   H     H_    0.338713 0.275638 0.897838 0.382114

loop_
_geom_bond_atom_site_label_1
_geom_bond_atom_site_label_2
_ccdc_geom_bond_type
C40   H12   S    
C1    O2    A    
C31   H13   S    
C35   C36   A    
C4    C8    A    
O1    Zn1   S    
C32   N2    A    
C33   H17   S    
C19   H9    S    
C6    H24   S    
C26   C27   A    
C17   C23   S    
C31   C43   A    
C36   C37   A    
C38   C42   A    
C3    C7    A    
C5    C6    A    
S1    O10   D    
C12   O4    A    
C17   C29   A    
C18   C19   A    
C16   H5    S    
C8    H25   S    
C46   H21   S    
C11   C15   A    
N2    Zn2   S    
C19   C20   A    
C8    C9    A    
C12   O3    A    
C14   H19   S    
C35   H16   S    
C18   C30   A    
C23   O5    A    
C23   O6    A    
C9    C10   A    
C42   H14   S    
C44   C47   A    
C20   H8    S    
C43   N1    A    
C37   N2    A    
O2    Zn2   S    
C21   C22   A    
C17   C28   A    
C14   C45   A    
C42   N1    A    
O5    Zn1   S    
C24   C25   A    
C7    H1    S    
C39   C40   A    
C28   H6    S    
S1    O9    D    
C2    C48   A    
C16   C29   A    
C10   C13   A    
C2    C4    A    
C47   H22   S    
C26   H4    S    
C34   C45   S    
C6    C7    A    
C18   H7    S    
C15   S1    S    
C40   C41   A    
O8    Zn2   S    
O7    Zn1   S    
C22   C27   A    
C34   O8    A    
C15   C45   A    
C48   H23   S    
O4    Zn2   S    
C29   H3    S    
C16   C25   A    
C46   C47   A    
C22   C30   A    
C1    O1    A    
C24   C28   A    
C32   H15   S    
N1    Zn1   S    
C4    C5    A    
S1    O11   S    
C5    C11   A    
C41   H18   S    
C43   H11   S    
C3    C46   A    
C32   C33   A    
C36   C38   A    
C2    C3    A    
C25   C26   A    
C9    H20   S    
C12   C44   S    
C38   C39   A    
C27   H10   S    
C1    C30   S    
C33   C35   A    
C31   C39   A    
C37   C41   A    
C10   C11   A    
C13   H2    S    
O3    Zn1   S    
C20   C21   A    
C21   C24   A    
C34   O7    A    
O11   H26   S    
C13   C14   A    
O6    Zn2   S    
C44   C48   A    
