data_mof_unit_14969.cif
_audit_creation_date              2012-12-10T17:03:29-0500
_audit_creation_method            fapswitch 2.2
_symmetry_space_group_name_H-M    P1
_symmetry_Int_Tables_number       1
_space_group_crystal_system       triclinic
_cell_length_a                    14.949407
_cell_length_b                    11.079285
_cell_length_c                    10.039536
_cell_angle_alpha                 110.501001
_cell_angle_beta                  98.575491
_cell_angle_gamma                 91.89685
_cell_volume                      1533.5601213

loop_
_atom_site_label
_atom_site_type_symbol
_atom_type_description
_atom_site_fract_x
_atom_site_fract_y
_atom_site_fract_z
_atom_type_partial_charge
C1    C     C_R   0.496676 0.255707 0.441593 0.905307
C2    C     C_2   0.495960 0.480254 0.915789 -0.000816
C3    C     C_R   0.329284 0.497005 0.500580 0.882457
C4    C     C_R   0.670799 0.500527 0.499627 0.869920
C5    C     C_R   0.827473 0.599963 0.597330 0.096900
C6    C     C_R   0.179361 0.369068 0.433918 0.070198
C7    C     C_R   0.767900 0.496417 0.498703 -0.140064
C8    C     C_R   0.232641 0.487933 0.506268 -0.153309
C9    C     C_R   0.801005 0.385108 0.408630 0.116318
C10   C     C_R   0.197683 0.594668 0.600719 0.111245
C11   C     C_R   0.895113 0.382318 0.408974 -0.016974
C12   C     C_R   0.507661 0.744549 0.557777 0.916238
C13   C     C_R   0.108278 0.582443 0.625214 -0.010152
C14   C     C_R   0.954979 0.480364 0.519493 -0.037641
C15   C     C_R   0.049502 0.475907 0.526449 -0.035964
C16   C     C_R   0.920815 0.584729 0.620687 -0.006232
C17   C     C_R   0.084891 0.364767 0.436113 -0.019965
C18   C     C_R   0.932205 0.279348 0.311514 0.149187
C19   C     C_R   0.075182 0.668807 0.745524 0.139400
C20   C     C_R   0.440932 0.358113 0.820558 0.206296
C21   C     C_R   0.470668 0.239252 0.821162 -0.154268
C22   C     C_R   0.412222 0.125635 0.756704 -0.164471
C23   C     C_R   0.022767 0.258914 0.344470 0.174457
C24   C     C_R   0.324962 0.128344 0.686042 -0.047623
C25   C     C_R   0.293277 0.246061 0.690447 -0.137486
C26   C     C_R   0.349692 0.360417 0.762016 -0.123570
C27   C     C_R   0.604941 0.561608 0.152335 0.180192
C28   C     C_R   0.680966 0.492345 0.120188 -0.106723
C29   C     C_R   0.768779 0.552871 0.179221 -0.128684
C30   C     C_R   0.781446 0.683118 0.269122 -0.089129
C31   C     C_R   0.706324 0.753310 0.299380 -0.128650
C32   C     C_R   0.618475 0.693058 0.240921 -0.130712
C33   C     C_R   0.545747 0.690318 0.939809 0.261784
C34   C     C_R   0.980693 0.665190 0.745363 0.178618
C35   C     C_R   0.627347 0.764969 0.958247 -0.101862
C36   C     C_R   0.629912 0.899895 0.006195 -0.105740
C37   C     C_R   0.550850 0.961036 0.035018 -0.135938
C38   C     C_R   0.469528 0.887668 0.018434 -0.141096
C39   C     C_R   0.466606 0.752909 0.970090 -0.120569
C40   C     C_R   0.366733 0.408217 0.079326 0.287065
C41   C     C_R   0.332191 0.279814 0.045515 -0.097052
C42   C     C_R   0.239479 0.242442 0.994026 -0.113534
C43   C     C_R   0.179878 0.334626 0.984635 -0.110072
C44   C     C_R   0.213155 0.463820 0.024291 -0.137659
C45   C     C_2   0.487113 0.117596 0.409364 -0.300760
C46   C     C_R   0.306300 0.500684 0.070832 -0.151107
C47   C     C_2   0.526610 0.880950 0.584179 -0.360938
C48   C     C_2   0.528560 0.062279 0.498115 0.156169
C49   C     C_2   0.490339 0.934062 0.489231 0.112637
C50   C     C_2   0.513051 0.500747 0.075778 -0.000202
Cu1   Cu    Cu3+1 0.515770 0.521810 0.644910 0.991570
Cu2   Cu    Cu3+1 0.484230 0.478190 0.355090 0.985221
H1    H     H_    0.578517 0.933807 0.675902 0.179171
H2    H     H_    0.849462 0.729919 0.314346 0.180422
H3    H     H_    0.716119 0.855006 0.366283 0.194471
H4    H     H_    0.561379 0.750547 0.258200 0.166528
H5    H     H_    0.687995 0.718139 0.930931 0.176182
H6    H     H_    0.692723 0.956720 0.017437 0.208318
H7    H     H_    0.551979 0.065136 0.068006 0.167782
H8    H     H_    0.408144 0.934997 0.038882 0.178769
H9    H     H_    0.401988 0.697046 0.949708 0.145861
H10   H     H_    0.377448 0.208221 0.056300 0.142644
H11   H     H_    0.213713 0.142341 0.963890 0.191833
H12   H     H_    0.436271 0.064010 0.316795 0.168261
H13   H     H_    0.107945 0.306067 0.947231 0.171279
H14   H     H_    0.166592 0.534979 0.018488 0.190543
H15   H     H_    0.331514 0.600224 0.098812 0.165116
H16   H     H_    0.536995 0.235891 0.879404 0.146315
H17   H     H_    0.433569 0.036297 0.765645 0.172667
H18   H     H_    0.279932 0.040683 0.634759 0.199380
H19   H     H_    0.223165 0.249493 0.646644 0.166609
H20   H     H_    0.319499 0.451089 0.782735 0.148647
H21   H     H_    0.672137 0.391915 0.048763 0.154911
H22   H     H_    0.827046 0.499002 0.154741 0.174345
I1    I     I_    0.776549 0.786866 0.674538 -0.333655
I2    I     I_    0.653803 0.153613 0.641698 -0.326366
I3    I     I_    0.246453 0.207078 0.316473 -0.333176
I4    I     I_    0.710102 0.213071 0.307735 -0.360380
I5    I     I_    0.272211 0.780161 0.662890 -0.364676
I6    I     I_    0.873854 0.187588 0.088181 -0.271392
I7    I     I_    0.165006 0.777182 0.944317 -0.293591
I8    I     I_    0.039539 0.060328 0.311916 -0.180266
I9    I     I_    0.931429 0.739666 0.947086 -0.239290
I10   I     I_    0.364121 0.846639 0.345048 -0.354399
N1    N     N_2   0.460520 0.445420 0.137370 -0.244568
N2    N     N_2   0.539480 0.554580 0.862630 -0.233562
O1    O     O_R   0.508410 0.332340 0.577400 -0.548535
O2    O     O_R   0.491590 0.667660 0.422600 -0.567758
O3    O     O_R   0.481780 0.295500 0.332650 -0.584666
O4    O     O_R   0.518220 0.704500 0.667350 -0.567819
O5    O     O_R   0.383570 0.518390 0.622380 -0.600163
O6    O     O_R   0.616430 0.481610 0.377620 -0.568782
O7    O     O_R   0.356940 0.481550 0.377630 -0.543598
O8    O     O_R   0.643060 0.518450 0.622370 -0.555627

loop_
_geom_bond_atom_site_label_1
_geom_bond_atom_site_label_2
_ccdc_geom_bond_type
C1    O1    A    
C11   C18   A    
C23   I8    S    
C26   H20   S    
C41   C42   A    
C48   I2    S    
C44   H14   S    
C35   C36   A    
C43   C44   A    
C24   H18   S    
C47   C49   D    
C40   C46   A    
C30   H2    S    
C29   C30   A    
C49   I10   S    
C12   O4    A    
C28   C29   A    
C36   H6    S    
C12   C47   S    
Cu1   O4    S    
C30   C31   A    
C11   C14   A    
C3    O5    A    
C5    C16   A    
C2    C50   S    
C50   N1    D    
C16   C34   A    
C36   C37   A    
C25   H19   S    
C22   H17   S    
C27   C50   S    
C47   H1    S    
Cu1   O5    S    
C22   C24   A    
C21   C22   A    
Cu2   O3    S    
C41   H10   S    
C4    C7    S    
C28   H21   S    
Cu1   N2    S    
C44   C46   A    
C39   H9    S    
C13   C19   A    
C2    C20   S    
C18   C23   A    
Cu2   O2    S    
C24   C25   A    
C3    C8    S    
Cu1   O1    S    
C5    C7    A    
C12   O2    A    
C6    I3    S    
C6    C8    A    
C29   H22   S    
C25   C26   A    
C19   C34   A    
Cu1   Cu2   S    
C40   N1    S    
C5    I1    S    
C33   N2    S    
C37   C38   A    
C31   C32   A    
C17   C23   A    
C43   H13   S    
Cu2   O7    S    
C3    O7    A    
C33   C39   A    
C9    C11   A    
C37   H7    S    
C4    O8    A    
C18   I6    S    
C48   C49   S    
Cu2   N1    S    
C13   C15   A    
C21   H16   S    
C38   H8    S    
Cu2   O6    S    
C42   C43   A    
C45   C48   D    
C7    C9    A    
C6    C17   A    
C40   C41   A    
C1    O3    A    
C27   C32   A    
C10   C13   A    
C10   I5    S    
C15   C17   A    
C45   H12   S    
C35   H5    S    
C46   H15   S    
C1    C45   S    
C38   C39   A    
C20   C26   A    
C33   C35   A    
C2    N2    D    
C14   C16   A    
C9    I4    S    
Cu1   O8    S    
C20   C21   A    
C8    C10   A    
C34   I9    S    
C27   C28   A    
C14   C15   A    
C31   H3    S    
C19   I7    S    
C42   H11   S    
C32   H4    S    
C4    O6    A    
