data_mof_unit_17113.cif
_audit_creation_date              2012-12-11T14:56:36-0500
_audit_creation_method            fapswitch 2.2
_symmetry_space_group_name_H-M    P1
_symmetry_Int_Tables_number       1
_space_group_crystal_system       triclinic
_cell_length_a                    10.507889
_cell_length_b                    10.786767
_cell_length_c                    17.163192
_cell_angle_alpha                 79.979456
_cell_angle_beta                  89.879442
_cell_angle_gamma                 119.428755
_cell_volume                      1659.79194746

loop_
_atom_site_label
_atom_site_type_symbol
_atom_type_description
_atom_site_fract_x
_atom_site_fract_y
_atom_site_fract_z
_atom_type_partial_charge
C1    C     C_R   0.224715 0.855690 0.129048 0.542409
C2    C     C_R   0.767356 0.313487 0.286501 0.132705
C3    C     C_R   0.737327 0.239092 0.224714 -0.001117
C4    C     C_R   0.613314 0.218630 0.184709 -0.069250
C5    C     C_1   0.669748 0.845530 0.204908 -0.017003
C6    C     C_1   0.680916 0.835273 0.274277 0.023555
C7    C     C_1   0.183675 0.828357 0.211649 -0.014211
C8    C     C_1   0.153851 0.822576 0.280051 -0.005746
C9    C     C_1   0.643530 0.320303 0.777487 -0.017338
C10   C     C_1   0.650783 0.343397 0.707094 -0.035977
C11   C     C_R   0.624816 0.718769 0.804180 0.020761
C12   C     C_R   0.608492 0.202114 0.101833 0.546190
C13   C     C_R   0.584263 0.705321 0.727970 -0.019892
C14   C     C_R   0.657394 0.827871 0.664467 0.013573
C15   C     C_R   0.751769 0.967400 0.680759 -0.021518
C16   C     C_R   0.775104 0.982194 0.760453 -0.056636
C17   C     C_R   0.700035 0.856870 0.822238 -0.019089
C18   C     C_R   0.231632 0.973163 0.754531 -0.004965
C19   C     C_R   0.231587 0.958104 0.676490 -0.146542
C20   C     C_R   0.169776 0.820616 0.658469 0.022383
C21   C     C_R   0.135844 0.699175 0.718082 -0.092713
C22   C     C_R   0.152517 0.714931 0.796597 -0.131785
C23   C     C_R   0.641250 0.857845 0.125008 0.542758
C24   C     C_R   0.194964 0.850005 0.816225 0.025948
C25   C     C_R   0.687010 0.808362 0.356724 0.577500
C26   C     C_R   0.687756 0.391980 0.395525 0.543373
C27   C     C_R   0.104109 0.810938 0.359344 0.545899
C28   C     C_R   0.675404 0.799685 0.585641 0.586755
C29   C     C_R   0.677894 0.381382 0.624278 0.559977
C30   C     C_R   0.102275 0.802583 0.584847 0.539215
C31   C     C_R   0.229614 0.868773 0.896902 0.552733
C32   C     C_R   0.636313 0.280719 0.860069 0.590319
C33   C     C_R   0.649247 0.868732 0.898829 0.566706
C34   C     C_R   0.498889 0.224545 0.223087 -0.115642
C35   C     C_R   0.513413 0.266875 0.296720 -0.041292
C36   C     C_R   0.652545 0.321645 0.326403 -0.032477
Cr1   Cr    Cr6+3 0.402240 0.783890 0.019450 1.079269
Cr2   Cr    Cr6+3 0.382360 0.097900 0.991800 1.091605
Cr3   Cr    Cr6+3 0.715380 0.118170 0.988700 1.032530
Cr4   Cr    Cr6+3 0.936650 0.882420 0.465510 1.108028
Cr5   Cr    Cr6+3 0.605770 0.565620 0.493360 1.056853
Cr6   Cr    Cr6+3 0.921340 0.550490 0.496380 1.105337
H1    H     H_    0.397870 0.195492 0.195586 0.195340
H2    H     H_    0.260675 0.052226 0.629653 0.126809
H3    H     H_    0.088498 0.591449 0.704849 0.196830
H4    H     H_    0.127609 0.620847 0.842268 0.158249
O1    O     O_R   0.521780 0.757110 0.108900 -0.479693
O2    O     O_R   0.513330 0.228330 0.898660 -0.477756
O3    O     O_R   0.739230 0.266130 0.888050 -0.479477
O4    O     O_R   0.712580 0.991850 0.918770 -0.523076
O5    O     O_3   0.499990 0.999980 0.999980 -0.307698
O6    O     O_R   0.083770 0.911170 0.376030 -0.471284
O7    O     O_R   0.808770 0.880340 0.383890 -0.440363
O8    O     O_R   0.584340 0.689460 0.394160 -0.510838
O9    O     O_R   0.614320 0.443940 0.423590 -0.524642
O10   O     O_R   0.805020 0.410040 0.421340 -0.455807
O11   O     O_R   0.049240 0.685450 0.403290 -0.487536
O12   O     O_R   0.275160 0.783810 0.101120 -0.483135
O13   O     O_R   0.077520 0.903010 0.551800 -0.530422
O14   O     O_R   0.802980 0.872780 0.546830 -0.487808
O15   O     O_R   0.578090 0.681300 0.569920 -0.478866
O16   O     O_R   0.608530 0.436370 0.586530 -0.527084
O17   O     O_R   0.798770 0.401880 0.597100 -0.451142
O18   O     O_R   0.043450 0.677890 0.566230 -0.499159
O19   O     O_3   0.821250 0.666180 0.485090 -0.293079
O20   O     O_R   0.237900 0.972600 0.090980 -0.516201
O21   O     O_R   0.511190 0.220540 0.061620 -0.468914
O22   O     O_R   0.736920 0.257720 0.063840 -0.528398
O23   O     O_R   0.710450 0.984050 0.081720 -0.544348
O24   O     O_R   0.524090 0.765520 0.933110 -0.466689
O25   O     O_R   0.277300 0.791600 0.938160 -0.503658
O26   O     O_R   0.240210 0.981010 0.915190 -0.456465
C37   C     C_2   0.383946 0.255260 0.339700 0.270266
H5    H     H_    0.378445 0.251475 0.403151 0.125558
O27   O     O_2   0.279420 0.246218 0.304823 -0.446630
I1    I     I_    0.002070 0.441019 0.297633 -0.186105
C38   C     C_2   0.840096 0.188712 0.203136 0.246638
H6    H     H_    0.870531 0.189833 0.143071 0.169442
O28   O     O_2   0.895211 0.143961 0.255105 -0.455967
I2    I     I_    0.557228 0.530832 0.896867 -0.288699
C39   C     C_2   0.460599 0.563302 0.717816 0.298086
H7    H     H_    0.457805 0.463010 0.743791 0.117886
O29   O     O_2   0.357088 0.557437 0.683045 -0.474677
C40   C     C_2   0.825124 0.096771 0.614502 0.311134
H8    H     H_    0.936979 0.182046 0.616285 0.153322
O30   O     O_2   0.760197 0.109254 0.557375 -0.482894
C41   C     C_2   0.878161 0.126033 0.780092 0.271278
H9    H     H_    0.940748 0.131094 0.830731 0.184710
O31   O     O_2   0.890922 0.239090 0.742337 -0.512825
C42   C     C_2   0.264577 0.119279 0.765186 0.258813
H10   H     H_    0.352331 0.214831 0.726982 0.087524
O32   O     O_2   0.184587 0.134606 0.809399 -0.493735

loop_
_geom_bond_atom_site_label_1
_geom_bond_atom_site_label_2
_ccdc_geom_bond_type
Cr3   O5    S    
C41   H9    S    
C29   O17   A    
Cr4   O14   S    
C30   O18   A    
C32   O2    A    
C37   H5    S    
C23   O23   A    
C19   C20   A    
Cr5   O15   S    
C26   O9    A    
C39   H7    S    
C7    C8    T    
Cr2   O26   S    
C20   C30   S    
C38   H6    S    
C27   O6    A    
C12   O22   A    
C18   C24   A    
C40   O30   D    
C18   C19   A    
C5    C6    T    
Cr1   O5    S    
C6    C25   S    
C15   C16   A    
C13   C39   S    
C34   C35   A    
Cr3   O22   S    
Cr5   O9    S    
C9    C32   S    
Cr6   O10   S    
C11   C17   A    
Cr2   O20   S    
C16   C17   A    
C16   C41   S    
C4    C12   S    
C9    C10   T    
Cr2   O2    S    
Cr1   O12   S    
C28   O15   A    
C31   O25   A    
Cr4   O13   S    
C21   C22   A    
C37   O27   D    
C17   C33   S    
Cr5   O16   S    
Cr6   O11   S    
C39   O29   D    
C21   H3    S    
C38   O28   D    
Cr5   O8    S    
C12   O21   A    
C4    C34   A    
C23   O1    A    
C18   C42   S    
C25   O8    A    
C27   O11   A    
Cr5   O19   S    
Cr2   O5    S    
C33   O4    A    
Cr4   O6    S    
C35   C36   A    
Cr6   O19   S    
C42   O32   D    
C5    C23   S    
C30   O13   A    
C20   C21   A    
C1    O20   A    
Cr3   O23   S    
C40   H8    S    
C28   O14   A    
C33   O24   A    
C26   C36   S    
C31   O26   A    
Cr3   O3    S    
Cr4   O19   S    
C41   O31   D    
C22   C24   A    
Cr1   O1    S    
C3    C4    A    
C3    C38   S    
Cr6   O18   S    
C2    I1    S    
C19   H2    S    
C2    C36   A    
C29   O16   A    
C35   C37   S    
C22   H4    S    
C1    C7    S    
C34   H1    S    
C25   O7    A    
C26   O10   A    
C15   C40   S    
Cr1   O24   S    
Cr1   O25   S    
C2    C3    A    
C24   C31   S    
C1    O12   A    
C11   C13   A    
C10   C29   S    
C42   H10   S    
C32   O3    A    
C11   I2    S    
Cr3   O4    S    
Cr2   O21   S    
Cr4   O7    S    
C8    C27   S    
C14   C15   A    
C14   C28   S    
C13   C14   A    
Cr6   O17   S    
