data_mof_unit_15743.cif
_audit_creation_date              2012-12-11T17:45:35-0500
_audit_creation_method            fapswitch 2.2
_symmetry_space_group_name_H-M    P1
_symmetry_Int_Tables_number       1
_space_group_crystal_system       triclinic
_cell_length_a                    15.123989
_cell_length_b                    15.058194
_cell_length_c                    15.182322
_cell_angle_alpha                 110.513002
_cell_angle_beta                  108.71068
_cell_angle_gamma                 109.410124
_cell_volume                      2653.92106534

loop_
_atom_site_label
_atom_site_type_symbol
_atom_type_description
_atom_site_fract_x
_atom_site_fract_y
_atom_site_fract_z
_atom_type_partial_charge
C1    C     C_R   0.914171 0.198949 0.999816 0.024960
C2    C     C_R   0.686137 0.242009 0.775694 -0.140887
C3    C     C_R   0.792113 0.590065 0.097764 -0.159973
C4    C     C_R   0.297588 0.804268 0.208992 -0.135644
C5    C     C_R   0.006905 0.408544 0.703335 -0.165632
C6    C     C_R   0.700392 0.498349 0.066653 0.085114
C7    C     C_R   0.064546 0.498874 0.700685 0.066040
C8    C     C_R   0.676763 0.214126 0.673435 0.088870
C9    C     C_R   0.939377 0.763548 0.945719 0.059598
C10   C     C_R   0.656759 0.343108 0.262784 -0.181381
C11   C     C_R   0.767169 0.403862 0.336002 -0.141510
C12   C     C_R   0.296723 0.871682 0.299269 0.067941
C13   C     C_R   0.831930 0.356339 0.328986 0.133560
C14   C     C_R   0.784431 0.246587 0.248535 -0.226572
C15   C     C_R   0.674559 0.187210 0.172455 -0.128599
C16   C     C_R   0.222326 0.407186 0.959264 -0.168970
C17   C     C_R   0.610210 0.235337 0.178868 0.121260
C18   C     C_R   0.964065 0.417653 0.509856 -0.258048
C19   C     C_R   0.063315 0.493469 0.604395 0.066646
C20   C     C_R   0.148118 0.569407 0.604494 0.026940
C21   C     C_R   0.131972 0.566112 0.508316 -0.249227
C22   C     C_R   0.031614 0.492745 0.415729 0.067813
C23   C     C_R   0.324056 0.498798 0.027972 0.065210
C24   C     C_R   0.945801 0.418170 0.415808 0.013484
C25   C     C_R   0.269561 0.764897 0.746285 -0.248864
C26   C     C_R   0.373253 0.853378 0.825125 0.109425
C27   C     C_R   0.459223 0.834414 0.858238 -0.118459
C28   C     C_R   0.045173 0.591621 0.313901 -0.132032
C29   C     C_R   0.441186 0.727247 0.813742 -0.154959
C30   C     C_R   0.337514 0.638889 0.735837 -0.150812
C31   C     C_R   0.251461 0.657576 0.701604 0.123217
C32   C     C_R   0.113644 0.021232 0.437361 -0.192222
C33   C     C_R   0.211406 0.052135 0.437814 -0.145779
C34   C     C_R   0.016865 0.497800 0.320939 0.059492
C35   C     C_R   0.283652 0.024159 0.488469 0.133027
C36   C     C_R   0.259830 0.969522 0.543318 -0.268766
C37   C     C_R   0.158515 0.932770 0.537145 0.107859
C38   C     C_R   0.084889 0.957197 0.482196 -0.112739
C39   C     C_R   0.479320 0.130998 0.570060 -0.265707
C40   C     C_R   0.313711 0.591521 0.057101 -0.145474
C41   C     C_R   0.575733 0.149662 0.568664 0.082138
C42   C     C_R   0.571481 0.099314 0.467459 -0.035779
C43   C     C_R   0.470700 0.037669 0.372381 0.123465
C44   C     C_R   0.378247 0.990067 0.380343 0.007455
C45   C     C_R   0.702708 0.407987 0.005642 -0.160727
C46   C     C_R   0.381019 0.047104 0.478648 0.013050
C47   C     C_R   0.718267 0.138857 0.419945 -0.259255
C48   C     C_R   0.807111 0.131214 0.417947 -0.106019
C49   C     C_R   0.840458 0.069563 0.455145 -0.133694
C50   C     C_R   0.785111 0.014805 0.494307 -0.233098
C51   C     C_R   0.697204 0.023184 0.499910 0.233015
C52   C     C_R   0.958984 0.406902 0.219646 -0.118638
C53   C     C_R   0.661566 0.084451 0.459717 0.043188
C54   C     C_3   0.506743 0.377923 0.998765 -0.471377
C55   C     C_3   0.404863 0.378010 0.994822 -0.485340
C56   C     C_R   0.093095 0.590701 0.791518 -0.140375
C57   C     C_3   0.612965 0.550666 0.178582 -0.279355
C58   C     C_3   0.575905 0.557410 0.002252 -0.449716
C59   C     C_3   0.602519 0.497723 0.063983 0.313222
C60   C     C_3   0.424852 0.498527 0.043621 0.250182
C61   C     C_3   0.516356 0.572283 0.169248 0.319573
C62   C     C_3   0.461556 0.536409 0.969781 -0.168607
C63   C     C_R   0.040571 0.052993 0.683924 -0.111343
C64   C     C_R   0.205166 0.805402 0.296795 -0.139628
C65   C     C_R   0.976408 0.999676 0.718090 -0.202556
C66   C     C_R   0.025168 0.001563 0.814666 0.092070
C67   C     C_R   0.780437 0.252352 0.688072 -0.136909
C68   C     C_R   0.138300 0.047548 0.871605 0.061805
C69   C     C_R   0.201299 0.096678 0.833575 -0.223823
C70   C     C_R   0.152667 0.101908 0.741807 -0.110651
C71   C     C_R   0.933542 0.862632 0.849886 -0.254694
C72   C     C_R   0.906385 0.836245 0.920759 0.068867
C73   C     C_R   0.887582 0.907395 0.993056 0.020382
C74   C     C_R   0.915211 0.008994 0.005560 -0.236387
C75   C     C_R   0.946712 0.038343 0.939130 0.071354
C76   C     C_R   0.016496 0.206914 0.921520 -0.167282
C77   C     C_R   0.960179 0.965506 0.862409 0.039986
C78   C     C_R   0.922828 0.732694 0.016384 -0.152583
C79   C     C_R   0.727148 0.864329 0.015557 -0.143688
C80   C     C_R   0.681563 0.871459 0.082656 -0.137841
C81   C     C_R   0.739918 0.893762 0.186985 -0.120322
C82   C     C_R   0.843221 0.907554 0.224132 -0.137331
C83   C     C_R   0.892279 0.908444 0.160301 -0.177696
C84   C     C_R   0.833008 0.883020 0.053654 0.110270
C85   C     C_R   0.962204 0.145099 0.955294 0.039202
C86   C     C_3   0.393389 0.044758 0.209419 -0.938558
C87   C     C_3   0.543712 0.902123 0.506019 -0.925953
C88   C     C_3   0.409586 0.442436 0.218942 -0.975146
C89   C     C_R   0.020873 0.744946 0.933660 -0.118648
C90   C     C_3   0.554754 0.762063 0.295097 -1.027329
H1    H     H_    0.144076 0.675282 0.818538 0.103369
H2    H     H_    0.350363 0.826418 0.177636 0.128783
H3    H     H_    0.832439 0.207210 0.244306 0.122254
H4    H     H_    0.639156 0.103323 0.109377 0.118106
H5    H     H_    0.896034 0.365064 0.511561 0.141536
H6    H     H_    0.196572 0.623698 0.506430 0.137883
H7    H     H_    0.203478 0.779722 0.718116 0.112684
H8    H     H_    0.539926 0.902953 0.917092 0.100334
H9    H     H_    0.507346 0.711958 0.838005 0.130033
H10   H     H_    0.325097 0.556653 0.699370 0.112631
H11   H     H_    0.005880 0.927567 0.475224 0.105626
H12   H     H_    0.806261 0.254735 0.630628 0.126537
H13   H     H_    0.200311 0.322587 0.917481 0.111938
H14   H     H_    0.060136 0.046163 0.400820 0.120837
H15   H     H_    0.230401 0.096803 0.397803 0.118729
H16   H     H_    0.316246 0.948924 0.583766 0.124175
H17   H     H_    0.479933 0.174458 0.644321 0.129977
H18   H     H_    0.695549 0.189985 0.393629 0.153131
H19   H     H_    0.851458 0.174048 0.388850 0.129142
H20   H     H_    0.910034 0.064988 0.454364 0.106488
H21   H     H_    0.811287 0.966165 0.521403 0.108601
H22   H     H_    0.088421 0.676042 0.378197 0.100028
H23   H     H_    0.858349 0.723727 0.033788 0.123187
H24   H     H_    0.525171 0.330673 0.036667 0.162944
H25   H     H_    0.491554 0.335629 0.914336 0.172494
H26   H     H_    0.341855 0.326884 0.907915 0.165335
H27   H     H_    0.374603 0.332756 0.031547 0.192745
H28   H     H_    0.603976 0.488319 0.202866 0.154632
H29   H     H_    0.635450 0.646453 0.052089 0.171627
H30   H     H_    0.581898 0.526702 0.927233 0.166178
H31   H     H_    0.409826 0.466378 0.884403 0.153051
H32   H     H_    0.375141 0.676506 0.105878 0.126993
H33   H     H_    0.201917 0.143048 0.714891 0.123134
H34   H     H_    0.055798 0.761327 0.885420 0.088852
H35   H     H_    0.003967 0.058724 0.613938 0.109560
H36   H     H_    0.889896 0.964532 0.674925 0.108940
H37   H     H_    0.288084 0.132551 0.875970 0.119035
H38   H     H_    0.948221 0.809126 0.794181 0.125831
H39   H     H_    0.912973 0.066608 0.070781 0.149591
H40   H     H_    0.928647 0.322447 0.197443 0.110991
H41   H     H_    0.683663 0.852742 0.936666 0.105866
H42   H     H_    0.602099 0.862330 0.055178 0.114054
H43   H     H_    0.705298 0.901388 0.239434 0.136982
H44   H     H_    0.885510 0.920101 0.303401 0.105162
H45   H     H_    0.622402 0.225830 0.795748 0.091410
H46   H     H_    0.975866 0.928675 0.193422 0.126036
H47   H     H_    0.167844 0.829580 0.342480 0.128237
H48   H     H_    0.052946 0.187619 0.873807 0.137093
H49   H     H_    0.649957 0.322937 0.976411 0.092501
H50   H     H_    0.759438 0.079292 0.923732 0.106520
H51   H     H_    0.785917 0.199689 0.015550 0.105770
H52   H     H_    0.460432 0.218836 0.119653 0.084696
H53   H     H_    0.492508 0.163742 0.026813 0.089684
H54   H     H_    0.370322 0.978431 0.806245 0.089466
H55   H     H_    0.341008 0.967171 0.901501 0.095127
H56   H     H_    0.819511 0.674879 0.150627 0.107320
H57   H     H_    0.185877 0.916460 0.667847 0.112699
H58   H     H_    0.135836 0.800323 0.552368 0.089796
H59   H     H_    0.529915 0.030089 0.262302 0.180704
H60   H     H_    0.383033 0.013198 0.126750 0.249541
H61   H     H_    0.430671 0.135354 0.251105 0.259395
H62   H     H_    0.312004 0.007982 0.200936 0.259642
H63   H     H_    0.707565 0.972154 0.613201 0.159922
H64   H     H_    0.507704 0.931018 0.555065 0.258493
H65   H     H_    0.535630 0.823497 0.498866 0.247828
H66   H     H_    0.497941 0.886752 0.423988 0.261329
H67   H     H_    0.980233 0.324110 0.648844 0.114492
H68   H     H_    0.542545 0.596240 0.322715 0.183422
H69   H     H_    0.398047 0.450117 0.289378 0.255404
H70   H     H_    0.445425 0.389080 0.205445 0.235885
H71   H     H_    0.328389 0.405714 0.150237 0.270875
H72   H     H_    0.371011 0.602505 0.915689 0.126540
H73   H     H_    0.484462 0.696487 0.037546 0.115828
H74   H     H_    0.720170 0.675415 0.337565 0.112587
H75   H     H_    0.740841 0.709347 0.248355 0.111226
H76   H     H_    0.605576 0.724733 0.181705 0.166902
H77   H     H_    0.565653 0.837454 0.292327 0.261263
H78   H     H_    0.607509 0.379622 0.272455 0.106142
H79   H     H_    0.622789 0.783906 0.370374 0.268293
H80   H     H_    0.477200 0.725078 0.293910 0.282888
H81   H     H_    0.168887 0.967110 0.948407 0.100821
H82   H     H_    0.272131 0.093408 0.006696 0.098986
H83   H     H_    0.801768 0.486960 0.400334 0.118636
N1    N     N_R   0.947080 0.293830 0.002870 -0.052473
N2    N     N_R   0.153670 0.443180 0.946090 -0.032861
N3    N     N_R   0.002360 0.556820 0.208890 -0.037592
N4    N     N_R   0.210070 0.556820 0.002870 -0.041631
N5    N     N_R   0.945960 0.443180 0.152110 -0.041890
N6    N     N_R   0.151710 0.706170 0.208890 -0.041934
N7    N     N_R   0.004320 0.293830 0.946090 -0.044615
N8    N     N_R   0.789930 0.443180 0.997130 -0.036736
N9    N     N_3   0.816686 0.146580 0.001518 -0.234066
N10   N     N_3   0.497871 0.173688 0.100256 -0.227927
N11   N     N_3   0.392270 0.962878 0.869525 -0.231175
N12   N     N_R   0.054040 0.556820 0.847890 -0.039310
N13   N     N_3   0.129277 0.869854 0.585376 -0.212844
N14   N     N_2   0.461899 0.014884 0.269339 -0.124842
N15   N     N_2   0.656620 0.983173 0.559391 -0.111526
N16   N     N_2   0.481029 0.550154 0.243313 -0.099007
N17   N     N_3   0.451974 0.628003 0.963012 -0.217321
N18   N     N_3   0.720098 0.645708 0.264126 -0.218069
N19   N     N_2   0.552004 0.687444 0.201756 -0.129689
N20   N     N_3   0.188274 0.047753 0.969752 -0.209354
N21   N     N_R   0.848290 0.293830 0.791110 -0.044213
N22   N     N_R   0.995680 0.706170 0.053910 -0.042028
N23   N     N_R   0.052920 0.706170 0.997130 -0.041021
N24   N     N_R   0.791050 0.293830 0.847890 -0.044709
N25   N     N_R   0.846330 0.556820 0.053910 -0.040840
N26   N     N_R   0.997640 0.443180 0.791110 -0.038913
N27   N     N_R   0.208950 0.706170 0.152110 -0.041926
Ni1   Ni    Ni4+2 0.869690 0.369690 0.000000 0.207057
Ni2   Ni    Ni4+2 0.130310 0.630310 0.000000 0.210534
Ni3   Ni    Ni4+2 0.000970 0.369690 0.869780 0.214178
Ni4   Ni    Ni4+2 0.999030 0.630310 0.130220 0.216259

loop_
_geom_bond_atom_site_label_1
_geom_bond_atom_site_label_2
_ccdc_geom_bond_type
C25   C31   A    
C66   C68   A    
C63   C65   A    
C27   H8    S    
C58   C62   S    
C80   H42   S    
C6    C45   A    
C47   H18   S    
C90   H77   S    
C27   C29   A    
C2    N24   A    
C41   C42   A    
N3    Ni4   S    
C35   C36   A    
C87   H66   S    
C9    C72   S    
C71   C77   A    
H81   N20   S    
N7    Ni3   S    
C15   H4    S    
H54   N11   S    
C81   C82   A    
C45   N8    A    
N2    N4    A    
C90   N19   S    
C28   H22   S    
C39   H17   S    
H55   N11   S    
C26   C27   A    
C29   C30   A    
C83   C84   A    
C18   C24   A    
C22   C24   A    
C36   C37   A    
C57   N18   S    
C38   H11   S    
C86   H60   S    
C42   C53   S    
C30   C31   A    
C12   C64   A    
C57   C59   S    
N21   N24   A    
C55   H26   S    
C10   C17   A    
H58   N13   S    
C23   C40   A    
C30   H10   S    
C45   H49   S    
C3    N25   A    
H63   N15   S    
C60   C62   S    
C18   C19   A    
C73   C74   A    
C88   H69   S    
C58   H29   S    
C51   N15   S    
C13   C14   A    
H75   N18   S    
C70   H33   S    
C75   C85   S    
C56   H1    S    
C47   C48   A    
C68   C69   A    
C61   N19   S    
C32   H14   S    
N24   Ni1   S    
C68   N20   S    
C32   C38   A    
C4    C12   A    
H74   N18   S    
C73   C84   S    
C47   C53   A    
C3    C6    A    
N3    N5    A    
C48   H19   S    
C28   C34   A    
C86   N14   S    
C55   C60   S    
C61   N16   S    
C18   H5    S    
H82   N20   S    
C23   C60   S    
C7    C56   A    
N26   Ni3   S    
N8    N25   A    
C78   N22   A    
C44   C46   A    
C54   C59   S    
H57   N13   S    
C1    C85   A    
C88   N16   S    
C22   C34   S    
C2    C8    A    
C1    N1    A    
C11   H83   S    
C74   C75   A    
C29   H9    S    
C36   H16   S    
C33   H15   S    
C8    C41   S    
C72   C73   A    
C39   C41   A    
H68   N16   S    
C9    C89   A    
C5    C7    A    
C64   N6    A    
C28   N3    A    
N22   Ni4   S    
C25   C26   A    
C89   N23   A    
C82   C83   A    
N1    Ni1   S    
H50   N9    S    
C40   N4    A    
C13   C24   S    
C5    N26   A    
C60   C61   S    
C51   C53   A    
H53   N10   S    
N12   Ni2   S    
C82   H44   S    
C43   C44   A    
C37   C38   A    
C86   H62   S    
C17   N10   S    
C16   H13   S    
C37   N13   S    
C63   C70   A    
C43   N14   S    
C62   H31   S    
C79   H41   S    
C54   H25   S    
C90   H80   S    
C58   H30   S    
C50   C51   A    
C87   H64   S    
C62   N17   S    
N12   N26   A    
C88   H70   S    
C57   C61   S    
C75   C77   A    
C83   H46   S    
C63   H35   S    
C3    H56   S    
C39   C46   A    
C16   N2    A    
C25   H7    S    
C48   C49   A    
C89   H34   S    
H59   N14   S    
C16   C23   A    
C5    H67   S    
N25   Ni4   S    
C87   H65   S    
C71   H38   S    
N5    Ni1   S    
C78   H23   S    
C42   C43   A    
N23   Ni2   S    
C67   N21   A    
N1    N7    A    
H72   N17   S    
C55   H27   S    
C56   N12   A    
C15   C17   A    
C66   C77   S    
C54   C55   S    
C14   H3    S    
N4    Ni2   S    
C34   C52   A    
C6    C59   S    
N8    Ni1   S    
H51   N9    S    
C80   C81   A    
C76   N7    A    
C1    N9    S    
C81   H43   S    
C87   N15   S    
C21   H6    S    
C76   H48   S    
N22   N23   A    
C40   H32   S    
C7    C19   S    
C2    H45   S    
C52   H40   S    
C65   H36   S    
C19   C20   A    
C58   C59   S    
N2    Ni3   S    
C71   C72   A    
C12   C44   S    
C86   H61   S    
C32   C33   A    
C11   C13   A    
C79   C84   A    
N21   Ni3   S    
C54   H24   S    
C90   H79   S    
C50   H21   S    
C33   C35   A    
H52   N10   S    
H73   N17   S    
H76   N19   S    
C9    C78   A    
C65   C66   A    
C69   C70   A    
C52   N5    A    
N6    Ni4   S    
C10   C11   A    
C79   C80   A    
C4    N27   A    
C20   C21   A    
C69   H37   S    
C8    C67   A    
C10   H78   S    
C49   C50   A    
N6    N27   A    
C74   H39   S    
C64   H47   S    
C14   C15   A    
C49   H20   S    
C21   C22   A    
C35   C46   S    
C76   C85   A    
N27   Ni2   S    
C88   H71   S    
C67   H12   S    
C57   H28   S    
C4    H2    S    
C20   C31   S    
C26   N11   S    
