data_mof_unit_37953.cif
_audit_creation_date              2013-03-05T16:32:18-0500
_audit_creation_method            fapswitch 2.2
_symmetry_space_group_name_H-M    P1
_symmetry_Int_Tables_number       1
_space_group_crystal_system       triclinic
_cell_length_a                    15.870246
_cell_length_b                    10.83754
_cell_length_c                    9.587456
_cell_angle_alpha                 90.057076
_cell_angle_beta                  90.015865
_cell_angle_gamma                 90.915575
_cell_volume                      1648.77756771

loop_
_atom_site_label
_atom_site_type_symbol
_atom_site_description
_atom_site_fract_x
_atom_site_fract_y
_atom_site_fract_z
_atom_type_partial_charge
O1    O     O_R   0.500000 0.319640 0.618810 -0.552298
O2    O     O_R   0.500010 0.319680 0.381230 -0.563181
C1    C     C_R   0.500488 0.262410 0.499943 0.819191
O3    O     O_R   0.379430 0.499990 0.618840 -0.540271
O4    O     O_R   0.379440 0.500030 0.381260 -0.538392
C2    C     C_R   0.340320 0.499857 0.500037 0.849122
Cu1   Cu    Cu3+1 0.500000 0.499980 0.640670 1.004538
Cu2   Cu    Cu3+1 0.500000 0.500020 0.359330 1.004057
O5    O     O_R   0.499990 0.680320 0.618770 -0.578320
O6    O     O_R   0.500000 0.680360 0.381190 -0.586018
O7    O     O_R   0.620560 0.499970 0.618740 -0.585546
O8    O     O_R   0.620570 0.500010 0.381160 -0.582574
C3    C     C_R   0.499724 0.737439 0.499996 0.794132
C4    C     C_R   0.659651 0.500027 0.499969 0.799924
C5    C     C_3   0.047512 0.387480 0.579412 -0.336763
C6    C     C_3   0.049480 0.498017 0.347495 -0.392731
C7    C     C_3   0.951345 0.494551 0.346659 0.137929
H1    H     H_    0.927573 0.300339 0.520676 0.170661
H2    H     H_    0.071480 0.301132 0.531828 0.186950
H3    H     H_    0.074670 0.579218 0.289088 0.227988
H4    H     H_    0.073261 0.414605 0.293261 0.186179
H5    H     H_    0.931187 0.403397 0.302721 0.129802
C8    C     C_1   0.749251 0.500075 0.499979 -0.121916
C9    C     C_3   0.082938 0.501391 0.499522 0.150883
C10   C     C_3   0.949870 0.385223 0.575838 -0.420081
C11   C     C_3   0.917061 0.501487 0.499622 0.062532
C12   C     C_3   0.952864 0.620093 0.573529 0.209883
C13   C     C_3   0.050934 0.619891 0.571492 -0.407656
C14   C     C_1   0.824783 0.500396 0.499858 -0.001434
C15   C     C_1   0.175101 0.500674 0.499885 -0.011496
C16   C     C_1   0.250660 0.500200 0.500005 -0.064977
H6    H     H_    0.077245 0.626710 0.678855 0.223764
H7    H     H_    0.074652 0.702647 0.514032 0.170985
H8    H     H_    0.069427 0.390039 0.689688 0.225924
H9    H     H_    0.924159 0.378035 0.683229 0.240007
H10   H     H_    0.932022 0.701870 0.513827 0.159579
C17   C     C_R   0.494767 0.063391 0.625025 0.209766
C18   C     C_R   0.496613 0.128809 0.499575 -0.120039
C19   C     C_R   0.490386 0.063441 0.373236 -0.164436
H11   H     H_    0.490703 0.110611 0.274041 0.212332
C20   C     C_R   0.488638 0.935101 0.373270 -0.202280
H12   H     H_    0.486407 0.887124 0.274131 0.178674
C21   C     C_R   0.494750 0.870483 0.499658 -0.106175
C22   C     C_R   0.493841 0.936080 0.624979 0.132030
C23   C     C_3   0.553447 0.929698 0.745220 -0.470145
C24   C     C_3   0.555062 0.069636 0.744907 -0.441835
H13   H     H_    0.523051 0.889494 0.839635 0.213420
H14   H     H_    0.614888 0.888715 0.716544 0.208677
H15   H     H_    0.526528 0.109807 0.840130 0.241041
H16   H     H_    0.617359 0.110195 0.715395 0.190425
C25   C     C_R   0.554053 0.575550 0.073502 0.137762
N1    N     N_R   0.500530 0.500930 0.147930 -0.264120
C26   C     C_R   0.440241 0.435767 0.074039 0.319648
C27   C     C_R   0.440512 0.435246 0.925469 0.319719
N2    N     N_R   0.500530 0.500890 0.852020 -0.263533
C28   C     C_R   0.553980 0.575666 0.926602 0.138340
C29   C     C_3   0.647904 0.575963 0.920878 -0.390786
C30   C     C_3   0.647963 0.575692 0.079114 -0.377812
H17   H     H_    0.673408 0.489723 0.875739 0.220033
H18   H     H_    0.674043 0.662802 0.875445 0.219177
H19   H     H_    0.673396 0.489241 0.123681 0.225004
H20   H     H_    0.674234 0.662316 0.125049 0.218479
N3    N     N_R   0.376264 0.366194 0.145117 0.172396
O9    O     O_R   0.300601 0.410330 0.151741 -0.318183
O10   O     O_R   0.385776 0.248256 0.161357 -0.356148
N4    N     N_R   0.377622 0.363783 0.853734 0.173163
O11   O     O_R   0.390560 0.247452 0.830547 -0.352138
O12   O     O_R   0.300790 0.403731 0.849372 -0.315929
N5    N     N_R   0.916880 0.590484 0.255564 0.141900
O13   O     O_R   0.943293 0.704595 0.263423 -0.354032
O14   O     O_R   0.863767 0.559554 0.157688 -0.319216
N6    N     N_R   0.920337 0.633764 0.716300 0.136864
O15   O     O_R   0.948198 0.566487 0.818294 -0.318148
O16   O     O_R   0.866592 0.719930 0.743624 -0.344272

loop_
_geom_bond_atom_site_label_1
_geom_bond_atom_site_label_2
_geom_bond_distance
_ccdc_geom_bond_type
C30   H20   1.111604 S    
N4    O12   1.301110 A    
N2    C28   1.365338 A    
N3    O10   1.298947 A    
C7    N5    1.470573 S    
C6    H4    1.113575 S    
C20   H12   1.083248 S    
Cu1   N2    2.026337 S    
Cu1   Cu2   2.697335 S    
C19   C20   1.390731 A    
C23   C24   1.516397 S    
C22   C23   1.493401 S    
Cu1   O7    1.924892 S    
C24   H15   1.110771 S    
C11   C12   1.565822 S    
C7    C11   1.566504 S    
C8    C14   1.198649 T    
C18   C19   1.405276 A    
O7    C4    1.296890 A    
C5    C10   1.549762 S    
C28   C29   1.491565 S    
C25   C28   1.408395 A    
N5    O14   1.301290 A    
O5    C3    1.296697 A    
C1    C18   1.448230 S    
C6    C7    1.557309 S    
Cu2   N1    2.026841 S    
C5    H8    1.113098 S    
C6    H3    1.112512 S    
C30   H19   1.111795 S    
N4    O11   1.299533 A    
C6    C9    1.551310 S    
C20   C21   1.404259 A    
H1    C10   1.113425 S    
O3    Cu1   1.924833 S    
C23   H13   1.111867 S    
C25   N1    1.365366 A    
C13   H6    1.112652 S    
N6    O16   1.301260 A    
C19   H11   1.080129 S    
C29   H18   1.111742 S    
C10   C11   1.554124 S    
C26   C27   1.424425 A    
O1    C1    1.297014 A    
C4    C8    1.421971 S    
C5    H2    1.113179 S    
C21   C22   1.395659 A    
C17   C18   1.396834 A    
C15   C16   1.199239 T    
Cu2   O8    1.924830 S    
C25   C30   1.491312 S    
C10   H9    1.109964 S    
O3    C2    1.296992 A    
C5    C9    1.551361 S    
O8    C4    1.296836 A    
C13   H7    1.113495 S    
C3    C21   1.445300 S    
N1    C26   1.375897 A    
C23   H14   1.112381 S    
Cu1   O5    1.965897 S    
C27   N2    1.374393 A    
O1    Cu1   1.965439 S    
O2    Cu2   1.965897 S    
C9    C13   1.550048 S    
N6    O15   1.301847 A    
O6    C3    1.295684 A    
O4    Cu2   1.924896 S    
C27   N4    1.429282 S    
C12   H10   1.110302 S    
C24   H16   1.112321 S    
C7    H5    1.115657 S    
C17   C22   1.379579 A    
O2    C1    1.297013 A    
C26   N3    1.428546 S    
C29   C30   1.517081 S    
O4    C2    1.297154 A    
C2    C16   1.422986 S    
N5    O13   1.301541 A    
C9    C15   1.462798 S    
C29   H17   1.111770 S    
N3    O9    1.301178 A    
C11   C14   1.464340 S    
Cu2   O6    1.965439 S    
C12   C13   1.556561 S    
C17   C24   1.496146 S    
C12   N6    1.471224 S    
