data_mof_unit_50877.cif
_audit_creation_date              2013-03-05T15:58:07-0500
_audit_creation_method            fapswitch 2.2
_symmetry_space_group_name_H-M    P1
_symmetry_Int_Tables_number       1
_space_group_crystal_system       triclinic
_cell_length_a                    15.118437
_cell_length_b                    13.838402
_cell_length_c                    10.854979
_cell_angle_alpha                 91.25801
_cell_angle_beta                  89.273917
_cell_angle_gamma                 88.379924
_cell_volume                      2269.36877529

loop_
_atom_site_label
_atom_site_type_symbol
_atom_site_description
_atom_site_fract_x
_atom_site_fract_y
_atom_site_fract_z
_atom_type_partial_charge
O1    O     O_R   0.370250 0.582280 0.500040 -0.524868
O2    O     O_R   0.370250 0.417720 0.500040 -0.539180
C1    C     C_R   0.328689 0.500363 0.496085 0.919135
O3    O     O_R   0.499970 0.582270 0.317700 -0.584111
O4    O     O_R   0.499970 0.417730 0.317700 -0.532872
C2    C     C_R   0.501325 0.499209 0.259907 0.904925
Cu1   Cu    Cu3+1 0.499990 0.597420 0.500010 1.063359
Cu2   Cu    Cu3+1 0.499990 0.402580 0.500010 1.121328
O5    O     O_R   0.629730 0.582260 0.499980 -0.618091
O6    O     O_R   0.629730 0.417740 0.499980 -0.562162
O7    O     O_R   0.500000 0.582270 0.682320 -0.554650
O8    O     O_R   0.500000 0.417730 0.682320 -0.559568
C3    C     C_R   0.670929 0.498999 0.499276 0.850684
C4    C     C_R   0.503999 0.500541 0.739727 0.832460
C5    C     C_3   0.414934 0.546988 0.070930 0.128487
C6    C     C_3   0.521375 0.393639 0.066840 0.070067
H1    H     H_    0.421271 0.626453 0.085843 0.185021
H2    H     H_    0.586025 0.368639 0.104308 0.219752
C7    C     C_3   0.410574 0.527244 0.929963 0.053587
C8    C     C_3   0.530373 0.396589 0.924352 0.066370
C9    C     C_3   0.578397 0.562288 0.073332 -0.448953
C10   C     C_3   0.501769 0.498426 0.121832 -0.205938
C11   C     C_3   0.505439 0.500712 0.877574 -0.197986
C12   C     C_3   0.573172 0.572553 0.931295 -0.332180
C13   C     C_R   0.813985 0.435984 0.409733 0.334454
C14   C     C_R   0.767358 0.497299 0.494114 -0.159228
C15   C     C_R   0.812161 0.560122 0.572179 -0.191824
C16   C     C_R   0.904720 0.560877 0.571695 0.017015
C17   C     C_R   0.952532 0.498218 0.487977 0.013416
C18   C     C_R   0.907106 0.435935 0.407151 -0.029826
C19   C     C_R   0.950619 0.624789 0.649953 0.335012
C20   C     C_R   0.042695 0.627902 0.640477 -0.156515
C21   C     C_R   0.090222 0.565386 0.559380 0.044345
C22   C     C_R   0.045844 0.499325 0.483281 0.016191
C23   C     C_R   0.094584 0.434552 0.402986 -0.083922
C24   C     C_R   0.047460 0.377233 0.317075 0.316988
C25   C     C_R   0.955483 0.378885 0.320632 -0.138484
C26   C     C_R   0.182015 0.567587 0.555529 -0.126297
C27   C     C_R   0.231699 0.499822 0.485246 -0.132234
C28   C     C_R   0.188193 0.429220 0.412382 0.339503
H3    H     H_    0.773545 0.608969 0.632177 0.202877
H4    H     H_    0.922629 0.336967 0.250724 0.240321
C29   C     C_R   0.426794 0.799179 0.538305 0.510484
C30   C     C_R   0.432660 0.208440 0.556927 0.519320
N1    N     N_R   0.499930 0.743810 0.499950 -0.258394
N2    N     N_R   0.499930 0.256190 0.499950 -0.254338
C31   C     C_R   0.572893 0.790216 0.457030 0.020124
C32   C     C_R   0.570584 0.203812 0.449596 0.107671
C33   C     C_R   0.575431 0.893247 0.452802 -0.145738
C34   C     C_R   0.575325 0.100677 0.452428 -0.146791
C35   C     C_R   0.502488 0.948823 0.499021 0.025418
C36   C     C_R   0.502589 0.051933 0.499726 0.030017
C37   C     C_R   0.428405 0.901315 0.543938 -0.049693
C38   C     C_R   0.430392 0.106232 0.551252 -0.043610
C39   C     C_R   0.649787 0.942130 0.407557 0.264577
C40   C     C_R   0.650099 0.045005 0.409027 0.257907
C41   C     C_R   0.357942 0.057123 0.598575 -0.080949
C42   C     C_R   0.356061 0.956907 0.592375 -0.087797
H5    H     H_    0.301091 0.095375 0.639240 0.222454
H6    H     H_    0.297296 0.923914 0.627798 0.219588
H7    H     H_    0.077649 0.677369 0.700063 0.214410
H8    H     H_    0.215208 0.618670 0.613970 0.242586
N3    N     N_R   0.237404 0.348285 0.357676 0.169735
O9    O     O_R   0.213695 0.260334 0.378258 -0.250459
O10   O     O_R   0.305798 0.361513 0.287257 -0.233609
N4    N     N_R   0.090140 0.323236 0.217791 0.171326
O11   O     O_R   0.136573 0.368100 0.136666 -0.206820
O12   O     O_R   0.066644 0.235251 0.192917 -0.224681
N5    N     N_R   0.344351 0.755810 0.562116 0.107007
O13   O     O_R   0.316753 0.750776 0.675395 -0.306438
O14   O     O_R   0.286196 0.755444 0.474706 -0.325209
N6    N     N_R   0.369991 0.260415 0.635226 0.120721
O15   O     O_R   0.384873 0.263774 0.752693 -0.339506
O16   O     O_R   0.288631 0.271400 0.599841 -0.314778
H9    H     H_    0.629136 0.746906 0.424403 0.198985
H10   H     H_    0.624022 0.242564 0.408535 0.207348
N7    N     N_R   0.726289 0.888070 0.362240 0.142709
O17   O     O_R   0.803064 0.900439 0.412090 -0.231880
O18   O     O_R   0.720449 0.831242 0.265773 -0.309004
N8    N     N_R   0.728742 0.092087 0.372139 0.162738
O19   O     O_R   0.760193 0.078796 0.260730 -0.201104
O20   O     O_R   0.778000 0.130671 0.456312 -0.250136
N9    N     N_R   0.333004 0.523346 0.136267 0.163240
O21   O     O_R   0.315067 0.567893 0.240613 -0.343597
O22   O     O_R   0.267482 0.486236 0.076877 -0.205179
N10   N     N_R   0.455803 0.322764 0.103842 0.161354
O23   O     O_R   0.377433 0.322607 0.055818 -0.234432
O24   O     O_R   0.480767 0.249639 0.169673 -0.279776
H11   H     H_    0.369775 0.463156 0.910800 0.194667
H12   H     H_    0.482138 0.346244 0.885572 0.211002
N11   N     N_R   0.367262 0.609629 0.870665 0.161800
O25   O     O_R   0.398875 0.695891 0.881231 -0.305906
O26   O     O_R   0.288642 0.599471 0.825756 -0.296495
N12   N     N_R   0.618471 0.361163 0.881019 0.143095
O27   O     O_R   0.690581 0.395144 0.927239 -0.304684
O28   O     O_R   0.624839 0.287766 0.804064 -0.277122
H13   H     H_    0.574907 0.635732 0.117324 0.221230
H14   H     H_    0.643897 0.530516 0.096871 0.273006
H15   H     H_    0.553598 0.648075 0.909793 0.238214
H16   H     H_    0.639584 0.560440 0.887985 0.235577
N13   N     N_R   0.766338 0.380462 0.320618 0.110998
O29   O     O_R   0.779019 0.287502 0.309820 -0.276209
O30   O     O_R   0.709771 0.423236 0.249531 -0.409983
N14   N     N_R   0.905438 0.685938 0.740617 0.133720
O31   O     O_R   0.852110 0.648560 0.820435 -0.311677
O32   O     O_R   0.930123 0.774410 0.758497 -0.253441

loop_
_geom_bond_atom_site_label_1
_geom_bond_atom_site_label_2
_geom_bond_distance
_ccdc_geom_bond_type
N4    O12   1.301549 A    
C39   C40   1.423514 A    
N3    O10   1.297620 A    
N6    O16   1.299089 A    
N13   O29   1.297780 A    
C12   H15   1.108725 S    
C32   H10   1.079255 S    
C23   C24   1.422233 A    
N14   O32   1.301207 A    
Cu1   Cu2   2.696273 S    
C31   C33   1.429110 A    
N7    O17   1.300952 A    
C5    C7    1.551035 S    
C14   C15   1.395772 A    
C28   N3    1.439816 S    
Cu1   N1    2.025793 S    
C16   C17   1.418990 A    
C20   H7    1.084396 S    
O4    C2    1.302833 A    
C39   N7    1.435212 S    
O7    C4    1.303523 A    
C24   N4    1.433861 S    
C41   H5    1.080834 S    
C42   H6    1.080555 S    
C2    C10   1.498524 S    
C5    H1    1.114975 S    
C22   C23   1.420636 A    
C25   H4    1.079619 S    
N5    O14   1.301736 A    
O5    C3    1.294015 A    
C29   C37   1.414302 A    
C5    C10   1.570096 S    
N9    O21   1.299468 A    
C30   N2    1.376037 A    
C33   C35   1.407272 A    
C34   C36   1.403798 A    
C11   C12   1.557005 S    
C30   N6    1.432336 S    
C6    C8    1.552488 S    
N1    C31   1.373475 A    
N4    O11   1.298735 A    
C1    C27   1.472759 S    
N13   O30   1.298203 A    
O1    Cu1   1.978501 S    
C9    C10   1.569448 S    
C6    N10   1.472484 S    
N5    O13   1.297433 A    
O3    Cu1   1.985468 S    
N14   O31   1.301460 A    
C36   C38   1.410156 A    
Cu1   O7    1.994619 S    
N7    O18   1.301102 A    
N2    C32   1.374474 A    
C35   C36   1.426776 A    
N8    O20   1.301073 A    
C27   C28   1.424196 A    
N10   O23   1.300521 A    
N8    O19   1.301216 A    
C5    N9    1.468040 S    
C13   C14   1.404109 A    
C33   C39   1.416368 A    
C8    H12   1.103638 S    
C17   C22   1.411527 A    
C34   C40   1.419421 A    
C18   C25   1.399153 A    
O1    C1    1.311683 A    
C4    C11   1.496713 S    
C7    C11   1.567015 S    
C17   C18   1.414160 A    
C7    H11   1.111921 S    
N11   O26   1.300502 A    
C9    H13   1.113008 S    
C15   H3    1.081958 S    
C19   C20   1.396495 A    
C8    C11   1.575560 S    
Cu2   O8    1.985465 S    
C21   C22   1.408480 A    
N12   O28   1.301492 A    
C29   N1    1.381821 A    
O3    C2    1.296857 A    
N9    O22   1.300395 A    
O8    C4    1.295660 A    
C3    C14   1.457733 S    
Cu2   O6    1.978540 S    
N11   O25   1.301618 A    
C13   C18   1.407741 A    
Cu1   O5    1.966744 S    
C8    N12   1.473995 S    
C24   C25   1.390112 A    
C6    C10   1.574849 S    
C12   H16   1.110085 S    
C16   C19   1.414941 A    
O2    Cu2   1.966720 S    
N6    O15   1.297664 A    
O6    C3    1.300915 A    
O4    Cu2   1.994620 S    
C37   C42   1.408757 A    
C21   C26   1.389074 A    
C40   N8    1.428868 S    
C20   C21   1.398230 A    
C23   C28   1.420132 A    
C31   H9    1.077913 S    
C19   N14   1.436971 S    
C9    H14   1.107222 S    
C13   N13   1.435725 S    
C41   C42   1.388106 A    
C26   C27   1.392803 A    
C32   C34   1.428032 A    
O2    C1    1.291046 A    
N10   O24   1.301575 A    
N12   O27   1.301483 A    
Cu2   N2    2.025815 S    
C7    N11   1.464090 S    
N3    O9    1.301661 A    
C30   C38   1.415785 A    
C6    H2    1.112461 S    
C9    C12   1.554239 S    
C15   C16   1.399620 A    
C35   C37   1.402226 A    
C29   N5    1.421787 S    
C26   H8    1.078156 S    
C38   C41   1.403082 A    
