data_mof_unit_6730.cif
_audit_creation_date              2013-03-05T16:11:03-0500
_audit_creation_method            fapswitch 2.2
_symmetry_space_group_name_H-M    P1
_symmetry_Int_Tables_number       1
_space_group_crystal_system       triclinic
_cell_length_a                    10.827154
_cell_length_b                    9.424583
_cell_length_c                    10.625899
_cell_angle_alpha                 89.780187
_cell_angle_beta                  90.86931
_cell_angle_gamma                 90.829414
_cell_volume                      1084.03624791

loop_
_atom_site_label
_atom_site_type_symbol
_atom_site_description
_atom_site_fract_x
_atom_site_fract_y
_atom_site_fract_z
_atom_type_partial_charge
O1    O     O_R   0.317570 0.620260 0.500070 -0.609308
O2    O     O_R   0.317570 0.379740 0.500070 -0.602069
C1    C     C_R   0.260080 0.499378 0.498869 0.803515
O3    O     O_R   0.499850 0.620240 0.316900 -0.587794
O4    O     O_R   0.499850 0.379760 0.316900 -0.606738
C2    C     C_R   0.498353 0.500299 0.259356 0.802712
Cu1   Cu    Cu3+1 0.499860 0.642410 0.500060 0.963918
Cu2   Cu    Cu3+1 0.499860 0.357590 0.500060 0.940582
O5    O     O_R   0.682190 0.620260 0.500030 -0.524301
O6    O     O_R   0.682190 0.379740 0.500030 -0.578983
O7    O     O_R   0.499910 0.620280 0.683200 -0.590707
O8    O     O_R   0.499910 0.379720 0.683200 -0.587652
C3    C     C_R   0.740547 0.501239 0.502797 0.918855
C4    C     C_R   0.497956 0.499761 0.740790 0.875136
C5    C     C_3   0.479888 0.633574 0.040326 -0.174360
C6    C     C_3   0.404729 0.415742 0.040884 -0.174785
C7    C     C_3   0.388119 0.548161 0.956135 -0.192174
C8    C     C_3   0.497236 0.499571 0.877813 -0.004483
C9    C     C_3   0.588927 0.585134 0.959785 -0.062483
C10   C     C_3   0.513836 0.367062 0.960210 -0.125100
C11   C     C_3   0.605701 0.452590 0.044158 -0.099566
C12   C     C_3   0.496752 0.501037 0.122549 -0.012318
H1    H     H_    0.663540 0.656404 0.925011 0.204976
H2    H     H_    0.527834 0.257870 0.924779 0.147621
C13   C     C_3   0.077188 0.654481 0.493181 -0.421975
C14   C     C_3   0.077699 0.430213 0.624714 -0.427867
H3    H     H_    0.101374 0.696677 0.398308 0.189991
H4    H     H_    0.122010 0.325630 0.639750 0.204035
H5    H     H_    0.129170 0.725027 0.559087 0.208331
H6    H     H_    0.112541 0.497722 0.703580 0.194360
C15   C     C_3   0.936122 0.663543 0.513665 0.535021
C16   C     C_3   0.933012 0.414677 0.625753 0.546388
H7    H     H_    0.105785 0.463166 0.297987 0.169173
H8    H     H_    0.095142 0.305278 0.390840 0.227070
C17   C     C_3   0.068165 0.418595 0.386970 -0.364458
C18   C     C_3   0.123046 0.499602 0.501166 -0.044563
C19   C     C_3   0.879747 0.504172 0.507991 -0.229133
C20   C     C_3   0.926211 0.430804 0.385183 -0.422776
C21   C     C_3   0.607934 0.085681 0.435585 -0.176796
C22   C     C_3   0.607364 0.918746 0.435278 -0.125664
H9    H     H_    0.695374 0.123331 0.480710 0.225073
H10   H     H_    0.693507 0.883815 0.481052 0.245466
H11   H     H_    0.586773 0.123215 0.684012 0.206232
H12   H     H_    0.586497 0.878530 0.684401 0.206100
C23   C     C_3   0.503486 0.083230 0.632376 -0.187638
C24   C     C_3   0.503429 0.916048 0.632407 -0.189774
C25   C     C_3   0.388205 0.082393 0.439232 -0.188717
C26   C     C_3   0.388044 0.914943 0.439518 -0.194261
N1    N     N_3   0.500250 0.143650 0.502780 -0.144111
N2    N     N_3   0.500250 0.856350 0.502780 -0.155083
H13   H     H_    0.381601 0.122218 0.340707 0.145537
H14   H     H_    0.380562 0.875123 0.341233 0.145316
H15   H     H_    0.299201 0.587081 0.916798 0.162989
H16   H     H_    0.897720 0.488367 0.298953 0.226661
H17   H     H_    0.883500 0.323818 0.373006 0.224050
H18   H     H_    0.608878 0.125967 0.337079 0.145587
H19   H     H_    0.608250 0.879409 0.336760 0.171372
H20   H     H_    0.303732 0.118451 0.487145 0.171637
H21   H     H_    0.303687 0.877220 0.488223 0.166076
H22   H     H_    0.422253 0.120191 0.685451 0.144856
H23   H     H_    0.422080 0.876162 0.685443 0.150628
H24   H     H_    0.465982 0.742746 0.075845 0.147613
H25   H     H_    0.329390 0.346638 0.077440 0.146154
H26   H     H_    0.694753 0.413736 0.083232 0.159533
N3    N     N_R   0.911847 0.729513 0.637686 0.146981
O9    O     O_R   0.803852 0.780393 0.661486 -0.336104
O10   O     O_R   0.997383 0.742479 0.724661 -0.347716
N4    N     N_R   0.888062 0.467139 0.747703 0.148668
O11   O     O_R   0.772304 0.497721 0.759721 -0.381627
O12   O     O_R   0.951138 0.441186 0.850425 -0.335145
N5    N     N_R   0.888798 0.760193 0.414274 0.097372
O13   O     O_R   0.823386 0.715905 0.318102 -0.419368
O14   O     O_R   0.924554 0.892718 0.415750 -0.327878
N6    N     N_R   0.897371 0.262390 0.616472 0.119744
O15   O     O_R   0.957803 0.175567 0.545924 -0.363359
O16   O     O_R   0.816374 0.208243 0.692939 -0.318493

loop_
_geom_bond_atom_site_label_1
_geom_bond_atom_site_label_2
_geom_bond_distance
_ccdc_geom_bond_type
C13   C15   1.549664 S    
C23   H22   1.112827 S    
C14   C16   1.571472 S    
C4    C8    1.456125 S    
C17   C18   1.542871 S    
Cu1   Cu2   2.684309 S    
C25   N1    1.489568 S    
C23   C24   1.575612 S    
Cu1   O7    1.956370 S    
N6    O16   1.301987 A    
C9    C11   1.546038 S    
C8    C9    1.533132 S    
C16   N6    1.484063 S    
O4    C2    1.288257 A    
O7    C4    1.288187 A    
C2    C12   1.453530 S    
C15   N3    1.487908 S    
H8    C17   1.111702 S    
O5    C3    1.295399 A    
C11   H26   1.110412 S    
C5    C9    1.543981 S    
C5    C12   1.533089 S    
C20   H17   1.110382 S    
C25   C26   1.578107 S    
C6    C7    1.547180 S    
N3    O10   1.303207 A    
C6    H25   1.110283 S    
C3    C19   1.507166 S    
C6    C10   1.546046 S    
C16   N4    1.480372 S    
C22   H10   1.099428 S    
C11   C12   1.530398 S    
O3    Cu1   1.958218 S    
H12   C24   1.109864 S    
C13   H5    1.109060 S    
N6    O15   1.301811 A    
C24   H23   1.112893 S    
C10   H2    1.110380 S    
C17   C20   1.542750 S    
O3    C2    1.287008 A    
C21   C22   1.573228 S    
N5    O14   1.302332 A    
N4    O11   1.298381 A    
C25   H13   1.112439 S    
C15   C19   1.614074 S    
O1    C1    1.290294 A    
C9    H1    1.109853 S    
C19   C20   1.571942 S    
C21   H18   1.112217 S    
C20   H16   1.105214 S    
C23   N1    1.488255 S    
Cu2   O8    1.957959 S    
C7    C8    1.531836 S    
C16   C19   1.610564 S    
C26   N2    1.491483 S    
H11   C23   1.110391 S    
C14   C18   1.547852 S    
C21   N1    1.488066 S    
O8    C4    1.288891 A    
C14   H6    1.112183 S    
C7    H15   1.110385 S    
C26   H21   1.109949 S    
Cu1   O5    1.988129 S    
C6    C12   1.532275 S    
C22   H19   1.112118 S    
O1    Cu1   1.981684 S    
O2    Cu2   1.987694 S    
Cu1   N2    2.016556 S    
O6    C3    1.300016 A    
O4    Cu2   1.956625 S    
C5    C7    1.546267 S    
C13   H3    1.115764 S    
C24   N2    1.489604 S    
C14   H4    1.112367 S    
O2    C1    1.295735 A    
N5    O13   1.301094 A    
C25   H20   1.111588 S    
C1    C18   1.484297 S    
C22   N2    1.485781 S    
C15   N5    1.482355 S    
H7    C17   1.113585 S    
C5    H24   1.110377 S    
C8    C10   1.533572 S    
C13   C18   1.550198 S    
C26   H14   1.112504 S    
C10   C11   1.546007 S    
C21   H9    1.109015 S    
Cu2   O6    1.982119 S    
N3    O9    1.298927 A    
N4    O12   1.303004 A    
Cu2   N1    2.016456 S    
