data_mof_unit_53754.cif
_audit_creation_date              2012-10-26T19:06:51-0400
_audit_creation_method            fapswitch 2.2
_symmetry_space_group_name_H-M    P1
_symmetry_Int_Tables_number       1
_space_group_crystal_system       triclinic
_cell_length_a                    12.318196
_cell_length_b                    13.188993
_cell_length_c                    27.81099
_cell_angle_alpha                 77.682362
_cell_angle_beta                  101.110609
_cell_angle_gamma                 116.562821
_cell_volume                      3923.78257994

loop_
_atom_site_label
_atom_site_type_symbol
_atom_type_description
_atom_site_fract_x
_atom_site_fract_y
_atom_site_fract_z
_atom_type_partial_charge
C1    C     C_R   0.854865 0.286591 0.504567 0.527372
C2    C     C_R   0.899488 0.413663 0.025725 0.018236
C3    C     C_R   0.098574 0.583244 0.025351 0.018298
C4    C     C_R   0.999350 0.499833 0.592379 0.545402
C5    C     C_R   0.999534 0.498145 0.050857 0.033764
C6    C     C_R   0.801258 0.333701 0.052597 -0.140088
C7    C     C_R   0.802928 0.334643 0.102557 -0.112641
C8    C     C_R   0.902039 0.415537 0.127813 0.024563
C9    C     C_R   0.000518 0.497580 0.102149 -0.027143
C10   C     C_R   0.099922 0.579140 0.127912 0.024833
C11   C     C_R   0.098706 0.577625 0.178439 0.396852
C12   C     C_R   0.083577 0.476584 0.730909 -0.058589
C13   C     C_R   0.904665 0.416616 0.178397 0.396447
C14   C     C_R   0.087869 0.473575 0.289436 -0.059035
C15   C     C_R   0.087777 0.474454 0.339475 -0.146236
C16   C     C_R   0.145022 0.713357 0.492920 0.552283
C17   C     C_R   0.915102 0.523879 0.319116 -0.147627
C18   C     C_R   0.915574 0.523175 0.269121 -0.057898
C19   C     C_R   0.001789 0.497907 0.254079 0.240455
C20   C     C_R   0.900414 0.412128 0.974829 0.018326
C21   C     C_R   0.997474 0.499487 0.948952 0.033799
C22   C     C_R   0.095496 0.586216 0.973710 0.018245
C23   C     C_R   0.996007 0.500076 0.745866 0.241990
C24   C     C_R   0.807624 0.325530 0.948683 -0.140088
C25   C     C_R   0.184588 0.673784 0.895479 -0.112677
C26   C     C_R   0.198063 0.662316 0.052740 -0.140155
C27   C     C_R   0.198280 0.660315 0.102866 -0.112791
C28   C     C_R   0.000507 0.500009 0.407621 0.549437
C29   C     C_R   0.187032 0.673721 0.945595 -0.139998
C30   C     C_R   0.275837 0.021488 0.434862 -0.126713
C31   C     C_R   0.227733 0.834543 0.483233 -0.000486
C32   C     C_R   0.814751 0.086185 0.538832 -0.134252
C33   C     C_R   0.735425 0.971938 0.549772 -0.137176
C34   C     C_R   0.996562 0.500084 0.897664 -0.027165
C35   C     C_R   0.612149 0.934146 0.532410 -0.118234
C36   C     C_R   0.565881 0.010024 0.501763 0.032703
C37   C     C_R   0.649778 0.123722 0.486270 0.023674
C38   C     C_R   0.439419 0.976531 0.485472 0.029355
C39   C     C_R   0.400271 0.053441 0.451194 0.050585
C40   C     C_R   0.902904 0.415292 0.822173 0.396894
C41   C     C_R   0.485845 0.160017 0.432385 -0.134093
C42   C     C_R   0.608822 0.193772 0.448834 -0.115003
C43   C     C_R   0.350266 0.868695 0.502183 -0.132623
C44   C     C_R   0.189868 0.912080 0.450550 -0.132380
C45   C     C_R   0.901642 0.413520 0.872724 0.024913
C46   C     C_R   0.772833 0.163694 0.508257 -0.006862
C47   C     C_R   0.342393 0.324365 0.577755 -0.140412
C48   C     C_R   0.759952 0.646210 0.433502 0.052672
C49   C     C_R   0.663333 0.677676 0.419249 -0.153469
C50   C     C_R   0.559459 0.621689 0.444215 -0.127327
C51   C     C_R   0.550827 0.532869 0.484095 -0.016222
C52   C     C_R   0.088289 0.585978 0.820639 0.397247
C53   C     C_R   0.652370 0.504156 0.497456 0.145735
C54   C     C_R   0.446168 0.472309 0.511242 -0.040302
C55   C     C_R   0.443654 0.382022 0.550320 0.046131
C56   C     C_R   0.808329 0.326599 0.898716 -0.112763
C57   C     C_R   0.542668 0.351824 0.562279 0.104436
C58   C     C_R   0.646093 0.416197 0.537041 -0.079434
C59   C     C_R   0.342685 0.497385 0.501286 0.040765
C60   C     C_R   0.244672 0.353756 0.566149 0.034422
C61   C     C_R   0.909337 0.523340 0.710525 -0.058859
C62   C     C_R   0.910457 0.523563 0.660470 -0.158672
C63   C     C_R   0.084658 0.476345 0.680920 -0.144688
C64   C     C_3   0.642303 0.234623 0.619009 -0.294984
C65   C     C_R   0.090652 0.587182 0.871180 0.024208
C66   C     C_R   0.998112 0.499910 0.645206 -0.003386
C67   C     C_R   0.001227 0.499497 0.354786 0.003028
Cu1   Cu    Cu3+1 0.098270 0.475420 0.511360 0.931785
Cu2   Cu    Cu3+1 0.901730 0.524580 0.488640 0.913844
H1    H     H_    0.153209 0.457724 0.670312 0.132645
H2    H     H_    0.457714 0.217457 0.404519 0.113265
H3    H     H_    0.245557 0.079878 0.408700 0.112629
H4    H     H_    0.150608 0.458244 0.758118 0.130974
H5    H     H_    0.373451 0.808060 0.529445 0.121008
H6    H     H_    0.908666 0.114473 0.555505 0.129711
H7    H     H_    0.556446 0.844476 0.542921 0.107387
H8    H     H_    0.769005 0.912760 0.573192 0.124698
H9    H     H_    0.671162 0.274431 0.430675 0.155447
H10   H     H_    0.166740 0.308896 0.587073 0.121220
H11   H     H_    0.338093 0.257471 0.608608 0.121797
H12   H     H_    0.841530 0.541760 0.721889 0.132981
H13   H     H_    0.336292 0.563404 0.472103 0.121800
H14   H     H_    0.840230 0.690037 0.413941 0.124603
H15   H     H_    0.734997 0.258289 0.880526 0.165509
H16   H     H_    0.668896 0.745639 0.388715 0.113013
H17   H     H_    0.720599 0.394603 0.548933 0.191193
H18   H     H_    0.155223 0.455299 0.366092 0.129814
H19   H     H_    0.154593 0.453653 0.278090 0.131759
H20   H     H_    0.720041 0.269654 0.036116 0.110368
H21   H     H_    0.733341 0.253996 0.965760 0.109923
H22   H     H_    0.457584 0.180268 0.592830 0.255160
H23   H     H_    0.257190 0.742598 0.875791 0.166121
H24   H     H_    0.619630 0.163589 0.650489 0.164970
H25   H     H_    0.716101 0.312184 0.633208 0.161970
H26   H     H_    0.673668 0.209652 0.590418 0.142508
H27   H     H_    0.487577 0.649617 0.431376 0.105183
H28   H     H_    0.725404 0.271386 0.121321 0.166365
H29   H     H_    0.842600 0.541985 0.633820 0.133794
H30   H     H_    0.278825 0.726469 0.036877 0.110067
H31   H     H_    0.847433 0.543655 0.329756 0.129595
H32   H     H_    0.276572 0.723094 0.121974 0.165528
H33   H     H_    0.849092 0.542555 0.241971 0.133405
H34   H     H_    0.261648 0.745079 0.960864 0.110244
H35   H     H_    0.095030 0.886602 0.435500 0.125050
N1    N     N_R   0.995490 0.500631 0.797306 -0.397659
N2    N     N_R   0.001906 0.497159 0.202569 -0.397163
N3    N     N_R   0.246290 0.438210 0.528570 -0.233818
N4    N     N_R   0.754320 0.561170 0.471730 -0.236120
N5    N     N_2   0.534720 0.254358 0.598872 -0.523951
O1    O     O_R   0.972510 0.318140 0.514280 -0.500120
O2    O     O_R   0.082990 0.479230 0.439860 -0.502966
O3    O     O_R   0.917010 0.520730 0.420680 -0.512869
O4    O     O_2   0.812982 0.331916 0.798136 -0.502374
O5    O     O_2   0.811195 0.337318 0.203339 -0.500768
O6    O     O_2   0.177646 0.669691 0.794914 -0.498855
O7    O     O_2   0.192877 0.656688 0.203150 -0.501544
O8    O     O_R   0.806530 0.359640 0.495100 -0.533403
O9    O     O_R   0.082990 0.479270 0.579320 -0.500707
O10   O     O_R   0.917010 0.520770 0.560140 -0.523732
O11   O     O_R   0.193470 0.640360 0.504900 -0.506221
O12   O     O_R   0.027490 0.681860 0.485720 -0.501660

loop_
_geom_bond_atom_site_label_1
_geom_bond_atom_site_label_2
_ccdc_geom_bond_type
C10   C27   A    
C60   H10   S    
C8    C13   A    
C22   C29   A    
C41   C42   A    
C35   C36   A    
C59   H13   S    
C4    O9    A    
C32   H6    S    
C44   H35   S    
C7    C8    A    
C39   C41   A    
C28   O3    A    
C16   C31   S    
C12   C23   A    
C26   C27   A    
C31   C43   A    
C47   C55   A    
C36   C37   A    
C64   H24   S    
C16   O11   A    
C38   C39   A    
Cu2   O3    S    
C1    C46   S    
C23   N1    S    
C29   H34   S    
C18   C19   A    
C18   H33   S    
C37   C42   A    
C33   H8    S    
Cu1   O9    S    
C47   C60   A    
C62   H29   S    
C57   N5    S    
C20   C24   A    
C45   C56   A    
Cu1   Cu2   S    
C4    O10   A    
Cu1   N3    S    
C9    C10   A    
C13   O5    S    
C26   H30   S    
C41   H2    S    
C43   H5    S    
C63   C66   A    
C21   C22   A    
C30   C44   A    
C2    C6    A    
C47   H11   S    
C58   H17   S    
C34   C65   A    
Cu2   N4    S    
C56   H15   S    
C54   C59   A    
C28   O2    A    
C25   C29   A    
C40   C45   A    
C35   H7    S    
C17   C67   A    
C31   C44   A    
C62   C66   A    
C2    C20   A    
C49   H16   S    
C28   C67   S    
C25   C65   A    
C12   C63   A    
C8    C9    A    
Cu1   O1    S    
C21   C34   A    
C50   C51   A    
C27   H32   S    
C59   N3    A    
C51   C53   A    
Cu1   O2    S    
C16   O12   A    
C5    C9    A    
C1    O1    A    
C40   O4    S    
C63   H1    S    
Cu2   O12   S    
C15   C67   A    
C11   N2    A    
C17   C18   A    
C34   C45   A    
C1    O8    A    
C11   O7    S    
C60   N3    A    
C48   C49   A    
C52   N1    A    
C42   H9    S    
C64   N5    S    
C55   C57   A    
C2    C5    A    
C15   H18   S    
C52   O6    S    
C54   C55   A    
C25   H23   S    
C7    H28   S    
C32   C46   A    
C14   C19   A    
C3    C26   A    
C64   H26   S    
C13   N2    A    
C3    C5    A    
C24   H21   S    
C30   H3    S    
C53   C58   A    
C6    C7    A    
C24   C56   A    
C6    H20   S    
C48   H14   S    
C51   C54   A    
C32   C33   A    
H22   N5    S    
C36   C38   A    
C14   H19   S    
C38   C43   A    
C61   H12   S    
Cu1   O11   S    
C4    C66   S    
C53   N4    A    
C50   H27   S    
C57   C58   A    
C48   N4    A    
Cu2   O8    S    
C33   C35   A    
Cu2   O10   S    
C30   C39   A    
C61   C62   A    
C17   H31   S    
C10   C11   A    
C64   H25   S    
C19   N2    S    
C23   C61   A    
C20   C21   A    
C49   C50   A    
C14   C15   A    
C3    C22   A    
C37   C46   A    
C12   H4    S    
C52   C65   A    
C40   N1    A    
