data_mof_unit_9494.cif
_audit_creation_date              2012-12-11T15:21:40-0500
_audit_creation_method            fapswitch 2.2
_symmetry_space_group_name_H-M    P1
_symmetry_Int_Tables_number       1
_space_group_crystal_system       triclinic
_cell_length_a                    18.9309
_cell_length_b                    7.198423
_cell_length_c                    18.155956
_cell_angle_alpha                 90.0
_cell_angle_beta                  108.495059
_cell_angle_gamma                 89.999806
_cell_volume                      2346.37195864

loop_
_atom_site_label
_atom_site_type_symbol
_atom_type_description
_atom_site_fract_x
_atom_site_fract_y
_atom_site_fract_z
_atom_type_partial_charge
O1    O     O_R   0.562310 0.505770 0.439670 -0.543426
O2    O     O_R   0.437690 0.005770 0.560330 -0.543427
O3    O     O_R   0.411650 0.169150 0.405330 -0.494918
O4    O     O_R   0.588350 0.669150 0.594670 -0.494925
C1    C     C_R   0.383468 0.346686 0.384997 0.842141
C2    C     C_R   0.616532 0.846686 0.615003 0.842140
O5    O     O_R   0.560140 0.175610 0.430010 -0.518600
O6    O     O_R   0.439860 0.675610 0.569990 -0.518612
O7    O     O_R   0.587240 0.012100 0.585200 -0.541748
O8    O     O_R   0.412760 0.512100 0.414800 -0.541749
C3    C     C_R   0.580758 0.345018 0.414990 0.728014
C4    C     C_R   0.419242 0.845018 0.585010 0.728016
O9    O     O_3   0.508720 0.341420 0.550890 -0.378573
O10   O     O_3   0.491280 0.841420 0.449110 -0.378566
V1    V     V_3+5 0.498380 0.063930 0.490560 1.609450
V2    V     V_3+5 0.501620 0.563930 0.509440 1.609431
C5    C     C_R   0.187505 0.042104 0.871371 0.033235
C6    C     C_R   0.812498 0.542118 0.128635 0.033247
C7    C     C_R   0.126704 0.920020 0.860488 -0.163465
C8    C     C_R   0.873296 0.420023 0.139513 -0.163464
C9    C     C_R   0.111214 0.790600 0.799435 0.516602
C10   C     C_R   0.888787 0.290602 0.200566 0.516589
C11   C     C_R   0.155684 0.781146 0.749088 -0.034901
C12   C     C_R   0.844323 0.281164 0.250919 -0.034903
C13   C     C_R   0.214350 0.911207 0.759188 -0.085970
C14   C     C_R   0.785658 0.411223 0.240821 -0.085966
C15   C     C_R   0.224114 0.055368 0.814640 0.019405
C16   C     C_R   0.775893 0.555384 0.185369 0.019412
C17   C     C_R   0.144051 0.644235 0.689853 0.125885
C18   C     C_R   0.855964 0.144272 0.310162 0.125921
C19   C     C_R   0.199325 0.614370 0.653253 0.112857
C20   C     C_R   0.800692 0.114400 0.346764 0.112815
C21   C     C_R   0.257798 0.746320 0.662833 0.005100
C22   C     C_R   0.742210 0.246332 0.337175 0.005094
C23   C     C_R   0.264295 0.896481 0.715129 -0.116204
C24   C     C_R   0.735713 0.396496 0.284881 -0.116205
C25   C     C_R   0.322583 0.028953 0.725961 -0.045376
C26   C     C_R   0.677425 0.528968 0.274049 -0.045377
C27   C     C_R   0.322311 0.188303 0.771382 0.592445
C28   C     C_R   0.677698 0.688323 0.228631 0.592450
C29   C     C_R   0.272145 0.205393 0.813137 0.034908
C30   C     C_R   0.727864 0.705413 0.186876 0.034907
C31   C     C_R   0.308900 0.735377 0.620089 0.583767
C32   C     C_R   0.691101 0.235374 0.379912 0.583797
C33   C     C_R   0.369451 0.858220 0.634157 -0.173759
C34   C     C_R   0.630551 0.358221 0.365845 -0.173760
C35   C     C_R   0.378449 0.001393 0.689889 -0.003852
C36   C     C_R   0.621557 0.501404 0.310117 -0.003841
C37   C     C_3   0.753205 0.777475 0.829499 0.443899
C38   C     C_3   0.246796 0.277474 0.170501 0.443889
C39   C     C_3   0.682066 0.752327 0.755573 0.522539
C40   C     C_3   0.317938 0.252333 0.244426 0.522536
C41   C     C_3   0.834436 0.825359 0.733794 -0.090581
C42   C     C_3   0.165565 0.325362 0.266205 -0.090584
C43   C     C_3   0.775441 0.097320 0.785654 1.051302
C44   C     C_3   0.224559 0.597319 0.214344 1.051285
C45   C     C_3   0.814560 0.903835 0.808962 -0.354997
C46   C     C_3   0.185441 0.403835 0.191037 -0.354981
C47   C     C_3   0.689013 0.870713 0.684677 -0.414500
C48   C     C_3   0.310988 0.370713 0.315322 -0.414501
C49   C     C_3   0.758831 0.798223 0.663379 1.038276
C50   C     C_3   0.241170 0.298217 0.336618 1.038276
C51   C     C_3   0.705244 0.083353 0.710488 0.385211
C52   C     C_3   0.294756 0.583354 0.289511 0.385201
O11   O     O_R   0.087220 0.271820 0.085230 -0.574962
O12   O     O_R   0.912780 0.771820 0.914770 -0.574964
O13   O     O_R   0.939860 0.595540 0.069990 -0.553605
O14   O     O_R   0.060140 0.095540 0.930010 -0.553608
C53   C     C_R   0.919949 0.426588 0.086194 0.732519
C54   C     C_R   0.080050 0.926588 0.913805 0.732530
O15   O     O_R   0.088340 0.601930 0.094680 -0.491812
O16   O     O_R   0.911660 0.101930 0.905320 -0.491814
O17   O     O_R   0.062310 0.765410 0.939660 -0.506447
O18   O     O_R   0.937690 0.265410 0.060340 -0.506442
C55   C     C_R   0.115192 0.429952 0.118490 0.855566
C56   C     C_R   0.884808 0.929952 0.881509 0.855565
O19   O     O_3   0.991270 0.429630 0.949130 -0.374353
O20   O     O_3   0.008730 0.929630 0.050870 -0.374345
V3    V     V_3+5 0.001620 0.707150 0.009440 1.544364
V4    V     V_3+5 0.998380 0.207150 0.990560 1.544359
C57   C     C_3   0.225694 0.112679 0.952212 -0.655414
H1    H     H_    0.230995 0.993458 0.991969 0.194608
H2    H     H_    0.284036 0.156050 0.961931 0.231641
H3    H     H_    0.193842 0.228848 0.966555 0.242506
C58   C     C_3   0.774309 0.612705 0.047796 -0.655412
H4    H     H_    0.769002 0.493486 0.008036 0.194605
H5    H     H_    0.715968 0.656085 0.038081 0.231637
H6    H     H_    0.806162 0.728869 0.033453 0.242503
F1    F     F_    0.733330 0.867710 0.887727 -0.662136
F2    F     F_    0.266668 0.367704 0.112270 -0.662142
C59   C     C_3   0.609792 0.788478 0.776230 -0.448804
H7    H     H_    0.607770 0.928469 0.800584 0.251156
H8    H     H_    0.559473 0.766568 0.725341 0.133045
H9    H     H_    0.606157 0.687228 0.821076 0.212035
C60   C     C_3   0.390210 0.288498 0.223767 -0.448786
H10   H     H_    0.392227 0.428488 0.199411 0.251163
H11   H     H_    0.440529 0.266597 0.274657 0.133038
H12   H     H_    0.393847 0.187247 0.178923 0.212030
F3    F     F_    0.675761 0.567339 0.732772 -0.628836
F4    F     F_    0.324249 0.067346 0.267228 -0.628829
C61   C     C_3   0.879213 0.640207 0.748346 -0.510777
H13   H     H_    0.844594 0.519905 0.747212 0.268222
H14   H     H_    0.901812 0.608810 0.700196 0.220215
H15   H     H_    0.927174 0.641279 0.802123 0.248145
C62   C     C_3   0.120783 0.140217 0.251652 -0.510781
H16   H     H_    0.155396 0.019911 0.252775 0.268214
H17   H     H_    0.098192 0.108814 0.299807 0.220211
H18   H     H_    0.072817 0.141309 0.197880 0.248145
F5    F     F_    0.747251 0.614345 0.641410 -0.663803
F6    F     F_    0.252749 0.114335 0.358580 -0.663803
F7    F     F_    0.827104 0.222216 0.777095 -0.764834
F8    F     F_    0.172896 0.722217 0.222903 -0.764832
F9    F     F_    0.753559 0.168760 0.845997 -0.589435
F10   F     F_    0.246442 0.668757 0.154002 -0.589443
F11   F     F_    0.644499 0.150391 0.729512 -0.623699
F12   F     F_    0.355501 0.650395 0.270489 -0.623696
C63   C     C_3   0.711649 0.215902 0.643997 -0.385113
H19   H     H_    0.766559 0.279948 0.653348 0.224447
H20   H     H_    0.698060 0.150616 0.586277 0.215377
H21   H     H_    0.670937 0.330813 0.635434 0.294408
C64   C     C_3   0.288350 0.715900 0.356003 -0.385124
H22   H     H_    0.233441 0.779954 0.346649 0.224460
H23   H     H_    0.301934 0.650607 0.413721 0.215388
H24   H     H_    0.329064 0.830805 0.364570 0.294406
C65   C     C_3   0.888176 0.960746 0.709696 -0.544114
H25   H     H_    0.910888 0.897373 0.666075 0.210198
H26   H     H_    0.860794 0.087580 0.680469 0.240049
H27   H     H_    0.936431 0.000130 0.760602 0.195922
C66   C     C_3   0.111827 0.460754 0.290305 -0.544133
H28   H     H_    0.089113 0.397381 0.333925 0.210193
H29   H     H_    0.139212 0.587582 0.319534 0.240056
H30   H     H_    0.063573 0.500149 0.239400 0.195921
F13   F     F_    0.056706 0.664667 0.794546 -0.725613
F14   F     F_    0.943284 0.164644 0.205447 -0.725597
F15   F     F_    0.763612 0.885285 0.597119 -0.685805
F16   F     F_    0.236390 0.385266 0.402881 -0.685791
C67   C     C_3   0.071625 0.535677 0.662694 -0.646167
H31   H     H_    0.072603 0.420417 0.703668 0.241481
H32   H     H_    0.023645 0.629306 0.657325 0.230549
H33   H     H_    0.060510 0.477846 0.603481 0.179517
C68   C     C_3   0.928401 0.035766 0.337335 -0.646173
H34   H     H_    0.927428 0.920443 0.296391 0.241466
H35   H     H_    0.976372 0.129404 0.342670 0.230542
H36   H     H_    0.939532 0.978032 0.396566 0.179519
C69   C     C_3   0.199134 0.432860 0.610396 -0.578181
H37   H     H_    0.256329 0.375576 0.625198 0.258405
H38   H     H_    0.167441 0.321695 0.628337 0.162034
H39   H     H_    0.175395 0.454718 0.546749 0.256769
C70   C     C_3   0.800900 0.932912 0.389641 -0.578186
H40   H     H_    0.743714 0.875558 0.374814 0.258392
H41   H     H_    0.832636 0.821771 0.371746 0.162043
H42   H     H_    0.824601 0.954833 0.453288 0.256811
F17   F     F_    0.297859 0.613865 0.560262 -0.680619
F18   F     F_    0.702130 0.113833 0.439727 -0.680620
C71   C     C_3   0.449480 0.116355 0.714332 -0.478747
H43   H     H_    0.495580 0.051445 0.698611 0.175462
H44   H     H_    0.438988 0.255586 0.686670 0.254992
H45   H     H_    0.470792 0.129575 0.778558 0.226742
C72   C     C_3   0.550526 0.616369 0.285674 -0.478735
H46   H     H_    0.504424 0.551457 0.301390 0.175460
H47   H     H_    0.561017 0.755597 0.313339 0.255003
H48   H     H_    0.529217 0.629599 0.221447 0.226733
F19   F     F_    0.367424 0.335609 0.771996 -0.707025
F20   F     F_    0.632588 0.835633 0.228021 -0.707018
C73   C     C_3   0.267151 0.392638 0.849311 -0.624418
H49   H     H_    0.213767 0.410807 0.861540 0.214208
H50   H     H_    0.314935 0.411812 0.903133 0.227977
H51   H     H_    0.269546 0.505831 0.808876 0.231566
C74   C     C_3   0.732859 0.892660 0.150703 -0.624417
H52   H     H_    0.786243 0.910825 0.138473 0.214223
H53   H     H_    0.685074 0.911839 0.096882 0.227971
H54   H     H_    0.730466 0.005851 0.191140 0.231565
C75   C     C_3   0.777227 0.584928 0.866347 -0.412567
H55   H     H_    0.795453 0.490802 0.829824 0.256300
H56   H     H_    0.820538 0.589778 0.923108 0.161191
H57   H     H_    0.728439 0.517003 0.876468 0.241480
C76   C     C_3   0.222777 0.084922 0.133658 -0.412581
H58   H     H_    0.204569 0.990792 0.170191 0.256326
H59   H     H_    0.179459 0.089754 0.076902 0.161200
H60   H     H_    0.271565 0.017012 0.123529 0.241472

loop_
_geom_bond_atom_site_label_1
_geom_bond_atom_site_label_2
_ccdc_geom_bond_type
O14   V4    S    
O15   C55   A    
C73   H49   S    
C52   F12   S    
C71   H44   S    
C74   H52   S    
C62   H16   S    
C60   H10   S    
O1    C3    A    
O16   C56   A    
O2    C4    A    
C3    C34   S    
C69   H39   S    
C2    O7    A    
C37   C75   S    
C57   H1    S    
C60   H12   S    
C27   C29   A    
C75   H55   S    
O5    C3    A    
O12   V3    S    
C67   H32   S    
C61   H13   S    
C18   C68   S    
C10   F14   S    
C11   C17   A    
C45   C56   S    
C23   C25   A    
C12   C14   A    
C28   F20   S    
C70   H41   S    
C51   C63   S    
C75   H57   S    
C52   C64   S    
C37   C45   S    
C40   C60   S    
C48   C50   S    
C33   C35   A    
C50   F16   S    
C64   H24   S    
C40   C48   S    
C39   C59   S    
C41   C49   S    
C38   F2    S    
C20   C70   S    
C41   C61   S    
C37   C39   S    
C29   C73   S    
C65   H27   S    
C38   C40   S    
C44   C52   S    
C25   C35   A    
C26   C36   A    
C42   C62   S    
C66   H30   S    
C51   F11   S    
C58   H5    S    
C49   F5    S    
O6    V2    S    
O11   V4    S    
O18   V4    S    
C71   H45   S    
C17   C19   A    
C74   H53   S    
C73   H50   S    
C68   H34   S    
C9    F13   S    
C69   H38   S    
C32   C34   A    
C46   C55   S    
C69   H37   S    
C75   H56   S    
C9    C11   A    
C39   F3    S    
C62   H18   S    
C34   C36   A    
C47   C49   S    
C6    C58   S    
C43   F7    S    
C5    C15   A    
C38   C76   S    
C6    C16   A    
O4    C2    A    
C70   H42   S    
C59   H7    S    
C41   C45   S    
O20   V3    S    
C5    C7    A    
C43   F9    S    
C76   H59   S    
C58   H4    S    
C17   C67   S    
C40   F4    S    
O15   V3    S    
C43   C51   S    
O13   C53   A    
C68   H35   S    
C20   C22   A    
O4    V2    S    
C30   C74   S    
C59   H8    S    
C62   H17   S    
C15   C29   A    
C28   C30   A    
C72   H46   S    
C50   F6    S    
O6    C4    A    
C76   H60   S    
O12   C56   A    
C54   O17   A    
C19   C21   A    
O17   V3    S    
C72   H48   S    
C22   C32   A    
C53   O18   A    
O1    V2    S    
O2    V1    S    
C31   C33   A    
C64   H22   S    
C41   C65   S    
C13   C23   A    
C14   C24   A    
C38   C46   S    
C8    C10   A    
C73   H51   S    
C43   C45   S    
C65   H25   S    
C74   H54   S    
C10   C12   A    
C8    C53   S    
C63   H21   S    
C39   C47   S    
C27   F19   S    
C24   C26   A    
C57   H3    S    
O3    V1    S    
C36   C72   S    
C49   F15   S    
C66   H28   S    
C42   C46   S    
C58   H6    S    
C42   C66   S    
C18   C20   A    
C16   C30   A    
C1    C48   S    
C7    C9    A    
C14   C16   A    
C2    C47   S    
C37   F1    S    
C4    C33   S    
O3    C1    A    
C57   H2    S    
C6    C8    A    
C60   H11   S    
C68   H36   S    
C13   C15   A    
C42   C50   S    
C67   H31   S    
C47   C51   S    
O11   C55   A    
C61   H14   S    
C48   C52   S    
C32   F18   S    
C63   H20   S    
C72   H47   S    
O7    V1    S    
C1    O8    A    
C25   C27   A    
O8    V2    S    
C63   H19   S    
C59   H9    S    
C26   C28   A    
O19   V4    S    
C35   C71   S    
C67   H33   S    
O5    V1    S    
C21   C23   A    
C22   C24   A    
C44   C46   S    
C5    C57   S    
C11   C13   A    
C12   C18   A    
C64   H23   S    
C19   C69   S    
O16   V4    S    
C76   H58   S    
O9    V2    S    
C71   H43   S    
C65   H26   S    
O14   C54   A    
C44   F10   S    
O10   V1    S    
C7    C54   S    
C61   H15   S    
C70   H40   S    
C21   C31   A    
C31   F17   S    
C44   F8    S    
O13   V3    S    
C66   H29   S    
