data_mof_unit_34108.cif
_audit_creation_date              2012-12-10T18:52:15-0500
_audit_creation_method            fapswitch 2.2
_symmetry_space_group_name_H-M    P1
_symmetry_Int_Tables_number       1
_space_group_crystal_system       triclinic
_cell_length_a                    15.727607
_cell_length_b                    10.718119
_cell_length_c                    9.834298
_cell_angle_alpha                 89.986503
_cell_angle_beta                  89.845096
_cell_angle_gamma                 90.113766
_cell_volume                      1657.76181308

loop_
_atom_site_label
_atom_site_type_symbol
_atom_type_description
_atom_site_fract_x
_atom_site_fract_y
_atom_site_fract_z
_atom_type_partial_charge
C1    C     C_R   0.499957 0.259848 0.499963 0.864043
C2    C     C_R   0.500067 0.740152 0.500036 0.864012
C3    C     C_R   0.484531 0.936063 0.378527 -0.196541
C4    C     C_R   0.515568 0.063938 0.621457 -0.196371
C5    C     C_R   0.500104 0.872583 0.500003 -0.009752
C6    C     C_R   0.499972 0.127417 0.499987 -0.009684
C7    C     C_R   0.549357 0.582492 0.071703 -0.069924
C8    C     C_R   0.450660 0.417490 0.928297 -0.069667
C9    C     C_R   0.549334 0.582464 0.927763 -0.072607
C10   C     C_R   0.450682 0.417518 0.072237 -0.072136
C11   C     C_R   0.337823 0.499977 0.500156 0.905979
C12   C     C_R   0.662171 0.500037 0.499843 0.905366
C13   C     C_3   0.971980 0.380600 0.493980 -0.321528
C14   C     C_3   0.027931 0.620180 0.505656 -0.318621
C15   C     C_3   0.028567 0.444534 0.384578 -0.336142
C16   C     C_3   0.971354 0.556152 0.615167 -0.313632
C17   C     C_1   0.248914 0.500370 0.500559 -0.183932
C18   C     C_1   0.751068 0.499859 0.499426 -0.184342
C19   C     C_3   0.027088 0.438447 0.606863 0.596330
C20   C     C_3   0.972778 0.562326 0.392831 0.574767
C21   C     C_3   0.082814 0.501167 0.499560 0.079413
C22   C     C_3   0.917152 0.499538 0.500231 0.080587
C23   C     C_1   0.173638 0.500772 0.500494 0.000567
C24   C     C_1   0.826335 0.499687 0.499428 0.001177
C25   C     C_R   0.484444 0.063866 0.378525 -0.193997
C26   C     C_R   0.515655 0.936133 0.621459 -0.193905
H1    H     H_    0.054289 0.400342 0.291085 0.156782
H2    H     H_    0.945587 0.600322 0.708592 0.156346
H3    H     H_    0.947153 0.283596 0.491541 0.155225
H4    H     H_    0.052818 0.717132 0.508561 0.154638
H5    H     H_    0.471771 0.112489 0.284122 0.153035
H6    H     H_    0.528328 0.887507 0.715860 0.152875
H7    H     H_    0.471933 0.887381 0.284119 0.156852
H8    H     H_    0.528166 0.112622 0.715864 0.156611
H9    H     H_    0.588811 0.648404 0.126074 0.131351
H10   H     H_    0.411218 0.351562 0.873926 0.132231
H11   H     H_    0.588771 0.648363 0.872961 0.124789
H12   H     H_    0.411257 0.351604 0.127039 0.125277
N1    N     N_R   0.499980 0.499970 0.857200 -0.080396
N2    N     N_R   0.500020 0.500030 0.142800 -0.080320
O1    O     O_R   0.499990 0.316750 0.614620 -0.629954
O2    O     O_R   0.500010 0.683250 0.385380 -0.629942
O3    O     O_R   0.500000 0.316780 0.385290 -0.629017
O4    O     O_R   0.500000 0.683220 0.614710 -0.628841
O5    O     O_R   0.376780 0.499970 0.614640 -0.605308
O6    O     O_R   0.623220 0.500030 0.385360 -0.605474
O7    O     O_R   0.376780 0.500000 0.385310 -0.618393
O8    O     O_R   0.623220 0.500000 0.614690 -0.618707
Zn1   Zn    Zn3+2 0.500000 0.499980 0.653120 0.951896
Zn2   Zn    Zn3+2 0.500000 0.500020 0.346880 0.951919
O9    O     O_3   0.936335 0.626974 0.282515 -0.644672
C27   C     C_3   0.001265 0.670691 0.195474 0.071507
H13   H     H_    0.038878 0.591353 0.154124 0.139853
H14   H     H_    0.044393 0.735867 0.250464 0.138602
C28   C     C_3   0.960755 0.740597 0.076767 -0.318010
H15   H     H_    0.914555 0.678477 0.024513 0.226667
H16   H     H_    0.925675 0.822995 0.116209 0.226682
C29   C     C_3   0.027574 0.784235 0.974328 -0.987100
H17   H     H_    0.073360 0.848816 0.023743 0.269793
H18   H     H_    0.995972 0.834167 0.889466 0.265995
H19   H     H_    0.062624 0.703180 0.931835 0.269624
O10   O     O_3   0.062305 0.373270 0.717958 -0.644198
C30   C     C_3   0.997308 0.324198 0.802403 0.077376
H20   H     H_    0.012620 0.224883 0.823246 0.164465
H21   H     H_    0.932610 0.325087 0.755908 0.123084
C31   C     C_3   0.995473 0.395072 0.937326 -0.359601
H22   H     H_    0.058162 0.386488 0.988379 0.225456
H23   H     H_    0.983420 0.495279 0.917425 0.221574
C32   C     C_3   0.926114 0.345018 0.031614 -0.948342
H24   H     H_    0.862781 0.353834 0.982854 0.267708
H25   H     H_    0.925491 0.399473 0.127535 0.289100
H26   H     H_    0.938171 0.245503 0.056358 0.261499

loop_
_geom_bond_atom_site_label_1
_geom_bond_atom_site_label_2
_ccdc_geom_bond_type
O4    Zn1   S    
C25   H5    S    
C32   H26   S    
C31   H23   S    
C28   H15   S    
C30   H21   S    
O3    Zn2   S    
C26   H6    S    
O10   C30   S    
C18   C24   T    
C8    N1    A    
C5    C26   A    
O7    Zn2   S    
O6    Zn2   S    
C11   O7    A    
C16   H2    S    
C27   C28   S    
O5    Zn1   S    
C10   H12   S    
C7    C9    A    
C27   H14   S    
C29   H19   S    
C9    H11   S    
C31   H22   S    
C30   C31   S    
C6    C25   A    
C13   C15   S    
C10   N2    A    
C17   C23   T    
C7    H9    S    
C2    O2    A    
C16   C19   S    
N2    Zn2   S    
C14   C21   S    
C1    O1    A    
O8    Zn1   S    
C19   C21   S    
C12   O8    A    
O2    Zn2   S    
C13   C22   S    
C20   O9    S    
C14   C16   S    
C28   H16   S    
C21   C23   S    
C32   H24   S    
C8    C10   A    
C4    H8    S    
C4    C26   A    
C11   O5    A    
C2    C5    S    
C3    H7    S    
C19   O10   S    
C29   H18   S    
O9    C27   S    
C31   C32   S    
C14   C20   S    
C15   C21   S    
C3    C25   A    
C27   H13   S    
C4    C6    A    
C8    H10   S    
C22   C24   S    
O1    Zn1   S    
C1    C6    S    
C32   H25   S    
C28   C29   S    
C11   C17   S    
C13   C19   S    
C16   C22   S    
N1    Zn1   S    
C29   H17   S    
C14   H4    S    
C7    N2    A    
C15   H1    S    
C1    O3    A    
C9    N1    A    
C2    O4    A    
C30   H20   S    
C13   H3    S    
C20   C22   S    
C15   C20   S    
C3    C5    A    
C12   O6    A    
C12   C18   S    
