data_mof_unit_49881.cif
_audit_creation_date              2012-12-10T18:11:44-0500
_audit_creation_method            fapswitch 2.2
_symmetry_space_group_name_H-M    P1
_symmetry_Int_Tables_number       1
_space_group_crystal_system       triclinic
_cell_length_a                    10.491134
_cell_length_b                    12.621432
_cell_length_c                    13.11298
_cell_angle_alpha                 82.066963
_cell_angle_beta                  90.684725
_cell_angle_gamma                 102.736857
_cell_volume                      1677.09015661

loop_
_atom_site_label
_atom_site_type_symbol
_atom_type_description
_atom_site_fract_x
_atom_site_fract_y
_atom_site_fract_z
_atom_type_partial_charge
C1    C     C_R   0.489118 0.438681 0.691325 0.852981
C2    C     C_R   0.500169 0.447609 0.974033 0.067365
C3    C     C_R   0.546318 0.466209 0.871336 0.100056
C4    C     C_R   0.742301 0.500906 0.500515 0.859312
C5    C     C_R   0.545174 0.530011 0.037002 0.086761
C6    C     C_R   0.649204 0.620480 0.002497 0.176786
C7    C     C_R   0.705912 0.628747 0.905438 -0.242407
C8    C     C_R   0.655336 0.552343 0.840597 -0.200831
C9    C     C_R   0.488442 0.525401 0.133259 -0.241579
C10   C     C_R   0.646281 0.687402 0.166634 -0.184475
C11   C     C_R   0.480688 0.398993 0.801266 -0.110638
C12   C     C_3   0.063326 0.581199 0.429609 -0.180445
C13   C     C_R   0.319165 0.090631 0.342972 0.389017
C14   C     C_R   0.654615 0.800156 0.629517 0.034297
C15   C     C_R   0.685952 0.904511 0.658003 -0.238592
C16   C     C_R   0.516032 0.561228 0.308803 0.854229
C17   C     C_R   0.626564 0.985486 0.608971 -0.180369
C18   C     C_R   0.535433 0.962357 0.530141 0.052490
C19   C     C_R   0.507387 0.854569 0.504012 0.242033
C20   C     C_R   0.471877 0.041504 0.476295 -0.063246
C21   C     C_R   0.382003 0.011869 0.396922 0.030187
C22   C     C_R   0.357879 0.904698 0.373222 -0.179421
C23   C     C_3   0.986971 0.598208 0.524049 -0.162428
C24   C     C_R   0.419623 0.828123 0.425647 -0.234382
C25   C     C_R   0.494557 0.149811 0.497987 -0.059322
C26   C     C_R   0.347445 0.196178 0.369350 -0.102519
C27   C     C_R   0.257729 0.499083 0.499656 0.864830
C28   C     C_3   0.936051 0.418633 0.571755 -0.224230
C29   C     C_3   0.047223 0.514194 0.592905 0.023381
C30   C     C_3   0.122057 0.497679 0.499861 -0.025607
C31   C     C_3   0.012544 0.402111 0.477191 -0.136200
C32   C     C_3   0.951466 0.485636 0.406821 -0.147274
C33   C     C_1   0.103362 0.528943 0.694422 0.153834
C34   C     C_3   0.877885 0.502306 0.501233 0.001300
C35   C     C_R   0.696903 0.699996 0.066820 -0.191031
C36   C     C_R   0.544572 0.597614 0.200293 -0.055123
C37   C     C_R   0.391041 0.301251 0.837094 -0.211499
C38   C     C_R   0.359967 0.274083 0.941373 -0.085174
C39   C     C_R   0.411123 0.347396 0.009337 -0.155537
H1    H     H_    0.403805 0.462554 0.160591 0.147971
H2    H     H_    0.879932 0.353342 0.630072 0.140632
H3    H     H_    0.654589 0.064868 0.634240 0.137392
H4    H     H_    0.756095 0.922634 0.717894 0.152315
H5    H     H_    0.397147 0.748466 0.402415 0.210237
H6    H     H_    0.026790 0.322534 0.457857 0.167464
H7    H     H_    0.907321 0.474365 0.330596 0.149258
H8    H     H_    0.119555 0.646839 0.371651 0.148008
H9    H     H_    0.972792 0.677677 0.543755 0.158708
H10   H     H_    0.691228 0.743575 0.218884 0.166789
H11   H     H_    0.788173 0.695127 0.879017 0.145335
H12   H     H_    0.341460 0.247865 0.784095 0.165689
H13   H     H_    0.777045 0.768730 0.041635 0.146323
H14   H     H_    0.029157 0.940206 0.227995 0.381531
H15   H     H_    0.381805 0.322269 0.089136 0.169280
H16   H     H_    0.291509 0.198182 0.969061 0.199768
H17   H     H_    0.703166 0.560453 0.766387 0.149368
H18   H     H_    0.302160 0.259018 0.329891 0.177542
H19   H     H_    0.291378 0.878122 0.313608 0.223253
H20   H     H_    0.560594 0.179817 0.556173 0.139070
H21   H     H_    0.700938 0.737136 0.666871 0.127976
N1    N     N_R   0.432930 0.222190 0.444670 -0.129567
N2    N     N_R   0.566370 0.776980 0.554790 -0.128738
N3    N     N_1   0.147856 0.540499 0.774375 -0.185555
O1    O     O_R   0.467970 0.366730 0.627150 -0.616284
O2    O     O_2   0.275146 0.027874 0.156604 -0.335154
O3    O     O_3   0.082083 0.958085 0.288913 -0.572388
O4    O     O_R   0.510820 0.544830 0.662520 -0.605759
O5    O     O_R   0.664630 0.410960 0.482340 -0.611095
O6    O     O_R   0.707470 0.589060 0.517710 -0.632577
O7    O     O_R   0.489180 0.455170 0.337480 -0.607942
O8    O     O_R   0.532030 0.633270 0.372850 -0.636225
O9    O     O_R   0.292530 0.410940 0.482290 -0.618196
O10   O     O_R   0.335370 0.589040 0.517660 -0.628276
O11   O     O_2   0.154237 0.160483 0.202584 -0.329761
S1    S     S_3+6 0.206888 0.061492 0.242923 -0.028857
Zn1   Zn    Zn3+2 0.471390 0.381080 0.476380 0.946498
Zn2   Zn    Zn3+2 0.528610 0.618920 0.523620 0.939436

loop_
_geom_bond_atom_site_label_1
_geom_bond_atom_site_label_2
_ccdc_geom_bond_type
N2    Zn2   S    
O6    Zn2   S    
O4    Zn2   S    
O9    Zn1   S    
C8    H17   S    
C7    C8    A    
C12   C23   S    
C29   C30   S    
C23   C29   S    
C28   C29   S    
C26   N1    A    
C30   C31   S    
C37   H12   S    
C39   H15   S    
C20   C25   A    
C19   N2    A    
C14   N2    A    
C29   C33   S    
C28   H2    S    
C6    C35   A    
C18   C19   A    
C11   C37   A    
C17   H3    S    
C2    C39   A    
C38   H16   S    
C13   S1    S    
C1    C11   S    
C9    C36   A    
C10   C35   A    
C28   C34   S    
C21   C22   A    
C12   C32   S    
C27   C30   S    
C16   O8    A    
C12   H8    S    
C4    O6    A    
N1    Zn1   S    
C38   C39   A    
C4    C34   S    
O11   S1    D    
C16   O7    A    
C3    C8    A    
C4    O5    A    
C9    H1    S    
C32   C34   S    
C5    C9    A    
C37   C38   A    
C31   C32   S    
C33   N3    T    
C23   C34   S    
C17   C18   A    
O1    Zn1   S    
C13   C21   A    
C25   N1    A    
H14   O3    S    
O7    Zn1   S    
C24   H5    S    
C22   C24   A    
C13   C26   A    
C2    C5    A    
C1    O1    A    
O8    Zn2   S    
C15   C17   A    
C23   H9    S    
C12   C30   S    
C32   H7    S    
C28   C31   S    
C7    H11   S    
C22   H19   S    
C6    C7    A    
O5    Zn1   S    
C14   H21   S    
O2    S1    D    
C19   C24   A    
C15   H4    S    
C16   C36   S    
C5    C6    A    
O3    S1    S    
C1    O4    A    
C2    C3    A    
C18   C20   A    
C26   H18   S    
C3    C11   A    
C20   C21   A    
C31   H6    S    
C35   H13   S    
O10   Zn2   S    
C14   C15   A    
C10   C36   A    
C25   H20   S    
C27   O10   A    
C10   H10   S    
C27   O9    A    
