data_mof_unit_57503.cif
_audit_creation_date              2012-12-10T20:26:30-0500
_audit_creation_method            fapswitch 2.2
_symmetry_space_group_name_H-M    P1
_symmetry_Int_Tables_number       1
_space_group_crystal_system       triclinic
_cell_length_a                    10.688926
_cell_length_b                    10.669441
_cell_length_c                    9.850317
_cell_angle_alpha                 89.964557
_cell_angle_beta                  90.115656
_cell_angle_gamma                 89.992552
_cell_volume                      1123.37556223

loop_
_atom_site_label
_atom_site_type_symbol
_atom_type_description
_atom_site_fract_x
_atom_site_fract_y
_atom_site_fract_z
_atom_type_partial_charge
C1    C     C_R   0.504070 0.259876 0.500098 0.874111
C2    C     C_R   0.569288 0.584188 0.072117 -0.107568
C3    C     C_R   0.569315 0.584194 0.928019 -0.147463
C4    C     C_R   0.262441 0.498991 0.499600 0.933180
C5    C     C_R   0.438557 0.408198 0.928584 0.218139
C6    C     C_3   0.301759 0.381023 0.923024 -0.517133
C7    C     C_3   0.302235 0.380432 0.077110 -0.525682
C8    C     C_R   0.504332 0.740082 0.500008 0.859486
C9    C     C_R   0.737428 0.510283 0.499820 0.845858
C10   C     C_2   0.935693 0.545716 0.385375 0.374236
C11   C     C_2   0.866906 0.547312 0.500621 0.187812
C12   C     C_R   0.524781 0.128533 0.500948 -0.101766
C13   C     C_2   0.070739 0.558828 0.398738 -0.285925
C14   C     C_2   0.130253 0.495908 0.496308 -0.316401
C15   C     C_R   0.523374 0.063746 0.623637 0.142063
C16   C     C_3   0.954292 0.476219 0.161045 0.093638
C17   C     C_3   0.874339 0.436865 0.040519 -0.777861
C18   C     C_3   0.898208 0.711854 0.643434 0.117520
C19   C     C_3   0.960727 0.752806 0.774937 -0.824545
C20   C     C_R   0.550988 0.064844 0.379733 -0.230431
C21   C     C_R   0.551356 0.935202 0.379732 -0.232607
C22   C     C_R   0.525404 0.871314 0.500918 -0.106190
C23   C     C_R   0.523790 0.935921 0.623640 0.114598
C24   C     C_3   0.433511 0.928416 0.739149 -0.470478
C25   C     C_3   0.432864 0.070497 0.738967 -0.492431
C26   C     C_R   0.438777 0.408041 0.071264 0.218494
H1    H     H_    0.475667 0.111848 0.831641 0.203141
H2    H     H_    0.562219 0.114015 0.284264 0.170469
H3    H     H_    0.562793 0.886159 0.284278 0.167851
H4    H     H_    0.342137 0.886633 0.709404 0.205281
H5    H     H_    0.476969 0.887552 0.831785 0.199995
H6    H     H_    0.341186 0.111329 0.708756 0.195821
H7    H     H_    0.999292 0.390404 0.203533 0.143690
H8    H     H_    0.026957 0.542145 0.123503 0.141710
H9    H     H_    0.831639 0.520614 0.992316 0.253245
H10   H     H_    0.933313 0.388136 0.964309 0.213604
H11   H     H_    0.798918 0.372481 0.074402 0.249831
H12   H     H_    0.623551 0.653433 0.126656 0.161876
H13   H     H_    0.796291 0.732788 0.650784 0.134275
H14   H     H_    0.939548 0.767376 0.558730 0.134285
H15   H     H_    0.919696 0.701280 0.862096 0.251411
H16   H     H_    0.062773 0.733401 0.770397 0.257008
H17   H     H_    0.946249 0.854864 0.790416 0.200640
H18   H     H_    0.623566 0.653474 0.873623 0.147498
H19   H     H_    0.246531 0.459557 0.879041 0.226999
H20   H     H_    0.281761 0.287534 0.878396 0.196069
H21   H     H_    0.247453 0.458555 0.122019 0.209389
H22   H     H_    0.282989 0.286548 0.121342 0.200489
H23   H     H_    0.121614 0.612833 0.323211 0.158725
H24   H     H_    0.082473 0.438005 0.570654 0.179753
N1    N     N_R   0.499170 0.499140 0.142800 -0.105686
N2    N     N_R   0.499170 0.499180 0.857150 -0.102721
O1    O     O_R   0.500020 0.316790 0.614690 -0.616139
O2    O     O_3   0.918586 0.582298 0.624482 -0.622993
O3    O     O_R   0.500000 0.316760 0.385350 -0.623414
O4    O     O_R   0.319080 0.500020 0.614640 -0.614459
O5    O     O_R   0.319070 0.499980 0.385300 -0.618656
O6    O     O_R   0.500000 0.683240 0.614650 -0.625938
O7    O     O_R   0.499980 0.683210 0.385310 -0.627941
O8    O     O_R   0.680930 0.500020 0.614700 -0.596955
O9    O     O_R   0.680920 0.499980 0.385360 -0.575589
O10   O     O_3   0.877743 0.536142 0.258292 -0.612362
Zn1   Zn    Zn3+2 0.500010 0.500020 0.653130 0.945208
Zn2   Zn    Zn3+2 0.499990 0.499980 0.346870 0.951931

loop_
_geom_bond_atom_site_label_1
_geom_bond_atom_site_label_2
_ccdc_geom_bond_type
C4    O5    A    
O9    Zn2   S    
C8    C22   S    
C3    N2    A    
C19   H16   S    
C5    N2    A    
C6    C7    S    
C6    H19   S    
C16   H7    S    
C25   H1    S    
C9    C11   S    
C2    H12   S    
C21   C22   A    
C12   C15   A    
C18   H13   S    
C9    O8    A    
C16   H8    S    
C7    H22   S    
C12   C20   A    
C25   H6    S    
C15   C23   A    
C2    C3    A    
C1    O3    A    
O4    Zn1   S    
C1    C12   S    
C10   O10   S    
C13   C14   D    
O3    Zn2   S    
O1    Zn1   S    
C6    H20   S    
O7    Zn2   S    
C14   H24   S    
C7    C26   S    
C16   O10   S    
O8    Zn1   S    
C9    O9    A    
C11   O2    S    
C17   H10   S    
C19   H17   S    
C24   H4    S    
C8    O7    A    
C4    C14   S    
C5    C6    S    
C13   H23   S    
C3    H18   S    
C15   C25   S    
C10   C11   D    
C18   O2    S    
C23   C24   S    
C5    C26   A    
C17   H9    S    
C24   H5    S    
C24   C25   S    
O5    Zn2   S    
C18   C19   S    
C2    N1    A    
O6    Zn1   S    
C18   H14   S    
C1    O1    A    
C22   C23   A    
C17   H11   S    
C20   H2    S    
C8    O6    A    
C20   C21   A    
C26   N1    A    
C21   H3    S    
C10   C13   S    
C4    O4    A    
N1    Zn2   S    
C19   H15   S    
C16   C17   S    
N2    Zn1   S    
C7    H21   S    
