data_mof_unit_50756.cif
_audit_creation_date              2012-12-10T22:11:04-0500
_audit_creation_method            fapswitch 2.2
_symmetry_space_group_name_H-M    P1
_symmetry_Int_Tables_number       1
_space_group_crystal_system       triclinic
_cell_length_a                    12.124219
_cell_length_b                    12.314482
_cell_length_c                    22.986295
_cell_angle_alpha                 90.953209
_cell_angle_beta                  90.059099
_cell_angle_gamma                 91.017738
_cell_volume                      3430.91447336

loop_
_atom_site_label
_atom_site_type_symbol
_atom_type_description
_atom_site_fract_x
_atom_site_fract_y
_atom_site_fract_z
_atom_type_partial_charge
C1    C     C_R   0.656677 0.998440 0.579175 0.901285
C2    C     C_R   0.342903 0.001579 0.421045 0.901269
C3    C     C_R   0.907276 0.819781 0.121977 -0.213752
C4    C     C_R   0.092552 0.179744 0.878159 -0.224858
C5    C     C_R   0.075316 0.825900 0.205628 -0.212095
C6    C     C_R   0.924033 0.172960 0.794761 -0.211267
C7    C     C_R   0.073196 0.745486 0.163067 -0.195505
C8    C     C_R   0.926236 0.253548 0.837251 -0.192725
C9    C     C_R   0.919011 0.176011 0.201834 -0.205560
C10   C     C_R   0.078975 0.820486 0.796548 -0.201267
C11   C     C_R   0.919732 0.257956 0.162127 -0.251964
C12   C     C_R   0.078060 0.738828 0.836549 -0.250039
C13   C     C_R   0.103238 0.918597 0.328298 -0.247809
C14   C     C_R   0.896432 0.080779 0.671903 -0.245323
C15   C     C_R   0.185644 0.914559 0.369684 -0.209953
C16   C     C_R   0.814114 0.084893 0.630493 -0.210536
C17   C     C_R   0.884899 0.093458 0.327635 -0.181723
C18   C     C_R   0.113063 0.907433 0.671218 -0.180594
C19   C     C_R   0.804020 0.090008 0.369586 -0.239940
C20   C     C_R   0.193986 0.911067 0.629272 -0.239437
C21   C     C_3   0.998616 0.007066 0.247481 -0.085460
C22   C     C_3   0.001215 0.992382 0.752601 -0.087396
C23   C     C_R   0.649602 0.001830 0.418162 0.862916
C24   C     C_R   0.350170 0.998151 0.581728 0.862350
C25   C     C_R   0.093182 0.009417 0.292055 0.018422
C26   C     C_R   0.905825 0.990369 0.708492 0.013532
C27   C     C_R   0.256647 0.003493 0.377754 -0.080789
C28   C     C_R   0.741954 0.996708 0.622993 -0.082646
C29   C     C_R   0.895254 0.008544 0.286388 0.084643
C30   C     C_R   0.104263 0.990950 0.713418 0.086127
C31   C     C_R   0.727197 0.004163 0.370189 -0.064341
C32   C     C_R   0.272157 0.995755 0.629481 -0.063153
C33   C     C_R   0.006798 0.102466 0.204961 0.149981
C34   C     C_R   0.993550 0.896905 0.795033 0.144998
C35   C     C_R   0.000055 0.261227 0.119410 -0.097214
C36   C     C_R   0.001365 0.739497 0.881213 -0.080446
C37   C     C_R   0.994866 0.907259 0.206389 0.099604
C38   C     C_R   0.005123 0.092239 0.793692 0.100353
C39   C     C_R   0.990186 0.743139 0.120967 0.000707
C40   C     C_R   0.009642 0.256414 0.879159 -0.011925
C41   C     C_R   0.992531 0.660879 0.075793 0.851407
C42   C     C_R   0.007448 0.338996 0.924239 0.849826
C43   C     C_R   0.998947 0.349869 0.079191 0.889510
C44   C     C_R   0.001261 0.650692 0.921194 0.877706
C45   C     C_R   0.156470 0.105251 0.306202 0.553403
C46   C     C_R   0.840244 0.895471 0.695466 0.548043
C47   C     C_R   0.242245 0.097868 0.346320 -0.326587
C48   C     C_R   0.754270 0.903268 0.655493 -0.313090
C49   C     C_R   0.816947 0.922277 0.287413 -0.186829
C50   C     C_R   0.183735 0.076258 0.713039 -0.187980
C51   C     C_R   0.727729 0.923629 0.325593 0.161984
C52   C     C_R   0.272703 0.075040 0.674697 0.161747
C53   C     C_R   0.095043 0.111175 0.162974 0.216706
C54   C     C_R   0.908341 0.891035 0.838733 0.246022
C55   C     C_R   0.081453 0.181162 0.115477 0.118057
C56   C     C_R   0.925130 0.823801 0.886881 0.145110
C57   C     C_R   0.910548 0.902028 0.163634 -0.191387
C58   C     C_R   0.089367 0.097493 0.836487 -0.180505
H1    H     H_    0.297770 0.166682 0.353191 0.168195
H2    H     H_    0.697596 0.835180 0.649157 0.166238
H3    H     H_    0.823318 0.852042 0.259097 0.159911
H4    H     H_    0.178526 0.145765 0.741929 0.159577
H5    H     H_    0.847110 0.962804 0.162595 0.144105
H6    H     H_    0.152736 0.036633 0.837558 0.145966
H7    H     H_    0.144482 0.825707 0.235036 0.145577
H8    H     H_    0.854455 0.172498 0.765603 0.146347
H9    H     H_    0.847506 0.172065 0.229507 0.159903
H10   H     H_    0.148103 0.821388 0.767213 0.159862
H11   H     H_    0.047281 0.849385 0.323814 0.166015
H12   H     H_    0.953146 0.149473 0.676018 0.166616
H13   H     H_    0.942352 0.161361 0.328602 0.169683
H14   H     H_    0.054392 0.840516 0.669565 0.166490
H15   H     H_    0.842306 0.818133 0.089570 0.149223
H16   H     H_    0.157402 0.181299 0.910591 0.149446
H17   H     H_    0.137476 0.685417 0.162719 0.150343
H18   H     H_    0.861670 0.313315 0.837709 0.152305
H19   H     H_    0.854528 0.317069 0.163503 0.165850
H20   H     H_    0.140296 0.676806 0.833811 0.163649
H21   H     H_    0.192961 0.842541 0.395744 0.163731
H22   H     H_    0.807906 0.156301 0.603866 0.163859
H23   H     H_    0.803143 0.154074 0.402479 0.163784
H24   H     H_    0.193931 0.848086 0.595766 0.163046
O1    O     O_R   0.621380 0.090460 0.561410 -0.635965
O2    O     O_R   0.378620 0.909540 0.438590 -0.636575
O3    O     O_R   0.617150 0.909540 0.438590 -0.635827
O4    O     O_R   0.382850 0.090460 0.561410 -0.635907
O5    O     O_R   0.619720 0.093230 0.440890 -0.625466
O6    O     O_R   0.380280 0.906770 0.559110 -0.625363
O7    O     O_R   0.618800 0.906770 0.559110 -0.627339
O8    O     O_R   0.381200 0.093230 0.440890 -0.627632
O9    O     O_R   0.087590 0.627480 0.058790 -0.626210
O10   O     O_R   0.912410 0.372520 0.941210 -0.625444
O11   O     O_R   0.905660 0.383870 0.059980 -0.627250
O12   O     O_R   0.094340 0.616130 0.940020 -0.620931
O13   O     O_R   0.092570 0.390420 0.063230 -0.615324
O14   O     O_R   0.907430 0.609580 0.936770 -0.632445
O15   O     O_R   0.900680 0.620930 0.055550 -0.635957
O16   O     O_R   0.099320 0.379070 0.944450 -0.625200
Zn1   Zn    Zn3+2 0.501730 0.123520 0.501540 0.926479
Zn2   Zn    Zn3+2 0.498270 0.876480 0.498460 0.926409
Zn3   Zn    Zn3+2 0.125690 0.504390 0.002180 0.936010
Zn4   Zn    Zn3+2 0.874310 0.495610 0.997820 0.936118
C59   C     C_3   0.203331 0.049494 0.167117 -0.376330
C60   C     C_3   0.302748 0.124713 0.180898 -0.796369
H25   H     H_    0.377473 0.093349 0.158881 0.222024
H26   H     H_    0.289251 0.209379 0.167294 0.274171
H27   H     H_    0.320597 0.126894 0.228176 0.257748
H28   H     H_    0.203484 0.988386 0.200975 0.197378
H29   H     H_    0.218271 0.002937 0.126290 0.193768
C61   C     C_3   0.800626 0.953881 0.836259 -0.408526
C62   C     C_3   0.698840 0.878367 0.831774 -0.849706
H30   H     H_    0.694238 0.838368 0.788294 0.289571
H31   H     H_    0.698961 0.814033 0.864891 0.252515
H32   H     H_    0.623184 0.926832 0.837732 0.237213
H33   H     H_    0.793321 0.008180 0.874986 0.210840
H34   H     H_    0.794920 0.006984 0.798760 0.207281
C63   C     C_3   0.635197 0.840234 0.315485 -0.419491
C64   C     C_3   0.582477 0.852413 0.255480 -0.894402
H35   H     H_    0.551620 0.936215 0.250530 0.263705
H36   H     H_    0.642391 0.834617 0.220241 0.259935
H37   H     H_    0.511720 0.794395 0.250739 0.252313
H38   H     H_    0.668640 0.757180 0.319191 0.205666
H39   H     H_    0.567067 0.847843 0.347036 0.235567
C65   C     C_3   0.366146 0.157231 0.685289 -0.419728
C66   C     C_3   0.419675 0.142208 0.744873 -0.893044
H40   H     H_    0.360347 0.158707 0.780569 0.259528
H41   H     H_    0.450215 0.058045 0.748625 0.263719
H42   H     H_    0.490770 0.199688 0.750044 0.252463
H43   H     H_    0.433644 0.150357 0.653311 0.235347
H44   H     H_    0.333405 0.240745 0.682689 0.205655
C67   C     C_3   0.134367 0.156085 0.056349 -0.387287
C68   C     C_3   0.251276 0.202577 0.048819 -0.795574
H45   H     H_    0.263342 0.280547 0.072997 0.270421
H46   H     H_    0.313080 0.143689 0.063401 0.243074
H47   H     H_    0.267210 0.217225 0.002027 0.234132
H48   H     H_    0.134136 0.067096 0.047845 0.185537
H49   H     H_    0.081986 0.187288 0.020865 0.192138
C69   C     C_3   0.877652 0.854184 0.946531 -0.429505
C70   C     C_3   0.941592 0.950992 0.973133 -0.923888
H50   H     H_    0.029496 0.929806 0.979197 0.262659
H51   H     H_    0.937242 0.022962 0.944856 0.270223
H52   H     H_    0.906275 0.972757 0.016236 0.255836
H53   H     H_    0.789023 0.873610 0.944357 0.218496
H54   H     H_    0.882908 0.787619 0.977975 0.226212
O17   O     O_3   0.137810 0.202826 0.278383 -0.613492
C71   C     C_3   0.137437 0.292488 0.317571 -0.365142
H55   H     H_    0.222321 0.326339 0.323245 0.176003
H56   H     H_    0.100559 0.272372 0.360536 0.152382
H57   H     H_    0.086716 0.356979 0.298451 0.199055
O18   O     O_3   0.858179 0.798006 0.723479 -0.621215
C72   C     C_3   0.858394 0.708232 0.684363 -0.365015
H58   H     H_    0.895760 0.728002 0.641468 0.152810
H59   H     H_    0.773370 0.674865 0.678479 0.175489
H60   H     H_    0.908545 0.643496 0.703665 0.200326

loop_
_geom_bond_atom_site_label_1
_geom_bond_atom_site_label_2
_ccdc_geom_bond_type
C16   C28   A    
O14   Zn4   S    
C17   C29   A    
C2    O2    A    
C62   H30   S    
C19   C31   A    
C60   H26   S    
O17   C71   S    
C39   C41   S    
C29   C49   A    
O6    Zn2   S    
C45   O17   S    
C61   H34   S    
C5    C37   A    
C69   H53   S    
C42   O16   A    
C70   H52   S    
C21   C33   S    
C22   C38   S    
C8    H18   S    
C54   C61   S    
C72   H60   S    
C24   C32   S    
C2    O8    A    
C64   H35   S    
C32   C52   A    
C11   H19   S    
C51   C63   S    
C61   C62   S    
C15   C27   A    
C15   H21   S    
C4    C40   A    
O12   Zn3   S    
C68   H45   S    
C49   C51   A    
C18   H14   S    
C12   H20   S    
C1    C28   S    
C50   C52   A    
C72   H58   S    
C6    C38   A    
C48   H2    S    
C59   H28   S    
C18   C30   A    
C14   C16   A    
C12   C36   A    
C35   C43   S    
C4    H16   S    
O15   Zn4   S    
O10   Zn4   S    
C45   C47   A    
C30   C50   A    
C3    C39   A    
O1    Zn1   S    
C9    C33   A    
C14   H12   S    
C13   C25   A    
O9    Zn3   S    
C60   H25   S    
C57   H5    S    
C71   H56   S    
C53   C55   A    
C33   C53   A    
C22   C34   S    
C46   C48   A    
C49   H3    S    
O7    Zn2   S    
C35   C55   A    
C70   H51   S    
O2    Zn2   S    
C10   C34   A    
C67   H48   S    
C5    C7    A    
C17   C19   A    
C7    H17   S    
C58   H6    S    
C21   C29   S    
C16   H22   S    
C64   H37   S    
C23   C31   S    
C63   H38   S    
C9    H9    S    
C67   H49   S    
C66   H42   S    
C71   H57   S    
C56   C69   S    
C43   O13   A    
C65   H44   S    
C62   H31   S    
C38   C58   A    
C14   C26   A    
O4    Zn1   S    
C24   O6    A    
C2    C27   S    
C10   C12   A    
C3    C57   A    
C5    H7    S    
C46   O18   S    
C17   H13   S    
C55   C67   S    
C9    C11   A    
C23   O3    A    
C66   H40   S    
C50   H4    S    
C41   O15   A    
C36   C44   S    
C67   C68   S    
C25   C45   A    
O8    Zn1   S    
C71   H55   S    
C20   C32   A    
C27   C47   A    
C21   C25   S    
C28   C48   A    
C1    O7    A    
C44   O14   A    
C22   C30   S    
C42   O10   A    
C41   O9    A    
C31   C51   A    
C40   C42   S    
O11   Zn4   S    
C6    C8    A    
C70   H50   S    
C54   C56   A    
C34   C54   A    
C10   H10   S    
C1    O1    A    
O16   Zn3   S    
C59   H29   S    
C13   C15   A    
C63   H39   S    
O3    Zn2   S    
C69   H54   S    
C63   C64   S    
C52   C65   S    
C13   H11   S    
C53   C59   S    
C68   H47   S    
C11   C35   A    
C36   C56   A    
C43   O11   A    
C65   H43   S    
C62   H32   S    
C18   C20   A    
C72   H59   S    
C3    H15   S    
C64   H36   S    
C44   O12   A    
C69   C70   S    
C26   C46   A    
C47   H1    S    
O5    Zn1   S    
C6    H8    S    
C21   C37   S    
C68   H46   S    
C20   H24   S    
C22   C26   S    
C4    C58   A    
C59   C60   S    
C66   H41   S    
C7    C39   A    
O18   C72   S    
C23   O5    A    
C8    C40   A    
C19   H23   S    
C24   O4    A    
C61   H33   S    
C60   H27   S    
C37   C57   A    
O13   Zn3   S    
C65   C66   S    
