data_mof_unit_11784.cif
_audit_creation_date              2012-12-11T15:37:21-0500
_audit_creation_method            fapswitch 2.2
_symmetry_space_group_name_H-M    P1
_symmetry_Int_Tables_number       1
_space_group_crystal_system       triclinic
_cell_length_a                    17.348553
_cell_length_b                    24.242627
_cell_length_c                    14.853512
_cell_angle_alpha                 89.996159
_cell_angle_beta                  126.029369
_cell_angle_gamma                 89.989702
_cell_volume                      5052.05291394

loop_
_atom_site_label
_atom_site_type_symbol
_atom_type_description
_atom_site_fract_x
_atom_site_fract_y
_atom_site_fract_z
_atom_type_partial_charge
C1    C     C_R   0.849906 0.652392 0.908548 -0.094007
C2    C     C_R   0.192287 0.376419 0.089559 -0.065227
C3    C     C_R   0.192273 0.623575 0.089542 -0.065148
C4    C     C_R   0.849849 0.347638 0.908597 -0.093825
C5    C     C_R   0.347733 0.151749 0.909430 -0.091985
C6    C     C_R   0.692512 0.876520 0.090379 -0.054845
C7    C     C_R   0.692491 0.123478 0.090341 -0.054823
C8    C     C_R   0.347695 0.848279 0.909454 -0.091951
C9    C     C_3   0.404242 0.499877 0.463747 0.104092
C10   C     C_3   0.575894 0.500092 0.644753 0.107678
C11   C     C_3   0.903030 0.999923 0.465558 0.104747
C12   C     C_3   0.075469 0.000054 0.645379 0.102400
C13   C     C_R   0.751279 0.244677 0.898478 0.256522
C14   C     C_R   0.349686 0.673720 0.078254 0.268749
C15   C     C_R   0.349803 0.326306 0.078406 0.268652
C16   C     C_R   0.751666 0.755635 0.898241 0.256773
C17   C     C_R   0.246161 0.747631 0.900389 0.258320
C18   C     C_R   0.852054 0.172929 0.080603 0.278714
C19   C     C_R   0.852208 0.827079 0.080839 0.278708
C20   C     C_R   0.246387 0.252562 0.900282 0.258307
C21   C     C_R   0.220924 0.692849 0.887627 0.259255
C22   C     C_R   0.895446 0.222433 0.082080 0.271279
C23   C     C_R   0.895614 0.777596 0.082174 0.271138
C24   C     C_R   0.221201 0.307357 0.887654 0.259422
C25   C     C_R   0.724968 0.190296 0.888938 0.261589
C26   C     C_R   0.391524 0.724340 0.082369 0.266649
C27   C     C_R   0.391646 0.275689 0.082441 0.266296
C28   C     C_R   0.725406 0.810029 0.888977 0.261913
C29   C     C_R   0.257760 0.661207 0.983474 -0.158174
C30   C     C_R   0.839451 0.261817 0.995987 -0.204354
C31   C     C_R   0.839668 0.738325 0.995855 -0.204377
C32   C     C_R   0.257917 0.338890 0.983581 -0.158256
C33   C     C_R   0.759961 0.160412 0.986068 -0.171308
C34   C     C_R   0.334487 0.764277 0.998093 -0.212985
C35   C     C_R   0.334632 0.235817 0.998039 -0.212820
C36   C     C_R   0.760185 0.839709 0.986246 -0.171479
C37   C     C_R   0.875539 0.450244 0.451318 0.630445
C38   C     C_R   0.882471 0.549738 0.362956 0.615319
C39   C     C_R   0.882464 0.450306 0.362962 0.615432
C40   C     C_R   0.875563 0.549804 0.451324 0.630601
C41   C     C_R   0.504184 0.949898 0.541837 0.615501
C42   C     C_R   0.562719 0.049698 0.507682 0.621236
C43   C     C_R   0.562473 0.950199 0.507469 0.621763
C44   C     C_R   0.504444 0.050076 0.542077 0.615371
C45   C     C_R   0.900827 0.500019 0.329956 -0.515225
C46   C     C_R   0.886118 0.500022 0.506477 -0.526081
C47   C     C_R   0.580004 0.999942 0.474822 -0.498692
C48   C     C_R   0.476385 0.000003 0.563015 -0.517584
C49   C     C_R   0.937186 0.350432 0.093041 -0.068726
C50   C     C_R   0.094792 0.621530 0.903719 -0.081908
C51   C     C_R   0.094823 0.378469 0.903745 -0.081799
C52   C     C_R   0.937204 0.649604 0.092975 -0.068779
C53   C     C_R   0.433439 0.852626 0.094474 -0.074494
C54   C     C_R   0.595285 0.122182 0.904534 -0.090881
C55   C     C_R   0.595327 0.877801 0.904580 -0.090796
C56   C     C_R   0.433466 0.147399 0.094443 -0.074607
C57   C     C_R   0.982854 0.546240 0.251817 -0.095125
C58   C     C_R   0.943896 0.454219 0.691832 -0.093562
C59   C     C_R   0.943889 0.545796 0.691830 -0.093426
C60   C     C_R   0.982857 0.453772 0.251824 -0.095006
C61   C     C_R   0.552308 0.046055 0.305620 -0.104168
C62   C     C_R   0.452379 0.954258 0.696019 -0.105762
C63   C     C_R   0.452346 0.045749 0.695997 -0.105557
C64   C     C_R   0.552344 0.953914 0.305614 -0.103934
C65   C     C_R   0.731820 0.454272 0.754625 -0.104577
C66   C     C_R   0.261536 0.545684 0.299826 -0.105390
C67   C     C_R   0.261591 0.454227 0.299625 -0.102193
C68   C     C_R   0.731828 0.545810 0.754421 -0.102044
C69   C     C_R   0.231702 0.954263 0.754185 -0.111156
C70   C     C_R   0.760763 0.045666 0.300793 -0.106628
C71   C     C_R   0.760802 0.954277 0.300687 -0.104942
C72   C     C_R   0.231701 0.045788 0.754070 -0.109798
C73   C     C_R   0.872283 0.681669 0.000532 0.191855
C74   C     C_R   0.187447 0.366666 0.993267 0.137409
C75   C     C_R   0.187393 0.633355 0.993220 0.137557
C76   C     C_R   0.872202 0.318405 0.000629 0.191920
C77   C     C_R   0.367958 0.179549 0.002205 0.187547
C78   C     C_R   0.688267 0.866527 0.994751 0.136712
C79   C     C_R   0.688192 0.133487 0.994668 0.136761
C80   C     C_R   0.367894 0.820505 0.002249 0.187552
C81   C     C_R   0.950609 0.500010 0.276574 0.260776
C82   C     C_R   0.923200 0.500013 0.625111 0.260097
C83   C     C_R   0.569901 0.999971 0.370474 0.207365
C84   C     C_R   0.445910 0.000006 0.636039 0.276930
C85   C     C_R   0.676387 0.500076 0.731829 0.053972
C86   C     C_R   0.312907 0.499926 0.357548 0.071973
C87   C     C_R   0.176267 0.000047 0.731500 0.060653
C88   C     C_R   0.811499 0.999952 0.359449 0.076444
C89   C     C_3   0.502321 0.455523 0.615940 -0.128731
C90   C     C_3   0.478125 0.544297 0.493059 -0.111973
C91   C     C_3   0.476306 0.453614 0.497122 -0.112791
C92   C     C_3   0.504078 0.546483 0.611795 -0.132441
C93   C     C_3   0.002476 0.955072 0.616587 -0.128250
C94   C     C_3   0.976339 0.044761 0.494911 -0.112703
C95   C     C_3   0.975372 0.954051 0.497261 -0.112458
C96   C     C_3   0.003405 0.046059 0.614187 -0.130505
C97   C     C_3   0.427845 0.501937 0.580521 -0.132124
C98   C     C_3   0.550725 0.498053 0.526972 -0.093849
C99   C     C_3   0.927724 0.001090 0.582888 -0.119499
C100  C     C_3   0.049153 0.998899 0.527064 -0.099899
H1    H     H_    0.818262 0.668467 0.825895 0.159322
H2    H     H_    0.252004 0.368997 0.174488 0.144106
H3    H     H_    0.252004 0.630964 0.174480 0.144127
H4    H     H_    0.818054 0.331558 0.825917 0.159185
H5    H     H_    0.315015 0.168528 0.827024 0.154836
H6    H     H_    0.752013 0.869488 0.175549 0.146139
H7    H     H_    0.752014 0.130498 0.175508 0.146072
H8    H     H_    0.314916 0.831502 0.827042 0.154793
H9    H     H_    0.977996 0.337906 0.178934 0.158816
H10   H     H_    0.062822 0.626074 0.816959 0.164358
H11   H     H_    0.062862 0.373908 0.816990 0.164347
H12   H     H_    0.978004 0.662116 0.178851 0.158846
H13   H     H_    0.471085 0.841998 0.181221 0.159836
H14   H     H_    0.563741 0.128074 0.818102 0.169296
H15   H     H_    0.563797 0.871870 0.818159 0.169207
H16   H     H_    0.471122 0.158020 0.181189 0.159775
H17   H     H_    0.975970 0.588752 0.265758 0.190374
H18   H     H_    0.924841 0.412003 0.665531 0.201689
H19   H     H_    0.924821 0.588018 0.665525 0.201724
H20   H     H_    0.975980 0.411263 0.265788 0.190353
H21   H     H_    0.566408 0.088752 0.330116 0.197176
H22   H     H_    0.433843 0.912214 0.667746 0.199461
H23   H     H_    0.433736 0.087790 0.667667 0.199389
H24   H     H_    0.566540 0.911214 0.330110 0.197220
H25   H     H_    0.708976 0.411722 0.737734 0.151809
H26   H     H_    0.276020 0.587857 0.329183 0.118268
H27   H     H_    0.275994 0.412030 0.328865 0.116624
H28   H     H_    0.709076 0.588383 0.737458 0.150452
H29   H     H_    0.208813 0.911732 0.737129 0.150759
H30   H     H_    0.774900 0.087859 0.330020 0.123558
H31   H     H_    0.774894 0.912070 0.329860 0.122667
H32   H     H_    0.208858 0.088336 0.736978 0.149982
H33   H     H_    0.374143 0.503510 0.598437 0.155167
H34   H     H_    0.602925 0.496473 0.506634 0.166078
H35   H     H_    0.874559 0.001975 0.601692 0.164544
H36   H     H_    0.100678 0.998008 0.505676 0.163149
H37   H     H_    0.515089 0.419515 0.669280 0.176482
H38   H     H_    0.466596 0.580429 0.440509 0.179542
H39   H     H_    0.463423 0.415782 0.447942 0.176475
H40   H     H_    0.518196 0.584189 0.661735 0.178054
H41   H     H_    0.015990 0.918673 0.669379 0.182062
H42   H     H_    0.964126 0.081314 0.442982 0.179298
H43   H     H_    0.962443 0.916537 0.447284 0.177749
H44   H     H_    0.017629 0.083418 0.665008 0.182937
N1    N     N_R   0.892620 0.603790 0.941800 -0.059218
N2    N     N_R   0.107380 0.396210 0.058200 -0.054607
N3    N     N_R   0.107380 0.603790 0.058200 -0.054530
N4    N     N_R   0.892620 0.396210 0.941800 -0.059122
N5    N     N_R   0.392620 0.103790 0.941800 -0.059091
N6    N     N_R   0.607380 0.896210 0.058200 -0.054701
N7    N     N_R   0.607380 0.103790 0.058200 -0.054635
N8    N     N_R   0.392620 0.896210 0.941800 -0.059034
N9    N     N_R   0.952210 0.397600 0.057910 -0.061343
N10   N     N_R   0.047790 0.602400 0.942090 -0.060657
N11   N     N_R   0.047790 0.397600 0.942090 -0.060618
N12   N     N_R   0.952210 0.602400 0.057910 -0.061319
N13   N     N_R   0.452210 0.897600 0.057910 -0.058414
N14   N     N_R   0.547790 0.102400 0.942090 -0.059376
N15   N     N_R   0.547790 0.897600 0.942090 -0.059338
N16   N     N_R   0.452210 0.102400 0.057910 -0.058382
N17   N     N_R   0.026300 0.529110 0.206760 -0.070916
N18   N     N_R   0.973700 0.470890 0.793240 -0.070833
N19   N     N_R   0.973700 0.529110 0.793240 -0.070872
N20   N     N_R   0.026300 0.470890 0.206760 -0.070954
N21   N     N_R   0.526300 0.029110 0.206760 -0.066092
N22   N     N_R   0.473700 0.970890 0.793240 -0.069821
N23   N     N_R   0.473700 0.029110 0.793240 -0.069855
N24   N     N_R   0.526300 0.970890 0.206760 -0.066167
N25   N     N_R   0.818530 0.472270 0.792960 -0.050004
N26   N     N_R   0.181470 0.527730 0.207040 -0.044345
N27   N     N_R   0.181470 0.472270 0.207040 -0.044550
N28   N     N_R   0.818530 0.527730 0.792960 -0.050002
N29   N     N_R   0.318530 0.972270 0.792960 -0.049725
N30   N     N_R   0.681470 0.027730 0.207040 -0.046506
N31   N     N_R   0.681470 0.972270 0.207040 -0.046642
N32   N     N_R   0.318530 0.027730 0.792960 -0.049736
Ni1   Ni    Ni4+2 0.934150 0.565840 0.869060 0.247376
Ni2   Ni    Ni4+2 0.065850 0.434160 0.130940 0.248733
Ni3   Ni    Ni4+2 0.065850 0.565840 0.130940 0.248714
Ni4   Ni    Ni4+2 0.934150 0.434160 0.869060 0.247277
Ni5   Ni    Ni4+2 0.434150 0.065840 0.869060 0.241142
Ni6   Ni    Ni4+2 0.565850 0.934160 0.130940 0.251489
Ni7   Ni    Ni4+2 0.565850 0.065840 0.130940 0.251511
Ni8   Ni    Ni4+2 0.434150 0.934160 0.869060 0.241116
Br1   Br    Br    0.653665 0.293050 0.784088 -0.477342
Br2   Br    Br    0.420733 0.619186 0.193713 -0.432626
Br3   Br    Br    0.420794 0.380732 0.194069 -0.430643
Br4   Br    Br    0.654055 0.707489 0.783357 -0.477693
Br5   Br    Br    0.148495 0.797307 0.789736 -0.489625
Br6   Br    Br    0.921724 0.119550 0.198748 -0.444756
Br7   Br    Br    0.921827 0.880285 0.199314 -0.443726
Br8   Br    Br    0.148672 0.203007 0.789431 -0.490055
Br9   Br    Br    0.156141 0.660488 0.741470 -0.411355
Br10  Br    Br    0.030067 0.232099 0.195695 -0.421602
Br11  Br    Br    0.030157 0.767845 0.195801 -0.421615
Br12  Br    Br    0.156525 0.339879 0.741622 -0.411465
Br13  Br    Br    0.665594 0.154813 0.746970 -0.335394
Br14  Br    Br    0.525419 0.735224 0.197979 -0.387558
Br15  Br    Br    0.525525 0.264738 0.198106 -0.387694
Br16  Br    Br    0.666096 0.845789 0.747259 -0.336469
F1    F     F_    0.863276 0.401050 0.484557 -0.611965
F2    F     F_    0.874993 0.598659 0.314202 -0.623287
F3    F     F_    0.874998 0.401385 0.314227 -0.623294
F4    F     F_    0.863347 0.599006 0.484583 -0.611856
F5    F     F_    0.473704 0.900130 0.550700 -0.613490
F6    F     F_    0.595373 0.098640 0.498398 -0.606983
F7    F     F_    0.594890 0.901204 0.497996 -0.606794
F8    F     F_    0.474216 0.099886 0.551177 -0.613530

loop_
_geom_bond_atom_site_label_1
_geom_bond_atom_site_label_2
_ccdc_geom_bond_type
N28   Ni1   S    
C16   C28   A    
N8    N13   A    
C10   C85   S    
C3    N3    A    
C2    N2    A    
C39   F3    S    
C1    N1    A    
C65   C85   A    
C59   C82   A    
C97   H33   S    
C70   C88   A    
C9    C91   S    
C93   H41   S    
C15   C32   A    
N6    Ni6   S    
C5    H5    S    
C16   C31   A    
C40   C46   A    
C51   N11   A    
C28   Br16  S    
C69   N29   A    
C27   C35   A    
C49   N9    A    
C8    N8    A    
C61   N21   A    
N18   N19   A    
C19   C36   A    
C58   C82   A    
C32   C74   S    
C14   Br2   S    
N12   Ni3   S    
C31   C73   S    
C96   H44   S    
N26   N27   A    
C52   H12   S    
C11   C95   S    
C4    N4    A    
C96   C99   S    
C4    H4    S    
C44   F8    S    
C5    N5    A    
N2    Ni2   S    
C11   C99   S    
C10   C98   S    
N3    N10   A    
C89   C97   S    
N30   N31   A    
C38   C45   A    
C62   C84   A    
C34   C80   S    
C46   C82   S    
N1    N12   A    
C15   C27   A    
C26   C34   A    
N2    N11   A    
C40   F4    S    
N29   Ni8   S    
N19   Ni1   S    
C9    C97   S    
C51   C74   A    
N27   Ni2   S    
C42   F6    S    
C47   C83   S    
N15   Ni8   S    
N17   Ni3   S    
C3    C75   A    
C93   C99   S    
N25   Ni4   S    
N18   Ni4   S    
C69   C87   A    
C39   C45   A    
C55   N15   A    
C66   N26   A    
C10   C92   S    
C93   C95   S    
N5    Ni5   S    
C68   C85   A    
C41   C43   A    
C13   C25   A    
C42   C44   A    
C50   H10   S    
C8    H8    S    
C90   H38   S    
C53   H13   S    
C92   C97   S    
C72   H32   S    
C12   C96   S    
C56   H16   S    
N32   Ni5   S    
C37   C39   A    
C21   C29   A    
C13   Br1   S    
N6    N15   A    
C94   H42   S    
C43   F7    S    
N21   Ni7   S    
N7    N14   A    
C20   C24   A    
C13   C30   A    
C53   C80   A    
N22   Ni8   S    
C10   C89   S    
C52   C73   A    
C61   C83   A    
C63   C84   A    
C55   C78   A    
C95   C100  S    
C33   C79   S    
C57   N17   A    
C17   Br5   S    
C64   H24   S    
C15   Br3   S    
C35   C77   S    
C17   C21   A    
C56   C77   A    
C48   C84   S    
C65   N25   A    
C65   H25   S    
N30   Ni7   S    
C66   H26   S    
C19   C23   A    
C24   C32   A    
C64   C83   A    
C20   Br8   S    
C67   H27   S    
C9    C86   S    
C54   N14   A    
C30   C76   S    
C60   C81   A    
C90   C92   S    
C2    H2    S    
C94   C100  S    
C11   C88   S    
C25   C33   A    
C6    H6    S    
C49   C76   A    
C99   H35   S    
N16   Ni7   S    
C14   C26   A    
C94   C96   S    
C72   C87   A    
C70   N30   A    
C58   H18   S    
C28   C36   A    
C29   C75   S    
C38   F2    S    
C51   H11   S    
N31   Ni6   S    
C91   H39   S    
C11   C94   S    
C69   H29   S    
C62   N22   A    
N21   N24   A    
N24   Ni6   S    
C16   Br4   S    
N22   N23   A    
C64   N24   A    
N25   N28   A    
C57   C81   A    
C12   C93   S    
N8    Ni8   S    
N4    N9    A    
C14   C29   A    
C5    C77   A    
C92   H40   S    
C70   H30   S    
C1    H1    S    
C62   H22   S    
N17   N20   A    
N20   Ni2   S    
N11   Ni4   S    
C7    C79   A    
C54   C79   A    
N29   N32   A    
C3    H3    S    
C68   H28   S    
N9    Ni2   S    
C18   Br6   S    
C67   C86   A    
C59   H19   S    
C22   C30   A    
C12   C87   S    
C18   C22   A    
C20   C35   A    
C45   C81   S    
C95   H43   S    
C61   H21   S    
C91   C98   S    
C2    C74   A    
C9    C90   S    
C66   C86   A    
C63   H23   S    
C25   Br13  S    
N7    Ni7   S    
N1    Ni1   S    
C52   N12   A    
N5    N16   A    
C98   H34   S    
C53   N13   A    
N26   Ni3   S    
C67   N27   A    
C49   H9    S    
C1    C73   A    
N14   Ni5   S    
C56   N16   A    
C36   C78   S    
C50   C75   A    
C38   C40   A    
C68   N28   A    
C17   C34   A    
N23   Ni5   S    
C55   H15   S    
C50   N10   A    
C54   H14   S    
C24   Br12  S    
C63   N23   A    
C60   N20   A    
C41   C48   A    
C71   N31   A    
C60   H20   S    
C7    H7    S    
C42   C47   A    
C72   N32   A    
C89   H37   S    
C41   F5    S    
C26   Br14  S    
C18   C33   A    
C57   H17   S    
C12   C100  S    
C19   Br7   S    
C6    C78   A    
C71   H31   S    
C71   C88   A    
C6    N6    A    
N3    Ni3   S    
C7    N7    A    
C4    C76   A    
C27   Br15  S    
N4    Ni4   S    
C89   C91   S    
N13   Ni6   S    
N10   Ni1   S    
C23   Br11  S    
C100  H36   S    
C8    C80   A    
C59   N19   A    
C37   F1    S    
C22   Br10  S    
C21   Br9   S    
C37   C46   A    
C43   C47   A    
C90   C98   S    
C44   C48   A    
C23   C31   A    
C58   N18   A    
