data_mof_unit_46071.cif
_audit_creation_date              2012-12-11T18:13:36-0500
_audit_creation_method            fapswitch 2.2
_symmetry_space_group_name_H-M    P1
_symmetry_Int_Tables_number       1
_space_group_crystal_system       triclinic
_cell_length_a                    8.157291
_cell_length_b                    12.912136
_cell_length_c                    18.800112
_cell_angle_alpha                 99.698255
_cell_angle_beta                  90.95211
_cell_angle_gamma                 98.978116
_cell_volume                      1926.09227451

loop_
_atom_site_label
_atom_site_type_symbol
_atom_type_description
_atom_site_fract_x
_atom_site_fract_y
_atom_site_fract_z
_atom_type_partial_charge
Ba1   Ba    Ba6+2 0.852780 0.548340 0.465070 1.647487
Ba2   Ba    Ba6+2 0.337060 0.451750 0.534940 1.642903
C1    C     C_3   0.598093 0.896924 0.251817 -0.395103
C2    C     C_3   0.643544 0.817368 0.296889 0.348265
C3    C     C_3   0.458166 0.279453 0.315249 0.310832
C4    C     C_3   0.428156 0.244288 0.234092 -0.400264
C5    C     C_3   0.044392 0.242177 0.733995 0.368937
C6    C     C_3   0.076484 0.228621 0.811514 -0.369183
C7    C     C_3   0.560919 0.177940 0.674049 0.341457
C8    C     C_3   0.588052 0.074014 0.696463 -0.410815
C9    C     C_R   0.991288 0.458267 0.051436 0.033369
C10   C     C_R   0.887173 0.410697 0.100082 0.037043
C11   C     C_R   0.718581 0.376994 0.081221 -0.098237
C12   C     C_3   0.138704 0.753840 0.261307 0.352462
C13   C     C_R   0.656603 0.383680 0.013074 -0.076839
C14   C     C_R   0.764085 0.417474 0.960491 0.006293
C15   C     C_R   0.929612 0.460868 0.980768 -0.000367
C16   C     C_R   0.711639 0.396504 0.886789 0.363058
C17   C     C_R   0.812096 0.442480 0.834551 -0.095697
C18   C     C_R   0.975578 0.496739 0.857049 -0.048991
C19   C     C_R   0.034623 0.502120 0.929931 0.029223
C20   C     C_R   0.758855 0.434891 0.760784 0.007136
C21   C     C_R   0.868239 0.477124 0.711569 -0.320189
C22   C     C_R   0.028061 0.532467 0.732247 0.076977
C23   C     C_3   0.118486 0.775327 0.184799 -0.330173
C24   C     C_R   0.082656 0.542821 0.806899 -0.017067
C25   C     C_R   0.157381 0.500044 0.072740 0.016123
C26   C     C_R   0.217600 0.498336 0.144011 -0.004358
C27   C     C_R   0.111848 0.449403 0.192982 -0.046485
C28   C     C_R   0.951060 0.399376 0.167483 -0.042342
C29   C     C_R   0.242484 0.596101 0.833389 -0.006257
C30   C     C_R   0.303218 0.594995 0.903692 -0.037572
C31   C     C_R   0.199577 0.547730 0.952262 0.025341
C32   C     C_R   0.261203 0.546515 0.023414 -0.053671
C33   C     C_R   0.468160 0.639592 0.925851 -0.128276
C34   C     C_3   0.313401 0.794837 0.712018 0.733859
C35   C     C_R   0.529875 0.637507 0.995485 0.579332
C36   C     C_R   0.426857 0.591563 0.045024 -0.044291
C37   C     C_R   0.382678 0.546321 0.166122 -0.069289
C38   C     C_R   0.486310 0.590676 0.115671 -0.080814
C39   C     C_R   0.437352 0.550450 0.238569 -0.005462
C40   C     C_R   0.328899 0.508124 0.287397 -0.292703
C41   C     C_R   0.168369 0.455474 0.266201 0.043746
C42   C     C_R   0.770199 0.179026 0.522327 -0.276401
C43   C     C_R   0.435949 0.807047 0.464284 -0.247225
C44   C     C_R   0.411916 0.979899 0.435286 -0.132680
C45   C     C_3   0.318463 0.882823 0.777410 -0.369696
C46   C     C_R   0.345594 0.872990 0.433098 -0.025766
C47   C     C_R   0.584106 0.847896 0.505069 0.103313
C48   C     C_R   0.652435 0.958475 0.508847 -0.053758
C49   C     C_R   0.563692 0.024896 0.473586 -0.063593
C50   C     C_R   0.623077 0.136202 0.482269 0.025004
C51   C     C_R   0.863256 0.115350 0.553119 -0.008163
C52   C     C_R   0.802937 0.006137 0.548319 -0.101569
C53   C     C_3   0.965192 0.212958 0.378092 0.280014
C54   C     C_3   0.964365 0.093591 0.360878 -0.345807
C55   C     C_3   0.733982 0.706248 0.680884 0.296747
C56   C     C_3   0.777362 0.744839 0.761065 -0.394444
H1    H     H_    0.735558 0.859321 0.340530 0.083501
H2    H     H_    0.264547 0.848764 0.823961 0.079633
H3    H     H_    0.449134 0.918724 0.793440 0.068485
H4    H     H_    0.245083 0.944057 0.765787 0.105939
H5    H     H_    0.841163 0.228631 0.393908 0.000564
H6    H     H_    0.057430 0.246671 0.423216 0.081250
H7    H     H_    0.870984 0.057244 0.316718 0.114729
H8    H     H_    0.932900 0.056929 0.409018 0.092022
H9    H     H_    0.088834 0.077249 0.343778 0.132655
H10   H     H_    0.841125 0.675098 0.654963 0.029252
H11   H     H_    0.625929 0.641148 0.674843 0.049370
H12   H     H_    0.549261 0.962412 0.286825 0.093253
H13   H     H_    0.889026 0.807573 0.768472 0.145395
H14   H     H_    0.802754 0.677846 0.787220 0.069229
H15   H     H_    0.672678 0.778470 0.788037 0.097507
H16   H     H_    0.529451 0.785276 0.322348 -0.057711
H17   H     H_    0.501495 0.856599 0.209657 0.117944
H18   H     H_    0.343045 0.303586 0.338421 0.017900
H19   H     H_    0.560696 0.348363 0.325135 0.060715
H20   H     H_    0.322050 0.177705 0.222673 0.132446
H21   H     H_    0.399221 0.311301 0.208808 0.053590
H22   H     H_    0.540948 0.217406 0.209927 0.119241
H23   H     H_    0.709054 0.930727 0.224893 0.139639
H24   H     H_    0.168510 0.714749 0.146034 0.075789
H25   H     H_    0.105690 0.322929 0.727920 0.081856
H26   H     H_    0.909098 0.235476 0.724595 -0.072852
H27   H     H_    0.996256 0.273038 0.848045 0.044834
H28   H     H_    0.048885 0.143260 0.816633 0.111507
H29   H     H_    0.207668 0.261314 0.828573 0.167556
H30   H     H_    0.681920 0.217811 0.658609 -0.071968
H31   H     H_    0.475050 0.160322 0.625910 0.092087
H32   H     H_    0.708283 0.082700 0.726838 0.093909
H33   H     H_    0.589352 0.011067 0.649272 0.119876
H34   H     H_    0.062995 0.675840 0.265031 0.087844
H35   H     H_    0.485199 0.047877 0.729451 0.145354
H36   H     H_    0.634538 0.345017 0.119037 0.063969
H37   H     H_    0.525633 0.355720 0.000022 0.100468
H38   H     H_    0.825232 0.470944 0.656068 0.069202
H39   H     H_    0.870278 0.355076 0.200552 0.101737
H40   H     H_    0.325864 0.635526 0.799396 0.060842
H41   H     H_    0.550399 0.675430 0.888898 0.083638
H42   H     H_    0.614031 0.625012 0.130767 0.164302
H43   H     H_    0.271371 0.750281 0.272157 -0.078200
H44   H     H_    0.372080 0.513422 0.342807 0.070169
H45   H     H_    0.338740 0.028184 0.410540 0.100621
H46   H     H_    0.871497 0.960427 0.577279 0.084401
H47   H     H_    0.815739 0.263490 0.527925 0.057895
H48   H     H_    0.383413 0.724094 0.461494 0.065350
H49   H     H_    0.985120 0.772298 0.170321 0.175133
H50   H     H_    0.187349 0.855167 0.180538 0.109655
H51   H     H_    0.409219 0.748420 0.724764 0.012686
O1    O     O_2   0.873090 0.425890 0.325140 -0.469670
O2    O     O_3   0.696039 0.791774 0.650149 -0.613600
O3    O     O_3   0.084981 0.835739 0.309639 -0.587117
O4    O     O_2   0.316610 0.574140 0.674900 -0.510988
O5    O     O_3   0.067290 0.565720 0.585630 -0.486654
O6    O     O_3   0.530210 0.372990 0.631200 -0.478063
O7    O     O_3   0.153060 0.736392 0.704046 -0.706181
O8    O     O_3   0.611340 0.366290 0.463630 -0.479818
O9    O     O_3   0.108550 0.314140 0.595200 -0.471763
O10   O     O_2   0.208100 0.139250 0.554258 -0.487898
O11   O     O_3   0.107388 0.163284 0.686308 -0.603367
O12   O     O_3   0.122420 0.434370 0.414380 -0.498678
O13   O     O_3   0.578370 0.633800 0.536380 -0.484090
O14   O     O_2   0.341510 0.231850 0.465510 -0.460867
O15   O     O_3   0.500417 0.194110 0.344901 -0.645895
O16   O     O_2   0.406627 0.431698 0.756792 -0.476245
O17   O     O_3   0.489991 0.240423 0.730402 -0.549131
O18   O     O_3   0.659500 0.627100 0.368810 -0.477179
O19   O     O_2   0.779184 0.547195 0.245907 -0.492628
O20   O     O_3   0.002605 0.255628 0.315819 -0.640105
O21   O     O_3   0.715127 0.739143 0.252304 -0.587918
O22   O     O_2   0.848200 0.768190 0.534530 -0.492193
O23   O     O_3   0.081160 0.685950 0.404810 -0.478437
O24   O     O_2   0.001821 0.875588 0.442790 -0.501651
P1    P     P_3+3 0.041040 0.394770 0.336330 0.966960
P2    P     P_3+3 0.672880 0.754030 0.556100 1.010786
P3    P     P_3+3 0.130224 0.819725 0.398052 0.943949
P4    P     P_3+3 0.148670 0.605320 0.663680 0.958971
P5    P     P_3+3 0.066463 0.179911 0.597421 0.929814
P6    P     P_3+3 0.646937 0.614155 0.275275 0.955511
P7    P     P_3+3 0.522538 0.230724 0.438930 0.934293
P8    P     P_3+3 0.546520 0.374173 0.722951 1.030292
O25   O     O_3   0.570491 0.321838 0.866318 -0.627723
C57   C     C_3   0.604153 0.219300 0.874533 0.301336
H52   H     H_    0.685849 0.218346 0.922280 -0.004397
H53   H     H_    0.670166 0.186159 0.827678 0.055520
C58   C     C_3   0.442914 0.145776 0.882036 -0.332005
H54   H     H_    0.366079 0.129108 0.831151 0.142614
H55   H     H_    0.470887 0.069308 0.894724 0.064756
H56   H     H_    0.371797 0.182861 0.926506 0.109595
F1    F     F_    0.690585 0.680674 0.014302 -0.722323
O26   O     O_3   0.357938 0.836552 0.649245 -0.687788
C59   C     C_3   0.218127 0.847709 0.607211 0.219350
H57   H     H_    0.094892 0.840350 0.632009 0.091017
H58   H     H_    0.205738 0.789008 0.556545 0.063965
C60   C     C_3   0.241612 0.957393 0.593650 -0.343036
H59   H     H_    0.364291 0.979593 0.573247 0.114788
H60   H     H_    0.143729 0.961293 0.553921 0.128239
H61   H     H_    0.232128 0.010844 0.645285 0.156067

loop_
_geom_bond_atom_site_label_1
_geom_bond_atom_site_label_2
_ccdc_geom_bond_type
C57   C58   S    
C5    H25   S    
C53   C54   S    
O6    P8    S    
C60   H60   S    
C39   C40   A    
Ba1   Ba2   S    
C17   C18   A    
C35   F1    S    
Ba1   O23   S    
O2    P2    S    
C45   H4    S    
Ba2   O9    S    
C5    C6    S    
C37   C39   A    
Ba2   O14   S    
C12   O3    S    
C28   H39   S    
C48   C52   A    
C52   H46   S    
C26   C27   A    
C33   C35   A    
O19   P6    D    
C22   C24   A    
C16   C17   A    
O22   P2    D    
C7    H30   S    
C13   H37   S    
C3    C4    S    
Ba2   O4    S    
O7    P4    S    
C56   H13   S    
C4    H20   S    
C19   C31   A    
C54   H7    S    
C21   H38   S    
C2    H1    S    
C34   C45   S    
C6    H27   S    
C29   H40   S    
Ba1   O13   S    
C45   H2    S    
C42   C51   A    
O16   P8    D    
C14   C15   A    
C53   O20   S    
C53   H5    S    
C1    H23   S    
O24   P3    D    
C21   C22   A    
C9    C25   A    
O12   P1    S    
C1    H17   S    
C7    C8    S    
C2    H16   S    
C42   C50   A    
C5    H26   S    
C47   P2    S    
O26   C59   S    
C24   C29   A    
C27   C41   A    
C60   H61   S    
O10   P5    D    
O18   P6    S    
O3    P3    S    
C33   H41   S    
O21   P6    S    
C40   H44   S    
C23   H50   S    
Ba2   O8    S    
O15   P7    S    
C48   C49   A    
C58   H55   S    
Ba2   O13   S    
C25   C32   A    
C44   C46   A    
C51   P5    S    
C30   C33   A    
C16   O25   S    
C1    H12   S    
C7    H31   S    
C37   C38   A    
C12   H43   S    
C2    O21   S    
C26   C37   A    
C42   H47   S    
C44   C49   A    
C15   C19   A    
C49   C50   A    
C35   C36   A    
C41   P1    S    
C45   H3    S    
C27   C28   A    
Ba1   O1    S    
Ba2   O12   S    
C58   H56   S    
Ba2   O6    S    
C4    H22   S    
C29   C30   A    
C3    O15   S    
C59   C60   S    
C43   C47   A    
O23   P3    S    
C53   H6    S    
C17   C20   A    
C31   C32   A    
Ba1   O8    S    
C18   C19   A    
C12   H34   S    
C59   H58   S    
C8    H33   S    
C11   C13   A    
C23   H24   S    
O4    P4    D    
O1    P1    D    
O8    P7    S    
O11   P5    S    
Ba1   O5    S    
C55   H10   S    
C3    H19   S    
C1    C2    S    
C34   O7    S    
Ba1   P1    S    
C34   H51   S    
C43   H48   S    
C23   H49   S    
C58   H54   S    
C43   C46   A    
C57   H53   S    
C9    C15   A    
C10   C28   A    
C32   C36   A    
Ba2   P4    S    
C5    O11   S    
C46   P3    S    
Ba1   O18   S    
Ba1   O22   S    
C38   H42   S    
C9    C10   A    
C34   O26   S    
C51   C52   A    
C22   P4    S    
C54   H9    S    
C44   H45   S    
O17   P8    S    
C7    O17   S    
C8    H35   S    
C11   H36   S    
C6    H29   S    
C30   C31   A    
C3    H18   S    
C57   H52   S    
O9    P5    S    
C36   C38   A    
Ba2   O5    S    
C56   H14   S    
C55   C56   S    
C55   O2    S    
C18   C24   A    
C54   H8    S    
O14   P7    D    
C20   P8    S    
C50   P7    S    
C6    H28   S    
O5    P4    S    
C12   C23   S    
Ba1   O12   S    
O13   P2    S    
C39   P6    S    
C4    H21   S    
O20   P1    S    
C10   C11   A    
C8    H32   S    
C14   C16   A    
C47   C48   A    
C40   C41   A    
C60   H59   S    
O25   C57   S    
C20   C21   A    
C59   H57   S    
C55   H11   S    
Ba1   P2    S    
C13   C14   A    
C56   H15   S    
C25   C26   A    
