data_mof_unit_51577.cif
_audit_creation_date              2012-12-10T17:32:24-0500
_audit_creation_method            fapswitch 2.2
_symmetry_space_group_name_H-M    P1
_symmetry_Int_Tables_number       1
_space_group_crystal_system       triclinic
_cell_length_a                    15.470153
_cell_length_b                    15.408717
_cell_length_c                    15.676582
_cell_angle_alpha                 91.850997
_cell_angle_beta                  72.187338
_cell_angle_gamma                 112.345637
_cell_volume                      3275.59792251

loop_
_atom_site_label
_atom_site_type_symbol
_atom_type_description
_atom_site_fract_x
_atom_site_fract_y
_atom_site_fract_z
_atom_type_partial_charge
C1    C     C_R   0.460768 0.257223 0.464606 0.569480
C2    C     C_R   0.513985 0.509038 0.119410 -0.201813
C3    C     C_R   0.653085 0.652029 0.118388 0.392774
C4    C     C_R   0.533227 0.741299 0.537978 0.587828
C5    C     C_R   0.437701 0.423555 0.836871 0.022407
C6    C     C_R   0.310503 0.999962 0.462071 0.240749
C7    C     C_R   0.435513 0.156180 0.456424 -0.012816
C8    C     C_R   0.619710 0.895442 0.590444 0.371285
C9    C     C_R   0.630275 0.986895 0.610637 0.358128
C10   C     C_R   0.572765 0.029479 0.586912 0.261673
C11   C     C_R   0.506778 0.976964 0.540282 -0.048425
C12   C     C_R   0.317582 0.340241 0.978514 -0.155456
C13   C     C_R   0.478806 0.877839 0.543315 -0.094961
C14   C     C_R   0.458170 0.018233 0.500516 0.003088
C15   C     C_R   0.367027 0.959720 0.488921 -0.104831
C16   C     C_R   0.756623 0.551858 0.463080 0.623525
C17   C     C_R   0.330246 0.862410 0.510245 -0.068199
C18   C     C_R   0.384823 0.821633 0.536891 0.396280
C19   C     C_R   0.497944 0.115422 0.470103 0.247432
C20   C     C_R   0.338701 0.098143 0.458704 0.212594
C21   C     C_R   0.542744 0.838652 0.558601 -0.037276
C22   C     C_R   0.027720 0.631154 0.352663 -0.121351
C23   C     C_R   0.377680 0.397167 0.025147 -0.123055
C24   C     C_R   0.858582 0.565824 0.448839 0.052201
C25   C     C_R   0.070511 0.372526 0.634248 0.360259
C26   C     C_R   0.973005 0.361885 0.660217 -0.128271
C27   C     C_R   0.939703 0.401978 0.605807 -0.155429
C28   C     C_R   0.242643 0.447032 0.534495 0.562567
C29   C     C_R   0.002332 0.449897 0.520471 -0.008904
C30   C     C_R   0.100166 0.453095 0.489848 -0.084017
C31   C     C_R   0.974204 0.502133 0.468337 -0.014781
C32   C     C_R   0.047227 0.562949 0.392172 -0.106606
C33   C     C_R   0.136775 0.551478 0.354670 0.292267
C34   C     C_R   0.472412 0.465356 0.979279 0.008696
C35   C     C_R   0.159107 0.490271 0.399856 0.304719
C36   C     C_R   0.877188 0.498478 0.489597 0.278782
C37   C     C_R   0.934419 0.633902 0.382302 0.304511
C38   C     C_R   0.136302 0.421064 0.550660 0.024480
C39   C     C_R   0.550888 0.550718 0.259658 0.546585
C40   C     C_R   0.453337 0.447010 0.740997 0.538243
C41   C     C_R   0.680803 0.665761 0.024945 0.293725
C42   C     C_R   0.572499 0.571752 0.164436 0.011773
C43   C     C_R   0.346546 0.353770 0.885583 -0.134519
C44   C     C_3   0.234438 0.912086 0.365564 0.018041
C45   C     C_R   0.505519 0.475746 0.883240 0.035640
C46   C     C_3   0.230778 0.981098 0.299887 -0.247578
C47   C     C_3   0.231653 0.941721 0.209209 -0.477222
C48   C     C_3   0.654152 0.183960 0.370544 0.024029
C49   C     C_3   0.700460 0.110475 0.352991 -0.277122
C50   C     C_3   0.774631 0.128982 0.258604 -0.465895
C51   C     C_3   0.639132 0.176173 0.646371 0.096249
C52   C     C_3   0.616184 0.165817 0.748792 -0.236037
C53   C     C_3   0.704582 0.226629 0.777122 -0.459983
C54   C     C_3   0.178702 0.556415 0.201228 0.011703
C55   C     C_3   0.271332 0.582610 0.119213 -0.244049
C56   C     C_R   0.534490 0.524901 0.026437 -0.044048
C57   C     C_3   0.246717 0.541435 0.035710 -0.473184
C58   C     C_3   0.212886 0.377430 0.332292 -0.022083
C59   C     C_3   0.292215 0.340942 0.331875 -0.241936
C60   C     C_3   0.280163 0.251112 0.284300 -0.457898
C61   C     C_3   0.845986 0.715169 0.946498 -0.001395
C62   C     C_3   0.908562 0.739005 0.009640 -0.224246
C63   C     C_3   0.003168 0.721950 0.968702 -0.488249
C64   C     C_3   0.749917 0.528558 0.744504 0.009514
C65   C     C_3   0.831913 0.619357 0.689840 -0.244474
C66   C     C_3   0.932399 0.632138 0.696295 -0.481754
C67   C     C_R   0.621446 0.602074 0.978709 -0.059932
C68   C     C_3   0.197345 0.119371 0.536128 0.039889
C69   C     C_3   0.117675 0.149865 0.525496 -0.268022
C70   C     C_3   0.029599 0.123545 0.611480 -0.428697
C71   C     C_R   0.652279 0.610163 0.885383 -0.105888
C72   C     C_R   0.604698 0.538376 0.838741 0.272360
F1    F     F_    0.707235 0.714596 0.163830 -0.613577
F2    F     F_    0.682230 0.860912 0.607331 -0.559243
F3    F     F_    0.695847 0.030575 0.654692 -0.635218
F4    F     F_    0.338527 0.729052 0.568278 -0.621342
F5    F     F_    0.915962 0.697847 0.340860 -0.623159
F6    F     F_    0.798156 0.424176 0.540719 -0.690714
F7    F     F_    0.101600 0.340708 0.694315 -0.632045
H1    H     H_    0.257822 0.817010 0.507879 0.175605
H2    H     H_    0.173005 0.842860 0.370835 0.170895
H3    H     H_    0.303962 0.899524 0.338662 0.122785
H4    H     H_    0.162756 0.995216 0.328798 0.198458
H5    H     H_    0.295592 0.048723 0.289220 0.168495
H6    H     H_    0.299652 0.928048 0.178662 0.152564
H7    H     H_    0.229783 0.993602 0.162978 0.151337
H8    H     H_    0.166139 0.875078 0.217646 0.176800
H9    H     H_    0.714175 0.255252 0.358277 0.181770
H10   H     H_    0.614123 0.181751 0.321527 0.112287
H11   H     H_    0.738480 0.112404 0.403242 0.182528
H12   H     H_    0.084027 0.681519 0.297736 0.164055
H13   H     H_    0.641889 0.039005 0.360100 0.161633
H14   H     H_    0.806264 0.074260 0.247831 0.174665
H15   H     H_    0.835548 0.199190 0.250291 0.145481
H16   H     H_    0.737891 0.126290 0.207207 0.157285
H17   H     H_    0.644294 0.247340 0.627692 0.200468
H18   H     H_    0.712159 0.175685 0.607147 0.193732
H19   H     H_    0.553488 0.186965 0.781701 0.153211
H20   H     H_    0.593373 0.091152 0.773283 0.225075
H21   H     H_    0.767303 0.205235 0.745917 0.190333
H22   H     H_    0.685248 0.217051 0.851432 0.151290
H23   H     H_    0.719819 0.666933 0.848741 0.152525
H24   H     H_    0.726118 0.302088 0.756667 0.127837
H25   H     H_    0.125772 0.580905 0.185653 0.132565
H26   H     H_    0.144102 0.478002 0.214431 0.110709
H27   H     H_    0.308356 0.660606 0.105836 0.183062
H28   H     H_    0.323138 0.555481 0.133402 0.191390
H29   H     H_    0.208377 0.463536 0.047861 0.152319
H30   H     H_    0.315757 0.559218 0.978168 0.171847
H31   H     H_    0.198703 0.571210 0.017940 0.154697
H32   H     H_    0.206355 0.377261 0.263648 0.131413
H33   H     H_    0.141181 0.327702 0.378998 0.098014
H34   H     H_    0.866426 0.399103 0.635574 0.183816
H35   H     H_    0.365966 0.395515 0.298129 0.162458
H36   H     H_    0.289230 0.326974 0.401839 0.163416
H37   H     H_    0.285197 0.263903 0.213395 0.124755
H38   H     H_    0.207791 0.194208 0.319192 0.166400
H39   H     H_    0.339742 0.227787 0.284474 0.173376
H40   H     H_    0.892040 0.755847 0.880032 0.152481
H41   H     H_    0.824548 0.639062 0.934498 0.092178
H42   H     H_    0.927843 0.814161 0.023199 0.208020
H43   H     H_    0.865927 0.694223 0.074445 0.221710
H44   H     H_    0.985515 0.646880 0.955502 0.151896
H45   H     H_    0.924445 0.327837 0.726215 0.137795
H46   H     H_    0.046480 0.739024 0.016269 0.163281
H47   H     H_    0.048748 0.767488 0.904641 0.156611
H48   H     H_    0.757479 0.467946 0.707794 0.182014
H49   H     H_    0.759633 0.517838 0.810543 0.093787
H50   H     H_    0.835220 0.617085 0.618496 0.196422
H51   H     H_    0.816687 0.682387 0.712489 0.179573
H52   H     H_    0.932166 0.638251 0.767113 0.136792
H53   H     H_    0.989709 0.697411 0.654726 0.170417
H54   H     H_    0.951504 0.571640 0.671185 0.166669
H55   H     H_    0.227047 0.159287 0.588171 0.165507
H56   H     H_    0.455545 0.446315 0.157565 0.108624
H57   H     H_    0.161738 0.043212 0.560775 0.179873
H58   H     H_    0.148577 0.227284 0.509194 0.168153
H59   H     H_    0.091949 0.115176 0.469546 0.175460
H60   H     H_    0.993614 0.045758 0.626868 0.174811
H61   H     H_    0.974966 0.149766 0.602490 0.181639
H62   H     H_    0.053566 0.155802 0.668996 0.202828
H63   H     H_    0.294821 0.312117 0.852059 0.156758
H64   H     H_    0.346233 0.388483 0.097320 0.104484
H65   H     H_    0.245501 0.288349 0.015152 0.118775
O1    O     O_3   0.500000 0.500000 0.500000 -0.487367
O2    O     O_R   0.588830 0.499590 0.285390 -0.551229
O3    O     O_R   0.395900 0.395880 0.699370 -0.547245
O4    O     O_R   0.493280 0.582590 0.315890 -0.501910
O5    O     O_R   0.521980 0.521940 0.699340 -0.473993
O6    O     O_3   0.220265 0.943833 0.452543 -0.572913
O7    O     O_3   0.594793 0.172402 0.461575 -0.526230
O8    O     O_3   0.559685 0.109732 0.622832 -0.537529
O9    O     O_3   0.205269 0.601596 0.274734 -0.544252
O10   O     O_3   0.241549 0.471343 0.355903 -0.521598
O11   O     O_3   0.764998 0.742734 0.979769 -0.529767
O12   O     O_R   0.708210 0.582550 0.530770 -0.509607
O13   O     O_3   0.655533 0.527134 0.751733 -0.527552
O14   O     O_3   0.273749 0.137967 0.452632 -0.582670
O15   O     O_R   0.270260 0.395900 0.573760 -0.508824
O16   O     O_R   0.537060 0.322180 0.411040 -0.537827
O17   O     O_R   0.484470 0.699370 0.484430 -0.479629
O18   O     O_R   0.404710 0.279110 0.530840 -0.546908
O19   O     O_R   0.573760 0.699350 0.573690 -0.477595
O20   O     O_R   0.714470 0.499570 0.411000 -0.512985
O21   O     O_R   0.307050 0.521980 0.484470 -0.458608
Zn1   Zn    Zn3+2 0.574690 0.574670 0.574650 1.058784
Zn2   Zn    Zn3+2 0.583640 0.456100 0.403530 0.975301
Zn3   Zn    Zn3+2 0.447120 0.574690 0.447120 1.043849
Zn4   Zn    Zn3+2 0.394550 0.394550 0.574700 0.972620

loop_
_geom_bond_atom_site_label_1
_geom_bond_atom_site_label_2
_ccdc_geom_bond_type
C51   H18   S    
O2    Zn2   S    
C3    C42   A    
C34   C56   A    
C27   C29   A    
C35   O10   S    
C49   H11   S    
C54   O9    S    
C65   H51   S    
C41   C67   A    
C16   O20   A    
C70   H61   S    
C12   C23   A    
C26   C27   A    
C29   C30   A    
C22   C32   A    
C13   C18   A    
C58   H33   S    
C47   H6    S    
C54   H25   S    
C2    C42   A    
C12   C43   A    
C44   H3    S    
C1    C7    S    
C11   C14   A    
C33   O9    S    
C50   H16   S    
C61   H40   S    
C30   C38   A    
O16   Zn2   S    
C58   O10   S    
C10   O8    S    
C6    C15   A    
C46   C47   S    
C57   H30   S    
C57   H31   S    
C53   H22   S    
C68   C69   S    
C64   H49   S    
C64   O13   S    
C16   O12   A    
C19   O7    S    
C22   H12   S    
C48   H9    S    
C60   H39   S    
C28   C38   S    
C9    C10   A    
C54   H26   S    
C51   H17   S    
C64   H48   S    
C5    C43   A    
C70   H60   S    
C16   C24   S    
C20   O14   S    
C45   C72   A    
C23   H64   S    
C61   C62   S    
C26   H45   S    
C68   O14   S    
C61   O11   S    
C44   C46   S    
C24   C37   A    
C39   C42   S    
C66   H53   S    
O1    Zn1   S    
C1    O16   A    
C53   H21   S    
C69   H58   S    
O1    Zn4   S    
C55   H27   S    
C51   C52   S    
O17   Zn3   S    
C47   H7    S    
C68   H57   S    
O19   Zn1   S    
C44   H2    S    
C8    C9    A    
C25   C26   A    
C22   C37   A    
C37   F5    S    
C7    C20   A    
C17   H1    S    
C44   O6    S    
C72   O13   S    
C58   H32   S    
C55   H28   S    
C47   H8    S    
C39   O4    A    
C62   C63   S    
C25   C38   A    
C66   H54   S    
C65   H50   S    
C31   C32   A    
O12   Zn1   S    
C23   C34   A    
C8    F2    S    
C17   C18   A    
C4    O19   A    
C13   C21   A    
C60   H38   S    
C34   C45   A    
C24   C36   A    
C63   H46   S    
C28   O21   A    
C46   H5    S    
C27   H34   S    
C48   C49   S    
C71   H23   S    
C51   O8    S    
C65   C66   S    
O21   Zn3   S    
C7    C19   A    
C48   H10   S    
C55   C57   S    
C61   H41   S    
O4    Zn3   S    
C60   H37   S    
C49   H13   S    
C4    O17   A    
C62   H43   S    
C6    C20   A    
C52   C53   S    
C66   H52   S    
O1    Zn2   S    
C69   H59   S    
C15   C17   A    
C54   C55   S    
C3    C41   A    
C70   H62   S    
C18   F4    S    
O15   Zn4   S    
C40   O3    A    
C14   C15   A    
C14   C19   A    
O20   Zn2   S    
C50   H15   S    
O5    Zn1   S    
C8    C21   A    
C1    O18   A    
C63   H44   S    
C50   H14   S    
C56   C67   A    
C30   C35   A    
C52   H20   S    
C2    H56   S    
C64   C65   S    
C68   H55   S    
C58   C59   S    
C71   C72   A    
C29   C31   A    
C36   F6    S    
C32   C33   A    
C4    C21   S    
C11   C13   A    
O18   Zn4   S    
C5    C45   A    
C53   H24   S    
C59   H35   S    
C39   O2    A    
C52   H19   S    
C33   C35   A    
C40   O5    A    
C67   C71   A    
C28   O15   A    
C69   C70   S    
C3    F1    S    
C25   F7    S    
C63   H47   S    
C10   C11   A    
C48   O7    S    
C46   H4    S    
C6    O6    S    
C12   H65   S    
C59   C60   S    
C57   H29   S    
C59   H36   S    
C49   C50   S    
C5    C40   S    
C31   C36   A    
C43   H63   S    
C2    C56   A    
C9    F3    S    
C62   H42   S    
O3    Zn4   S    
C41   O11   S    
O1    Zn3   S    
