data_mof_unit_54550.cif
_audit_creation_date              2012-12-10T17:22:55-0500
_audit_creation_method            fapswitch 2.2
_symmetry_space_group_name_H-M    P1
_symmetry_Int_Tables_number       1
_space_group_crystal_system       triclinic
_cell_length_a                    10.134342
_cell_length_b                    10.599912
_cell_length_c                    11.052549
_cell_angle_alpha                 89.480346
_cell_angle_beta                  95.04845
_cell_angle_gamma                 81.077253
_cell_volume                      1168.06956506

loop_
_atom_site_label
_atom_site_type_symbol
_atom_type_description
_atom_site_fract_x
_atom_site_fract_y
_atom_site_fract_z
_atom_type_partial_charge
C1    C     C_R   0.445201 0.518554 0.268309 0.876841
C2    C     C_3   0.499991 0.123989 0.497670 -0.240031
C3    C     C_3   0.596739 0.940652 0.573247 -0.072672
C4    C     C_3   0.398368 0.061156 0.415346 -0.085938
C5    C     C_2   0.419312 0.540947 0.137227 -0.222436
C6    C     C_2   0.590564 0.513819 0.857078 -0.229029
C7    C     C_2   0.525072 0.527266 0.066759 0.158622
C8    C     C_2   0.507906 0.486246 0.939876 0.115103
C9    C     C_2   0.077067 0.476884 0.505810 -0.092637
C10   C     C_2   0.930248 0.492519 0.522525 -0.099738
C11   C     C_3   0.544087 0.007486 0.169809 -0.805975
C12   C     C_R   0.556336 0.492875 0.731018 0.926412
C13   C     C_3   0.439855 0.987066 0.814290 -0.776402
C14   C     C_3   0.834496 0.943158 0.389246 -0.779184
C15   C     C_3   0.152494 0.059064 0.583950 -0.807120
C16   C     C_1   0.708931 0.878280 0.656784 0.183379
C17   C     C_1   0.292259 0.130305 0.329354 0.170959
C18   C     C_3   0.419715 0.287733 0.974473 -0.800382
C19   C     C_3   0.693872 0.652481 0.153122 -0.666653
C20   C     C_1   0.706396 0.577785 0.881722 0.141294
C21   C     C_1   0.280823 0.570766 0.086991 0.139550
C22   C     C_3   0.859340 0.290172 0.298110 -0.646100
C23   C     C_R   0.500199 0.257823 0.500623 0.916723
C24   C     C_3   0.150359 0.700098 0.711046 -0.627354
C25   C     C_R   0.498437 0.742382 0.495212 0.881917
C26   C     C_3   0.616002 0.022753 0.463056 0.199484
C27   C     C_3   0.378491 0.978480 0.525341 0.185140
C28   C     C_3   0.515020 0.960227 0.382122 0.172116
C29   C     C_3   0.479639 0.040583 0.606799 0.165142
C30   C     C_3   0.495703 0.876950 0.491949 -0.237567
H1    H     H_    0.896287 0.536372 0.604931 0.162601
H2    H     H_    0.338873 0.960548 0.792989 0.257802
H3    H     H_    0.792099 0.097803 0.500020 0.242371
H4    H     H_    0.930913 0.974142 0.371540 0.233393
H5    H     H_    0.790794 0.907604 0.303238 0.279140
H6    H     H_    0.855205 0.864334 0.457996 0.237176
H7    H     H_    0.207937 0.893178 0.492666 0.258347
H8    H     H_    0.063563 0.024598 0.616591 0.242844
H9    H     H_    0.118859 0.120744 0.502073 0.236497
H10   H     H_    0.195019 0.116373 0.656373 0.254532
H11   H     H_    0.313517 0.453152 0.884840 0.251339
H12   H     H_    0.120617 0.393200 0.458929 0.158601
H13   H     H_    0.341399 0.233295 0.936189 0.241433
H14   H     H_    0.402833 0.305175 0.071024 0.243895
H15   H     H_    0.520178 0.229917 0.969020 0.258624
H16   H     H_    0.734760 0.464905 0.086398 0.235341
H17   H     H_    0.804590 0.647076 0.164657 0.229701
H18   H     H_    0.651738 0.726655 0.082729 0.225301
H19   H     H_    0.655133 0.680868 0.240897 0.262460
H20   H     H_    0.957991 0.450069 0.302227 0.215987
H21   H     H_    0.753670 0.276087 0.301704 0.273671
H22   H     H_    0.886085 0.273977 0.203604 0.205811
H23   H     H_    0.463525 0.853555 0.233378 0.215649
H24   H     H_    0.926470 0.220096 0.359720 0.214831
H25   H     H_    0.002260 0.702837 0.566416 0.208453
H26   H     H_    0.100179 0.795994 0.735377 0.217917
H27   H     H_    0.259714 0.701820 0.717824 0.264016
H28   H     H_    0.127054 0.627953 0.776099 0.221425
H29   H     H_    0.589640 0.959185 0.091525 0.239830
H30   H     H_    0.609474 0.076131 0.205518 0.268669
H31   H     H_    0.443800 0.060423 0.137673 0.244405
H32   H     H_    0.400253 0.169351 0.732766 0.242147
H33   H     H_    0.445580 0.023796 0.907522 0.232074
H34   H     H_    0.516411 0.900266 0.812779 0.249745
N1    N     N_2   0.157310 0.552180 0.551120 -0.021925
N2    N     N_2   0.659603 0.528966 0.118937 -0.266452
N3    N     N_1   0.800217 0.627048 0.899946 -0.179561
N4    N     N_1   0.169945 0.595001 0.047691 -0.205355
N5    N     N_2   0.875078 0.418287 0.332226 -0.220443
N6    N     N_2   0.102899 0.671792 0.588912 -0.236534
N7    N     N_2   0.842690 0.447820 0.448880 -0.021217
N8    N     N_2   0.531510 0.912705 0.261289 -0.312053
N9    N     N_2   0.463879 0.083995 0.729167 -0.298120
N10   N     N_2   0.745194 0.049872 0.432351 -0.301292
N11   N     N_2   0.249234 0.950565 0.555428 -0.280808
N12   N     N_1   0.798440 0.830316 0.721993 -0.213251
N13   N     N_1   0.208873 0.184967 0.261647 -0.236114
N14   N     N_2   0.409742 0.406158 0.905818 -0.287619
O1    O     O_R   0.568940 0.489500 0.307530 -0.576420
O2    O     O_R   0.431060 0.510500 0.692470 -0.616214
O3    O     O_R   0.348880 0.522990 0.340350 -0.612001
O4    O     O_R   0.651120 0.477010 0.659650 -0.623456
O5    O     O_R   0.610000 0.297210 0.483560 -0.624092
O6    O     O_R   0.390000 0.702790 0.516440 -0.615046
O7    O     O_R   0.389940 0.330700 0.516390 -0.625155
O8    O     O_R   0.610060 0.669300 0.483610 -0.622040
Zn1   Zn    Zn3+2 0.646930 0.477640 0.478080 0.964241
Zn2   Zn    Zn3+2 0.353070 0.522360 0.521920 0.961436

loop_
_geom_bond_atom_site_label_1
_geom_bond_atom_site_label_2
_ccdc_geom_bond_type
C15   N11   S    
C27   C29   S    
C20   N3    T    
O5    Zn1   S    
O1    Zn1   S    
C24   N6    S    
C7    C8    S    
C22   H24   S    
C9    H12   S    
C23   O5    A    
C2    C29   S    
C1    C5    S    
C14   N10   S    
H20   N5    S    
H16   N2    S    
C6    C12   S    
C19   H17   S    
C29   N9    S    
C1    O3    A    
O4    Zn1   S    
C19   N2    S    
N5    N7    S    
C3    C29   S    
C13   H2    S    
C10   H1    S    
C24   H27   S    
C25   O6    A    
H32   N9    S    
C9    C10   S    
C22   N5    S    
C10   N7    D    
H7    N11   S    
C16   N12   T    
C27   C30   S    
C8    N14   S    
C28   N8    S    
C11   H29   S    
C4    C28   S    
H25   N6    S    
H11   N14   S    
C5    C7    D    
O8    Zn1   S    
C6    C8    D    
C11   H31   S    
C3    C30   S    
C2    C4    S    
C15   H8    S    
C18   H14   S    
C19   H19   S    
C13   H33   S    
C18   N14   S    
C17   N13   T    
C12   O4    A    
C2    C26   S    
C15   H9    S    
N7    Zn1   S    
C4    C17   S    
C13   N9    S    
C21   N4    T    
C1    O1    A    
C11   H30   S    
C18   H15   S    
C14   H5    S    
C4    C27   S    
N1    Zn2   S    
C22   H22   S    
O7    Zn2   S    
C25   C30   S    
C11   N8    S    
C3    C26   S    
O6    Zn2   S    
C27   N11   S    
C14   H4    S    
C24   H26   S    
C6    C20   S    
C26   C28   S    
C28   C30   S    
O2    Zn2   S    
C18   H13   S    
C7    N2    S    
C14   H6    S    
C13   H34   S    
C12   O2    A    
C25   O8    A    
C26   N10   S    
C9    N1    D    
C15   H10   S    
O3    Zn2   S    
H3    N10   S    
C5    C21   S    
C24   H28   S    
C23   O7    A    
C2    C23   S    
H23   N8    S    
C3    C16   S    
N1    N6    S    
C19   H18   S    
C22   H21   S    
