data_mof_unit_32043.cif
_audit_creation_date              2012-12-10T17:01:36-0500
_audit_creation_method            fapswitch 2.2
_symmetry_space_group_name_H-M    P1
_symmetry_Int_Tables_number       1
_space_group_crystal_system       triclinic
_cell_length_a                    9.850841
_cell_length_b                    10.905029
_cell_length_c                    13.030572
_cell_angle_alpha                 90.420303
_cell_angle_beta                  74.9154
_cell_angle_gamma                 109.538379
_cell_volume                      1268.83801675

loop_
_atom_site_label
_atom_site_type_symbol
_atom_type_description
_atom_site_fract_x
_atom_site_fract_y
_atom_site_fract_z
_atom_type_partial_charge
C1    C     C_R   0.441214 0.253751 0.513319 0.870411
C2    C     C_R   0.556878 0.746166 0.498209 0.853021
C3    C     C_2   0.077479 0.488215 0.479469 -0.032042
C4    C     C_2   0.916059 0.479584 0.500645 -0.026585
C5    C     C_R   0.473567 0.497623 0.702257 0.907079
C6    C     C_R   0.526479 0.502328 0.297666 0.823410
C7    C     C_R   0.541459 0.508351 0.183504 -0.114493
C8    C     C_R   0.458723 0.492335 0.816252 -0.091864
C9    C     C_R   0.322736 0.375717 0.988713 -0.148601
C10   C     C_R   0.677628 0.625363 0.010986 -0.157146
C11   C     C_R   0.333628 0.396844 0.882075 -0.174316
C12   C     C_R   0.667024 0.603428 0.117566 -0.184977
C13   C     C_R   0.573947 0.572289 0.857856 -0.066213
C14   C     C_R   0.425640 0.429769 0.141851 -0.065318
C15   C     C_R   0.563898 0.550253 0.966643 0.077418
C16   C     C_R   0.436358 0.451266 0.032939 0.084429
C17   C     C_2   0.412517 0.113514 0.529045 -0.255692
C18   C     C_2   0.579636 0.885726 0.507348 -0.201647
C19   C     C_2   0.494433 0.066473 0.577376 -0.114416
C20   C     C_2   0.477927 0.926506 0.578206 -0.094604
Cu1   Cu    Cu3+1 0.647370 0.522180 0.481340 1.047695
Cu2   Cu    Cu3+1 0.352630 0.477820 0.518660 1.043962
H1    H     H_    0.754871 0.665316 0.149755 0.200587
H2    H     H_    0.246165 0.334361 0.849810 0.194679
H3    H     H_    0.225455 0.297725 0.035122 0.182347
H4    H     H_    0.774946 0.703400 0.964793 0.186876
H5    H     H_    0.832246 0.402775 0.558319 0.188693
H6    H     H_    0.153104 0.528111 0.401785 0.203745
N1    N     N_2   0.131210 0.444490 0.546730 -0.247885
N2    N     N_2   0.868790 0.555510 0.453270 -0.256838
O1    O     O_R   0.578710 0.332530 0.490040 -0.589813
O2    O     O_R   0.421290 0.667470 0.509960 -0.576628
O3    O     O_R   0.329810 0.295070 0.521560 -0.541497
O4    O     O_R   0.670190 0.704930 0.478440 -0.549508
O5    O     O_R   0.604230 0.515670 0.637800 -0.557474
O6    O     O_R   0.395770 0.484330 0.362200 -0.594232
O7    O     O_R   0.355330 0.478200 0.669330 -0.572909
O8    O     O_R   0.644670 0.521800 0.330670 -0.554494
C21   C     C_2   0.294804 0.325963 0.212368 0.840355
O9    O     O_2   0.313672 0.237721 0.257761 -0.585335
O10   O     O_R   0.151272 0.332149 0.229249 -0.767642
H7    H     H_    0.072176 0.258184 0.280955 0.355150
C22   C     C_2   0.701577 0.679593 0.787887 0.855395
O11   O     O_2   0.677681 0.764971 0.742739 -0.542569
O12   O     O_R   0.847961 0.680708 0.771505 -0.711443
H8    H     H_    0.924255 0.757117 0.720701 0.376081
C23   C     C_2   0.355350 0.838996 0.666838 0.930782
O13   O     O_2   0.237879 0.860333 0.699144 -0.583027
O14   O     O_R   0.377153 0.737884 0.717862 -0.735980
H9    H     H_    0.286695 0.687834 0.778331 0.340077
C24   C     C_2   0.591510 0.145577 0.641943 0.866442
O15   O     O_2   0.563527 0.236215 0.687575 -0.609562
O16   O     O_R   0.709142 0.109598 0.656677 -0.722732
H10   H     H_    0.762388 0.166145 0.706221 0.347745
C25   C     C_1   0.709661 0.978269 0.433246 0.326375
N3    N     N_1   0.813525 0.052149 0.374022 -0.260152
C26   C     C_1   0.291434 0.027568 0.491642 0.367241
N4    N     N_1   0.192750 0.960506 0.462628 -0.188150
C27   C     C_2   0.968538 0.658545 0.373720 1.034346
O17   O     O_2   0.921038 0.694720 0.306247 -0.579635
O18   O     O_R   0.116936 0.723251 0.374443 -0.789658
H11   H     H_    0.174998 0.790464 0.311089 0.339827
C28   C     C_2   0.041910 0.395609 0.652831 0.996687
O19   O     O_2   0.056801 0.303606 0.695892 -0.587029
O20   O     O_R   0.945175 0.456751 0.710185 -0.747085
H12   H     H_    0.890404 0.413212 0.784971 0.338340

loop_
_geom_bond_atom_site_label_1
_geom_bond_atom_site_label_2
_ccdc_geom_bond_type
C5    C8    S    
C25   N3    T    
C6    O8    A    
C8    C13   A    
Cu1   O5    S    
Cu2   N1    S    
C5    O7    A    
C2    C18   S    
Cu2   O6    S    
Cu1   N2    S    
C1    C17   S    
C19   C20   S    
C1    O1    A    
C22   O11   D    
N2    C27   S    
C10   H4    S    
N1    C28   S    
C26   N4    T    
C9    H3    S    
C27   O17   D    
C21   O10   S    
O16   H10   S    
C22   O12   S    
C12   H1    S    
C2    O4    A    
Cu1   O1    S    
C6    C7    S    
Cu2   O2    S    
C18   C25   S    
C8    C11   A    
C10   C12   A    
C2    O2    A    
C3    H6    S    
C17   C19   D    
C9    C16   A    
C6    O6    A    
O14   H9    S    
C19   C24   S    
C18   C20   D    
C10   C15   A    
C13   C15   A    
O18   H11   S    
C28   O20   S    
C14   C16   A    
C7    C12   A    
C27   O18   S    
C20   C23   S    
C28   O19   D    
C1    O3    A    
C15   C16   A    
C23   O13   D    
C5    O5    A    
C11   H2    S    
C13   C22   S    
C4    H5    S    
C24   O15   D    
C23   O14   S    
O20   H12   S    
O10   H7    S    
C21   O9    D    
C3    N1    D    
Cu2   O3    S    
C9    C11   A    
Cu1   O4    S    
C14   C21   S    
Cu1   Cu2   S    
Cu2   O7    S    
C7    C14   A    
C4    N2    D    
Cu1   O8    S    
C3    C4    S    
C17   C26   S    
O12   H8    S    
C24   O16   S    
