data_mof_unit_59565.cif
_audit_creation_date              2012-12-10T20:25:43-0500
_audit_creation_method            fapswitch 2.2
_symmetry_space_group_name_H-M    P1
_symmetry_Int_Tables_number       1
_space_group_crystal_system       triclinic
_cell_length_a                    8.592239
_cell_length_b                    10.67895
_cell_length_c                    9.87471
_cell_angle_alpha                 89.875313
_cell_angle_beta                  98.43865
_cell_angle_gamma                 90.17026
_cell_volume                      896.24999036

loop_
_atom_site_label
_atom_site_type_symbol
_atom_type_description
_atom_site_fract_x
_atom_site_fract_y
_atom_site_fract_z
_atom_type_partial_charge
C1    C     C_R   0.504889 0.259953 0.500739 0.876229
C2    C     C_R   0.561657 0.935612 0.386980 -0.228325
C3    C     C_R   0.531253 0.871376 0.504386 -0.099806
C4    C     C_R   0.530987 0.935749 0.626777 0.125536
C5    C     C_3   0.418970 0.927589 0.728925 -0.473872
C6    C     C_3   0.417601 0.069454 0.728399 -0.495020
C7    C     C_R   0.434420 0.402697 0.063313 0.215215
C8    C     C_R   0.577331 0.590116 0.081595 -0.134640
C9    C     C_R   0.577395 0.590099 0.937704 -0.135725
C10   C     C_R   0.433641 0.402992 0.920704 0.217554
C11   C     C_3   0.265119 0.363592 0.895655 -0.514323
C12   C     C_R   0.201250 0.500236 0.464205 0.971709
C13   C     C_3   0.267308 0.361409 0.049482 -0.507575
C14   C     C_R   0.505345 0.740007 0.500564 0.875010
C15   C     C_R   0.798662 0.501068 0.535634 0.965419
C16   C     C_2   0.036150 0.499507 0.444710 -0.391024
C17   C     C_2   0.963524 0.504471 0.554446 -0.385298
C18   C     C_R   0.530283 0.063517 0.626775 0.141436
C19   C     C_R   0.530408 0.128588 0.504515 -0.101755
C20   C     C_R   0.561246 0.065148 0.387048 -0.228845
H1    H     H_    0.974797 0.493617 0.340375 0.179664
H2    H     H_    0.637555 0.664075 0.891038 0.145195
H3    H     H_    0.187454 0.437603 0.844392 0.214558
H4    H     H_    0.248446 0.269496 0.848304 0.198742
H5    H     H_    0.189306 0.432913 0.085887 0.220784
H6    H     H_    0.255695 0.265633 0.091227 0.200445
H7    H     H_    0.024586 0.511770 0.658340 0.169975
H8    H     H_    0.573828 0.114408 0.293231 0.170574
H9    H     H_    0.303849 0.885281 0.685925 0.206397
H10   H     H_    0.474982 0.887059 0.827942 0.199837
H11   H     H_    0.301850 0.109475 0.684219 0.199682
H12   H     H_    0.472200 0.110900 0.827297 0.203559
H13   H     H_    0.637379 0.664150 0.143276 0.142343
N1    N     N_R   0.498950 0.499140 0.142680 -0.106778
N2    N     N_R   0.498950 0.499180 0.857030 -0.106083
O1    O     O_R   0.500020 0.316790 0.614690 -0.616684
O2    O     O_R   0.500000 0.316760 0.385350 -0.625684
O3    O     O_R   0.271760 0.500010 0.587850 -0.613311
O4    O     O_R   0.271740 0.499970 0.358500 -0.624860
O5    O     O_R   0.500000 0.683240 0.614650 -0.623668
O6    O     O_R   0.499980 0.683210 0.385310 -0.627838
O7    O     O_R   0.728260 0.500030 0.641500 -0.626010
O8    O     O_R   0.728240 0.499990 0.412150 -0.616151
Zn1   Zn    Zn3+2 0.500010 0.500020 0.653130 0.940111
Zn2   Zn    Zn3+2 0.499990 0.499980 0.346870 0.937514
H14   H     H_    0.574423 0.886900 0.293144 0.165786

loop_
_geom_bond_atom_site_label_1
_geom_bond_atom_site_label_2
_ccdc_geom_bond_type
C7    C10   A    
C6    H12   S    
O3    Zn1   S    
C16   H1    S    
O2    Zn2   S    
O8    Zn2   S    
C19   C20   A    
C1    O2    A    
O4    Zn2   S    
C4    C18   A    
C12   O4    A    
C7    C13   S    
C2    C3    A    
C15   O8    A    
N1    Zn2   S    
C8    N1    A    
C2    H14   S    
N2    Zn1   S    
C11   C13   S    
C13   H5    S    
C10   N2    A    
C3    C14   S    
O7    Zn1   S    
C14   O6    A    
C11   H3    S    
C6    H11   S    
C5    H9    S    
C8    H13   S    
C12   O3    A    
C5    C6    S    
C6    C18   S    
C7    N1    A    
C13   H6    S    
O1    Zn1   S    
C1    C19   S    
C10   C11   S    
C14   O5    A    
C3    C4    A    
C17   H7    S    
C16   C17   D    
C11   H4    S    
O5    Zn1   S    
C1    O1    A    
C15   C17   S    
C18   C19   A    
C5    H10   S    
C9    N2    A    
O6    Zn2   S    
C9    H2    S    
C8    C9    A    
C20   H8    S    
C2    C20   A    
C12   C16   S    
C15   O7    A    
C4    C5    S    
