data_mof_unit_22853.cif
_audit_creation_date              2012-10-26T18:34:23-0400
_audit_creation_method            fapswitch 2.2
_symmetry_space_group_name_H-M    P1
_symmetry_Int_Tables_number       1
_space_group_crystal_system       triclinic
_cell_length_a                    10.963278
_cell_length_b                    9.655267
_cell_length_c                    9.073821
_cell_angle_alpha                 89.918995
_cell_angle_beta                  92.709413
_cell_angle_gamma                 89.052302
_cell_volume                      959.287315914

loop_
_atom_site_label
_atom_site_type_symbol
_atom_type_description
_atom_site_fract_x
_atom_site_fract_y
_atom_site_fract_z
_atom_type_partial_charge
C1    C     C_R   0.262543 0.501576 0.505615 0.550314
C2    C     C_R   0.059651 0.627730 0.472515 0.015494
C3    C     C_R   0.871174 0.497428 0.476645 -0.053587
C4    C     C_R   0.127751 0.505101 0.509829 -0.059722
C5    C     C_R   0.441458 0.074446 0.388060 0.366716
C6    C     C_R   0.558062 0.925559 0.612310 0.369934
C7    C     C_R   0.558780 0.072172 0.611728 0.370756
C8    C     C_R   0.441972 0.927844 0.387804 0.372338
C9    C     C_2   0.130452 0.258844 0.602969 0.660503
C10   C     C_2   0.864286 0.751088 0.409320 0.645866
C11   C     C_2   0.883756 0.236727 0.479481 0.632157
C12   C     C_R   0.736970 0.498934 0.489907 0.556626
C13   C     C_2   0.117007 0.764924 0.458779 0.623931
C14   C     C_R   0.499662 0.500066 0.221015 0.567081
C15   C     C_R   0.500322 0.499932 0.778982 0.567735
C16   C     C_1   0.499879 0.500084 0.065632 0.043306
C17   C     C_1   0.500112 0.499911 0.934370 0.042433
C18   C     C_R   0.065558 0.380730 0.535455 -0.000023
C19   C     C_R   0.932468 0.622732 0.453181 0.015901
C20   C     C_R   0.939862 0.373884 0.502568 0.003601
Cu1   Cu    Cu3+1 0.500000 0.640660 0.500000 1.057054
Cu2   Cu    Cu3+1 0.500000 0.359340 0.500000 1.045095
H1    H     H_    0.205658 0.071033 0.573443 0.368015
H2    H     H_    0.787747 0.927496 0.478914 0.335912
H3    H     H_    0.787333 0.113910 0.337332 0.344408
H4    H     H_    0.144772 0.930780 0.329638 0.389083
H5    H     H_    0.339907 0.223880 0.311046 0.368988
H6    H     H_    0.659088 0.775965 0.689979 0.370492
H7    H     H_    0.659247 0.219134 0.686943 0.367946
H8    H     H_    0.343995 0.780333 0.309980 0.366879
N1    N     N_R   0.500000 0.852070 0.500000 -0.321578
N2    N     N_R   0.500000 0.147930 0.500000 -0.329634
O1    O     O_R   0.319640 0.618740 0.499990 -0.504113
O2    O     O_R   0.150319 0.140680 0.518654 -0.653885
O3    O     O_2   0.816116 0.762079 0.285432 -0.446400
O4    O     O_R   0.850600 0.855507 0.513487 -0.615383
O5    O     O_2   0.886615 0.151019 0.578862 -0.441192
O6    O     O_R   0.826518 0.207902 0.342106 -0.632723
O7    O     O_2   0.166993 0.818236 0.567234 -0.461969
O8    O     O_R   0.106809 0.835900 0.324207 -0.637000
O9    O     O_3   0.377824 0.139265 0.272670 -0.592074
O10   O     O_3   0.621146 0.860698 0.728093 -0.575672
O11   O     O_3   0.623629 0.134653 0.725894 -0.574728
O12   O     O_R   0.680360 0.381260 0.500010 -0.513709
O13   O     O_3   0.379591 0.865201 0.271948 -0.596741
O14   O     O_R   0.680360 0.618740 0.500010 -0.519437
O15   O     O_R   0.319640 0.381260 0.499990 -0.516897
O16   O     O_R   0.500000 0.618760 0.288390 -0.482372
O17   O     O_R   0.500000 0.381240 0.711610 -0.480807
O18   O     O_R   0.500000 0.618760 0.711610 -0.482136
O19   O     O_R   0.500000 0.381240 0.288390 -0.482321
O20   O     O_2   0.170952 0.264868 0.730657 -0.444458

loop_
_geom_bond_atom_site_label_1
_geom_bond_atom_site_label_2
_ccdc_geom_bond_type
C11   O6    S    
C2    C4    A    
C14   O16   A    
C3    C19   A    
C6    C7    A    
C7    N2    A    
C7    O11   S    
H3    O6    S    
C5    C8    A    
H5    O9    S    
H8    O13   S    
C14   O19   A    
C10   C19   S    
Cu1   O16   S    
C4    C18   A    
C1    C4    S    
Cu2   O15   S    
C1    O1    A    
C3    C20   A    
C12   O12   A    
Cu1   Cu2   S    
H7    O11   S    
Cu1   N1    S    
H4    O8    S    
H2    O4    S    
C9    O20   D    
Cu2   N2    S    
Cu2   O17   S    
H6    O10   S    
Cu1   O18   S    
C6    N1    A    
C18   C20   A    
C15   O17   A    
Cu2   O19   S    
C9    O2    S    
C10   O3    D    
C14   C16   S    
C11   C20   S    
C13   O7    D    
Cu1   O1    S    
C9    C18   S    
C12   O14   A    
Cu1   O14   S    
C6    O10   S    
C15   O18   A    
C11   O5    D    
C2    C13   S    
C5    O9    S    
C8    O13   S    
C1    O15   A    
H1    O2    S    
C10   O4    S    
C3    C12   S    
C2    C19   A    
C15   C17   S    
C8    N1    A    
C5    N2    A    
Cu2   O12   S    
C16   C17   T    
C13   O8    S    
