data_mof_unit_33713.cif
_audit_creation_date              2012-12-11T14:26:53-0500
_audit_creation_method            fapswitch 2.2
_symmetry_space_group_name_H-M    P1
_symmetry_Int_Tables_number       1
_space_group_crystal_system       triclinic
_cell_length_a                    15.13733
_cell_length_b                    14.838972
_cell_length_c                    14.850339
_cell_angle_alpha                 108.959512
_cell_angle_beta                  109.485705
_cell_angle_gamma                 109.436703
_cell_volume                      2584.50161313

loop_
_atom_site_label
_atom_site_type_symbol
_atom_type_description
_atom_site_fract_x
_atom_site_fract_y
_atom_site_fract_z
_atom_type_partial_charge
C1    C     C_R   0.995334 0.800784 0.088868 0.161021
C2    C     C_R   0.206350 0.800784 0.298970 -0.115752
C3    C     C_R   0.920126 0.408470 0.215224 -0.106918
C4    C     C_R   0.778038 0.221917 0.687202 -0.090392
C5    C     C_R   0.314289 0.592905 0.049581 -0.138672
C6    C     C_R   0.964568 0.499106 0.315459 0.160520
C7    C     C_R   0.325133 0.500671 0.018850 0.031496
C8    C     C_R   0.297175 0.864167 0.299231 0.119858
C9    C     C_R   0.055611 0.228806 0.054969 0.055469
C10   C     C_3   0.521487 0.390410 0.049477 0.007407
C11   C     C_3   0.421400 0.398112 0.045902 -0.439686
C12   C     C_R   0.676352 0.187268 0.676625 0.145856
C13   C     C_3   0.626318 0.598453 0.160740 -0.386439
C14   C     C_3   0.542899 0.501253 0.950705 -0.215743
C15   C     C_3   0.601017 0.497988 0.058827 0.220999
C16   C     C_R   0.025487 0.593155 0.779198 -0.152172
C17   C     C_3   0.424837 0.499980 0.035833 0.352227
C18   C     C_3   0.523110 0.603988 0.142426 -0.391968
C19   C     C_3   0.435974 0.496059 0.935369 -0.490847
C20   C     C_2   0.380721 0.030725 0.470245 -0.120387
C21   C     C_2   0.374426 0.979445 0.374145 -0.183526
C22   C     C_2   0.484988 0.116862 0.566021 -0.082231
C23   C     C_R   0.949418 0.503577 0.676306 0.093056
C24   C     C_2   0.575580 0.114940 0.575087 -0.140493
C25   C     C_2   0.833816 0.419514 0.476705 -0.078478
C26   C     C_2   0.890638 0.509169 0.577475 0.068540
C27   C     C_2   0.850907 0.425869 0.386160 -0.172458
C28   C     C_R   0.700356 0.407492 0.001480 -0.137635
C29   C     C_2   0.945386 0.499155 0.405029 -0.207959
C30   C     C_2   0.163035 0.138142 0.071638 -0.195469
C31   C     C_2   0.119457 0.191538 0.117422 -0.109395
C32   C     C_2   0.158152 0.039858 0.076772 -0.035617
C33   C     C_2   0.069259 0.968757 0.068346 -0.214234
C34   C     C_R   0.698936 0.497637 0.064134 -0.031286
C35   C     C_R   0.941041 0.411307 0.686422 -0.087885
C36   C     C_R   0.790387 0.589044 0.095319 -0.096057
C37   C     C_R   0.687723 0.231629 0.779596 -0.127564
C38   C     C_R   0.083280 0.798612 0.994464 -0.187740
C39   C     C_R   0.047396 0.859285 0.048690 0.103885
C40   C     C_3   0.981385 0.847504 0.186768 -0.499052
C41   C     C_3   0.071722 0.964488 0.276436 -0.204399
C42   C     C_3   0.073045 0.992338 0.385474 -0.938784
C43   C     C_3   0.570384 0.361770 0.139028 -0.409021
C44   C     C_3   0.492831 0.245180 0.109414 -0.308310
C45   C     C_R   0.015092 0.591091 0.308337 -0.159286
C46   C     C_3   0.541760 0.213444 0.193243 -0.840930
C47   C     C_2   0.610207 0.597559 0.942841 1.032437
C48   C     C_2   0.757373 0.310918 0.454388 0.947514
C49   C     C_3   0.906187 0.620331 0.589709 -0.443315
C50   C     C_3   0.849698 0.660173 0.649103 -0.203809
C51   C     C_3   0.871902 0.775114 0.669535 -0.943266
C52   C     C_2   0.134932 0.209991 0.227985 1.006286
C53   C     C_R   0.224230 0.409702 0.946317 -0.146210
C54   C     C_R   0.296796 0.801884 0.207291 -0.150479
C55   C     C_R   0.978404 0.253925 0.068158 -0.105874
C56   C     C_R   0.064896 0.248793 0.972864 -0.110538
H1    H     H_    0.204282 0.328760 0.890782 0.085488
H2    H     H_    0.796085 0.191211 0.623088 0.094603
H3    H     H_    0.416704 0.405017 0.120928 0.173781
H4    H     H_    0.660293 0.592240 0.235875 0.151913
H5    H     H_    0.511697 0.611517 0.214278 0.154384
H6    H     H_    0.523136 0.425990 0.880084 0.114255
H7    H     H_    0.368316 0.418466 0.859877 0.157236
H8    H     H_    0.429450 0.564261 0.922977 0.183102
H9    H     H_    0.686929 0.677439 0.177094 0.185945
H10   H     H_    0.532676 0.678993 0.136211 0.183584
H11   H     H_    0.314693 0.998142 0.485100 0.120921
H12   H     H_    0.347981 0.831653 0.175490 0.093704
H13   H     H_    0.054827 0.678146 0.801103 0.110172
H14   H     H_    0.438532 0.016599 0.358307 0.144370
H15   H     H_    0.485409 0.172980 0.634925 0.120691
H16   H     H_    0.576520 0.057518 0.508340 0.120976
H17   H     H_    0.787839 0.364209 0.302799 0.150367
H18   H     H_    0.010404 0.561026 0.487570 0.143664
H19   H     H_    0.173085 0.142627 0.004146 0.114070
H20   H     H_    0.218087 0.018038 0.069478 0.116126
H21   H     H_    0.644948 0.322193 0.969152 0.084077
H22   H     H_    0.007072 0.988972 0.070668 0.134176
H23   H     H_    0.948073 0.244356 0.122303 0.156349
H24   H     H_    0.898102 0.328346 0.621471 0.101646
H25   H     H_    0.815793 0.672466 0.147982 0.089143
H26   H     H_    0.625356 0.215589 0.801807 0.087903
H27   H     H_    0.140169 0.827231 0.967962 0.101312
H28   H     H_    0.045291 0.675306 0.366345 0.093671
H29   H     H_    0.994170 0.983710 0.375764 0.275187
H30   H     H_    0.089966 0.937406 0.415793 0.244478
H31   H     H_    0.137197 0.078315 0.447303 0.256163
H32   H     H_    0.151596 0.974469 0.288491 0.221105
H33   H     H_    0.057919 0.023582 0.251949 0.223413
H34   H     H_    0.112377 0.231985 0.937366 0.087597
H35   H     H_    0.902415 0.845134 0.158568 0.208535
H36   H     H_    0.982212 0.794519 0.224889 0.196316
H37   H     H_    0.612158 0.207453 0.190908 0.268484
H38   H     H_    0.566952 0.274889 0.276761 0.269272
H39   H     H_    0.481077 0.132222 0.173261 0.243007
H40   H     H_    0.416503 0.239553 0.105602 0.212051
H41   H     H_    0.473033 0.184942 0.027680 0.192034
H42   H     H_    0.647621 0.366120 0.147831 0.187210
H43   H     H_    0.587879 0.421399 0.219803 0.198858
H44   H     H_    0.688323 0.648218 0.867183 0.320532
H45   H     H_    0.174681 0.828376 0.350985 0.090744
H46   H     H_    0.685211 0.146370 0.365623 0.316720
H47   H     H_    0.959714 0.834400 0.722720 0.260310
H48   H     H_    0.842793 0.775963 0.590698 0.261588
H49   H     H_    0.829153 0.801146 0.711396 0.258782
H50   H     H_    0.761251 0.602853 0.598225 0.211132
H51   H     H_    0.877355 0.661799 0.729180 0.207904
H52   H     H_    0.993644 0.680917 0.634764 0.178846
H53   H     H_    0.871003 0.615671 0.508483 0.203278
H54   H     H_    0.223882 0.220493 0.370951 0.323023
H55   H     H_    0.862813 0.325144 0.187641 0.101794
H56   H     H_    0.375660 0.678291 0.096419 0.098024
H57   H     H_    0.493222 0.320665 0.969070 0.106379
H58   H     H_    0.349040 0.320398 0.975763 0.129327
N1    N     N_R   0.993980 0.704500 0.053430 -0.060154
N2    N     N_R   0.053690 0.556380 0.849240 -0.041402
N3    N     N_R   0.790390 0.443640 0.997160 -0.025574
N4    N     N_R   0.998260 0.443670 0.792970 -0.048383
N5    N     N_R   0.845830 0.556350 0.053430 -0.033118
N6    N     N_R   0.792820 0.295510 0.849240 -0.044768
N7    N     N_R   0.051260 0.704510 0.997160 -0.048773
N8    N     N_R   0.001740 0.556330 0.207030 -0.043223
N9    N     N_R   0.154170 0.443650 0.946570 -0.035462
N10   N     N_R   0.207180 0.704490 0.150760 -0.038189
N11   N     N_R   0.948740 0.295490 0.002840 -0.053376
N12   N     N_R   0.006020 0.295500 0.946570 -0.045104
N13   N     N_R   0.149890 0.704480 0.207030 -0.043464
N14   N     N_R   0.946310 0.443620 0.150760 -0.049803
N15   N     N_R   0.209610 0.556360 0.002840 -0.035399
N16   N     N_R   0.850110 0.295520 0.792970 -0.048711
Ni1   Ni    Ni4+2 0.997880 0.629240 0.129060 0.209953
Ni2   Ni    Ni4+2 0.002120 0.370760 0.870940 0.218438
Ni3   Ni    Ni4+2 0.129260 0.629260 0.000000 0.212669
Ni4   Ni    Ni4+2 0.870740 0.370740 0.000000 0.215166
O1    O     O_2   0.635501 0.691150 0.004158 -0.671979
O2    O     O_R   0.642920 0.578206 0.864186 -0.798213
O3    O     O_2   0.708563 0.305225 0.505293 -0.647679
O4    O     O_R   0.739636 0.215083 0.373712 -0.809156
O5    O     O_2   0.076379 0.232428 0.259730 -0.670308
O6    O     O_R   0.220009 0.204935 0.297605 -0.790008

loop_
_geom_bond_atom_site_label_1
_geom_bond_atom_site_label_2
_ccdc_geom_bond_type
N11   Ni4   S    
C41   H33   S    
N1    N7    A    
C6    C45   A    
C47   O2    S    
C27   C29   D    
C41   C42   S    
N8    Ni1   S    
C20   H11   S    
C43   H42   S    
C31   C52   S    
C3    C6    A    
C13   H4    S    
N1    Ni1   S    
C37   N6    A    
C33   C39   S    
C13   C18   S    
N6    N16   A    
C43   H43   S    
C28   N3    A    
N3    N5    A    
C30   C31   D    
C38   H27   S    
C33   H22   S    
C54   H12   S    
C51   H47   S    
C14   H6    S    
C35   H24   S    
C52   O5    D    
H46   O4    S    
C23   C26   S    
C12   C37   A    
C36   N5    A    
C11   H58   S    
C1    C40   S    
C17   C19   S    
C46   H39   S    
C55   N11   A    
C3    H55   S    
C9    C31   S    
C7    C17   S    
N5    Ni1   S    
C42   H30   S    
C56   N12   A    
C4    C12   A    
C48   O3    D    
C36   H25   S    
C15   C34   S    
C34   C36   A    
C2    N13   A    
C5    N15   A    
N11   N12   A    
C28   C34   A    
N9    N15   A    
C11   H3    S    
N3    Ni4   S    
C16   N2    A    
C44   C46   S    
C50   C51   S    
C49   H52   S    
C53   N9    A    
C26   C49   S    
C42   H29   S    
C5    C7    A    
C53   H1    S    
C3    N14   A    
C4    N16   A    
N2    Ni3   S    
C2    H45   S    
C25   C26   D    
N16   Ni2   S    
C43   C44   S    
C44   H40   S    
N14   Ni4   S    
C55   H23   S    
C44   H41   S    
C46   H38   S    
N12   Ni2   S    
C19   H8    S    
C51   H49   S    
C17   C18   S    
C9    C56   A    
C40   H36   S    
C28   H21   S    
C25   C48   S    
C10   H57   S    
C19   H7    S    
N10   N13   A    
N15   Ni3   S    
N10   Ni3   S    
C40   C41   S    
C20   C22   S    
C16   C23   A    
C23   C35   A    
C13   C15   S    
C50   H51   S    
C22   C24   D    
C37   H26   S    
C45   H28   S    
C18   H10   S    
C7    C53   A    
C8    C54   A    
C22   H15   S    
C24   H16   S    
C49   H53   S    
C41   H32   S    
C54   N10   A    
C11   C17   S    
C47   O1    D    
C10   C43   S    
C14   C19   S    
C2    C8    A    
C16   H13   S    
N9    Ni2   S    
C8    C21   S    
C32   H20   S    
C18   H5    S    
C14   C47   S    
C29   H18   S    
C5    H56   S    
C45   N8    A    
C25   C27   S    
C12   C24   S    
C48   O4    S    
C21   H14   S    
C10   C15   S    
C32   C33   D    
H54   O6    S    
C51   H48   S    
C30   C32   S    
C30   H19   S    
C38   C39   A    
C46   H37   S    
C56   H34   S    
C52   O6    S    
N2    N4    A    
N6    Ni4   S    
C40   H35   S    
N8    N14   A    
C9    C55   A    
C13   H9    S    
N13   Ni1   S    
C38   N7    A    
N4    Ni2   S    
C10   C11   S    
C1    C39   A    
C6    C29   S    
C20   C21   D    
C49   C50   S    
C4    H2    S    
C50   H50   S    
C14   C15   S    
C35   N4    A    
C42   H31   S    
C1    N1    A    
N7    Ni3   S    
C27   H17   S    
H44   O2    S    
