data_mof_unit_41296.cif
_audit_creation_date              2013-03-05T15:47:08-0500
_audit_creation_method            fapswitch 2.2
_symmetry_space_group_name_H-M    P1
_symmetry_Int_Tables_number       1
_space_group_crystal_system       triclinic
_cell_length_a                    10.274919
_cell_length_b                    10.573142
_cell_length_c                    13.706873
_cell_angle_alpha                 93.791091
_cell_angle_beta                  101.64991
_cell_angle_gamma                 95.007476
_cell_volume                      1447.48599406

loop_
_atom_site_label
_atom_site_type_symbol
_atom_site_description
_atom_site_fract_x
_atom_site_fract_y
_atom_site_fract_z
_atom_type_partial_charge
O1    O     O_R   0.935190 0.693030 0.507870 -0.581181
O2    O     O_R   0.064810 0.306970 0.492130 -0.607421
O3    O     O_R   0.142080 0.658430 0.482770 -0.547633
O4    O     O_R   0.857920 0.341570 0.517230 -0.546483
C1    C     C_R   0.049015 0.733012 0.489132 0.969512
C2    C     C_R   0.946349 0.265845 0.501211 0.975691
O5    O     O_R   0.969700 0.527180 0.651960 -0.617910
O6    O     O_R   0.030300 0.472820 0.348040 -0.629540
O7    O     O_R   0.176600 0.492580 0.626860 -0.577356
O8    O     O_R   0.823400 0.507420 0.373140 -0.547338
C3    C     C_R   0.094189 0.512704 0.685697 0.876154
C4    C     C_R   0.905168 0.486156 0.313825 0.962207
Zn1   Zn    Zn3+2 0.861850 0.523100 0.516760 1.094793
Zn2   Zn    Zn3+2 0.138150 0.476900 0.483240 1.051166
C5    C     C_R   0.140806 0.510038 0.793174 -0.077157
C6    C     C_R   0.848201 0.460634 0.206410 -0.070811
C7    C     C_R   0.116161 0.554374 0.963158 -0.139249
C8    C     C_R   0.835861 0.336664 0.049504 -0.123816
C9    C     C_R   0.066596 0.554537 0.860981 -0.189045
C10   C     C_R   0.909291 0.388170 0.142799 -0.141261
C11   C     C_R   0.259714 0.458397 0.827753 -0.097923
C12   C     C_R   0.718806 0.490343 0.171912 -0.098707
C13   C     C_R   0.307245 0.449535 0.929657 0.075680
C14   C     C_R   0.637540 0.425085 0.086036 0.067438
C15   C     C_R   0.239267 0.506859 0.998532 0.116059
C16   C     C_R   0.698427 0.351309 0.021222 0.111481
C17   C     C_R   0.429057 0.397818 0.963812 -0.093626
C18   C     C_R   0.498278 0.435383 0.062254 -0.085779
C19   C     C_R   0.425161 0.480397 0.133372 0.291510
C20   C     C_R   0.484746 0.311648 0.902976 0.286128
C21   C     C_R   0.296081 0.517187 0.100856 -0.033760
C22   C     C_R   0.620426 0.290072 0.931793 -0.017346
H1    H     H_    0.680518 0.560759 0.215939 0.226196
H2    H     H_    0.317833 0.429726 0.774383 0.215984
H3    H     H_    0.011093 0.366151 0.166614 0.191257
H4    H     H_    0.972636 0.593131 0.835258 0.180297
H5    H     H_    0.059268 0.594377 0.013902 0.182501
H6    H     H_    0.885606 0.280555 0.002050 0.184920
C23   C     C_2   0.064815 0.865735 0.468135 -0.407288
C24   C     C_2   0.913038 0.128625 0.485942 -0.363289
C25   C     C_2   0.957422 0.921668 0.424076 0.246599
C26   C     C_2   0.968568 0.058737 0.422170 0.255436
H7    H     H_    0.852326 0.082989 0.532658 0.177344
H8    H     H_    0.161056 0.920982 0.495877 0.193839
N1    N     N_2   0.322180 0.446120 0.460900 -0.133871
N2    N     N_2   0.677820 0.553880 0.539100 -0.117228
C27   C     C_2   0.431318 0.502267 0.521339 0.320666
C28   C     C_2   0.572478 0.468256 0.520732 0.359218
N3    N     N_3   0.223363 0.568084 0.170956 -0.446680
H9    H     H_    0.216521 0.503428 0.224461 0.217188
H10   H     H_    0.275590 0.653456 0.206493 0.264240
N4    N     N_3   0.678980 0.203239 0.872497 -0.431793
H11   H     H_    0.678168 0.238652 0.803072 0.270309
H12   H     H_    0.622278 0.114537 0.862276 0.251490
N5    N     N_R   0.471649 0.468477 0.237804 0.169536
O9    O     O_R   0.519257 0.363978 0.266496 -0.331446
O10   O     O_R   0.476478 0.564390 0.303350 -0.448683
N6    N     N_R   0.399388 0.231504 0.821902 0.186578
O11   O     O_R   0.286564 0.175522 0.834110 -0.372371
O12   O     O_R   0.431418 0.217026 0.735057 -0.357739
N7    N     N_R   0.031791 0.113488 0.347893 0.218601
O13   O     O_R   0.975289 0.199350 0.295493 -0.404410
O14   O     O_R   0.126141 0.057983 0.317144 -0.368413
N8    N     N_R   0.834718 0.850291 0.371965 0.243240
O15   O     O_R   0.838742 0.759218 0.304546 -0.413588
O16   O     O_R   0.721216 0.895329 0.373528 -0.329054
N9    N     N_R   0.593970 0.336419 0.522410 0.214079
O17   O     O_R   0.617593 0.286156 0.607424 -0.371603
O18   O     O_R   0.596225 0.267636 0.440728 -0.282053
N10   N     N_R   0.418454 0.594440 0.599481 0.187211
O19   O     O_R   0.474978 0.579504 0.691279 -0.424265
O20   O     O_R   0.383860 0.706183 0.577674 -0.375925
N11   N     N_3   0.657436 0.682357 0.534573 -0.318103
H13   H     H_    0.641216 0.718506 0.603342 0.236010
H14   H     H_    0.579438 0.695118 0.475137 0.255275
N12   N     N_3   0.335080 0.338676 0.401301 -0.288472
H15   H     H_    0.300266 0.259966 0.434489 0.249938
H16   H     H_    0.268333 0.340957 0.333228 0.233845

loop_
_geom_bond_atom_site_label_1
_geom_bond_atom_site_label_2
_geom_bond_distance
_ccdc_geom_bond_type
C15   C21   1.399203 A    
N5    O9    1.299547 A    
C16   C22   1.404208 A    
C25   C26   1.446155 S    
C8    C16   1.411872 A    
C23   C25   1.350576 D    
O5    C3    1.295398 A    
N1    N12   1.386635 S    
O1    C1    1.289137 A    
C18   C19   1.427580 A    
N12   H16   1.043541 S    
C9    H4    1.083150 S    
Zn1   N2    2.025647 S    
N6    O12   1.300638 A    
N11   H13   1.043692 S    
O4    Zn1   1.916704 S    
N7    O14   1.301335 A    
C22   N4    1.435520 S    
C10   H3    1.081452 S    
C3    C5    1.457161 S    
C24   H7    1.087017 S    
C4    C6    1.467986 S    
N3    H10   1.044873 S    
O6    Zn2   1.953410 S    
N10   O19   1.301010 A    
C13   C17   1.414706 A    
C6    C10   1.399254 A    
C24   C26   1.351022 D    
C17   C20   1.426905 A    
N11   H14   1.045905 S    
O2    C2    1.289196 A    
C21   N3    1.436273 S    
N4    H12   1.045430 S    
Zn2   N1    2.025646 S    
N1    C27   1.319014 D    
C11   C13   1.395745 A    
N2    C28   1.320330 D    
N9    O17   1.299770 A    
C2    C24   1.452625 S    
N12   H15   1.044656 S    
O4    C2    1.303510 A    
C11   H2    1.078119 S    
C19   N5    1.432225 S    
N6    O11   1.301494 A    
N9    O18   1.299500 A    
N8    O16   1.301147 A    
C5    C9    1.399145 A    
O7    Zn2   1.920988 S    
C27   N10   1.433900 S    
C27   C28   1.525976 S    
C5    C11   1.390074 A    
O6    C4    1.299918 A    
C7    H5    1.082978 S    
O7    C3    1.302780 A    
C26   N7    1.439813 S    
O3    Zn2   1.916704 S    
O8    C4    1.304641 A    
C1    C23   1.452910 S    
C12   C14   1.397824 A    
O1    Zn1   1.908009 S    
N4    H11   1.044154 S    
C12   H1    1.077430 S    
C6    C12   1.388725 A    
C14   C18   1.417435 A    
C14   C16   1.416737 A    
O3    C1    1.303858 A    
O8    Zn1   1.920987 S    
C23   H8    1.087012 S    
C7    C15   1.408174 A    
N8    O15   1.299082 A    
N5    O10   1.300301 A    
C8    H6    1.082795 S    
C19   C21   1.408282 A    
C20   C22   1.413019 A    
C20   N6    1.440238 S    
C7    C9    1.390423 A    
C8    C10   1.395567 A    
C13   C15   1.418095 A    
C28   N9    1.431169 S    
N7    O13   1.298808 A    
O2    Zn2   1.908010 S    
O5    Zn1   1.953410 S    
N3    H9    1.043478 S    
C17   C18   1.405902 A    
N10   O20   1.299496 A    
C25   N8    1.438131 S    
N2    N11   1.395907 S    
