data_mof_unit_13050.cif
_audit_creation_date              2012-12-10T19:26:40-0500
_audit_creation_method            fapswitch 2.2
_symmetry_space_group_name_H-M    P1
_symmetry_Int_Tables_number       1
_space_group_crystal_system       triclinic
_cell_length_a                    18.919521
_cell_length_b                    10.521386
_cell_length_c                    9.761792
_cell_angle_alpha                 88.902954
_cell_angle_beta                  90.435114
_cell_angle_gamma                 89.979162
_cell_volume                      1942.76579076

loop_
_atom_site_label
_atom_site_type_symbol
_atom_type_description
_atom_site_fract_x
_atom_site_fract_y
_atom_site_fract_z
_atom_type_partial_charge
C1    C     C_R   0.499925 0.257893 0.501261 0.981102
C2    C     C_R   0.500256 0.742123 0.498737 0.963439
C3    C     C_3   0.495137 0.035291 0.629208 0.420183
C4    C     C_3   0.505323 0.964785 0.370773 0.409474
C5    C     C_3   0.555011 0.956120 0.571353 0.382568
C6    C     C_3   0.445438 0.043931 0.428613 0.382903
C7    C     C_3   0.499871 0.876483 0.496618 -0.160882
C8    C     C_3   0.500554 0.123578 0.503362 -0.166397
C9    C     C_3   0.438598 0.955338 0.555715 -0.454424
C10   C     C_3   0.561849 0.044775 0.444264 -0.454585
C11   C     C_3   0.485365 0.387874 0.051064 -0.089355
C12   C     C_3   0.514659 0.612074 0.948884 -0.081849
C13   C     C_3   0.546139 0.422264 0.955008 0.171982
C14   C     C_3   0.453867 0.577743 0.044844 0.169715
C15   C     C_3   0.438770 0.466397 0.950815 -0.111065
C16   C     C_3   0.561244 0.533559 0.049135 -0.099992
C17   C     C_R   0.365175 0.496082 0.499447 0.898805
C18   C     C_R   0.634879 0.498719 0.500633 0.860108
C19   C     C_R   0.250333 0.523033 0.610446 -0.289446
C20   C     C_R   0.738370 0.397337 0.401043 -0.275280
C21   C     C_R   0.178566 0.495082 0.625670 0.134697
C22   C     C_R   0.808434 0.356351 0.406244 0.128773
C23   C     C_R   0.145768 0.415240 0.528647 -0.023384
C24   C     C_R   0.851408 0.393793 0.517417 -0.034875
C25   C     C_R   0.184781 0.366871 0.420216 -0.207908
C26   C     C_R   0.823324 0.468854 0.620924 -0.195791
C27   C     C_R   0.255317 0.398061 0.403310 0.440652
C28   C     C_R   0.754222 0.512988 0.613196 0.430003
C29   C     C_R   0.288874 0.476070 0.500332 -0.169618
C30   C     C_R   0.710801 0.474981 0.502876 -0.176539
C31   C     C_R   0.927751 0.375738 0.517799 0.292621
C32   C     C_R   0.069862 0.392207 0.525676 0.294648
H1    H     H_    0.276489 0.582926 0.684445 0.155393
H2    H     H_    0.704505 0.364755 0.318896 0.161203
H3    H     H_    0.387307 0.438852 0.904760 0.144906
H4    H     H_    0.612747 0.560905 0.095155 0.147517
H5    H     H_    0.159709 0.305968 0.345772 0.174409
H6    H     H_    0.856719 0.500744 0.704238 0.174620
H7    H     H_    0.389062 0.916456 0.600073 0.177435
H8    H     H_    0.611377 0.083789 0.399962 0.175462
H9    H     H_    0.473137 0.293822 0.098659 0.163805
H10   H     H_    0.526823 0.706154 0.901286 0.158118
N1    N     N_R   0.034290 0.409427 0.405897 -0.183117
N2    N     N_R   0.963413 0.355137 0.637275 -0.184124
N3    N     N_R   0.964402 0.402197 0.402251 -0.174397
N4    N     N_R   0.033526 0.362329 0.640920 -0.175676
N5    N     N_3   0.499950 0.500030 0.863290 -0.103229
N6    N     N_3   0.500050 0.499970 0.136710 -0.106166
O1    O     O_R   0.500000 0.313960 0.616610 -0.599834
O2    O     O_R   0.500000 0.686040 0.383390 -0.597345
O3    O     O_R   0.500030 0.313950 0.383350 -0.608286
O4    O     O_R   0.499970 0.686050 0.616650 -0.616255
O5    O     O_R   0.398120 0.499990 0.616660 -0.622332
O6    O     O_R   0.601880 0.500010 0.383340 -0.621267
O7    O     O_R   0.398150 0.499980 0.383410 -0.627683
O8    O     O_R   0.601850 0.500020 0.616590 -0.616847
Zn1   Zn    Zn3+2 0.499980 0.500010 0.655740 0.962988
Zn2   Zn    Zn3+2 0.500020 0.499990 0.344260 0.961290
C33   C     C_3   0.139355 0.555141 0.743021 -0.406948
C34   C     C_3   0.091686 0.664632 0.692369 -0.336700
C35   C     C_3   0.052132 0.723779 0.810970 -0.849070
H11   H     H_    0.017794 0.651701 0.861825 0.267686
H12   H     H_    0.090082 0.762035 0.887161 0.259557
H13   H     H_    0.018398 0.802954 0.771547 0.254699
H14   H     H_    0.124568 0.739019 0.641491 0.223721
H15   H     H_    0.052331 0.630556 0.616638 0.236168
H16   H     H_    0.108693 0.482290 0.800617 0.221153
H17   H     H_    0.177662 0.593910 0.818538 0.193938
C36   C     C_3   0.834171 0.269795 0.294670 -0.415203
C37   C     C_3   0.844965 0.344292 0.159641 -0.318167
C38   C     C_3   0.880528 0.262495 0.052651 -0.848093
H18   H     H_    0.934666 0.235694 0.087316 0.268540
H19   H     H_    0.849401 0.174818 0.035100 0.260322
H20   H     H_    0.884404 0.316908 0.954365 0.256982
H21   H     H_    0.793044 0.377474 0.118742 0.222935
H22   H     H_    0.878441 0.429247 0.177480 0.243275
H23   H     H_    0.883855 0.220688 0.325796 0.215356
H24   H     H_    0.794539 0.193345 0.278540 0.192138
O9    O     O_3   0.290564 0.344411 0.296116 -0.718446
H25   H     H_    0.310405 0.415336 0.240666 0.332707
O10   O     O_3   0.732218 0.594946 0.713072 -0.763891
H26   H     H_    0.693700 0.649081 0.675140 0.364242
O11   O     O_3   0.611180 0.904386 0.647763 -0.763795
H27   H     H_    0.640127 0.978164 0.675452 0.336123
O12   O     O_3   0.389248 0.095588 0.352201 -0.708325
H28   H     H_    0.361321 0.021590 0.321534 0.336111
O13   O     O_3   0.491113 0.075825 0.764458 -0.760696
H29   H     H_    0.489223 0.996926 0.821452 0.339925
O14   O     O_3   0.509411 0.924325 0.235513 -0.763245
H30   H     H_    0.511277 0.003254 0.178564 0.339607
C39   C     C_3   0.601456 0.331353 0.899556 -0.373258
C40   C     C_3   0.637659 0.255916 0.016070 -0.398825
C41   C     C_3   0.692065 0.163615 0.960624 -0.839116
H31   H     H_    0.665858 0.093227 0.893874 0.272727
H32   H     H_    0.732874 0.215960 0.900899 0.265489
H33   H     H_    0.718209 0.111913 0.047324 0.251560
H34   H     H_    0.664569 0.322489 0.086247 0.216259
H35   H     H_    0.597694 0.201006 0.075477 0.231823
H36   H     H_    0.575420 0.264663 0.828782 0.262395
H37   H     H_    0.641667 0.387216 0.842177 0.234131
C42   C     C_3   0.398715 0.669748 0.099004 -0.385755
C43   C     C_3   0.361106 0.741238 0.981103 -0.395861
C44   C     C_3   0.306115 0.833394 0.034936 -0.838633
H38   H     H_    0.265685 0.781223 0.095805 0.253153
H39   H     H_    0.331896 0.905606 0.100063 0.274172
H40   H     H_    0.279399 0.882899 0.947406 0.255382
H41   H     H_    0.400286 0.795797 0.919353 0.233227
H42   H     H_    0.334306 0.672290 0.913226 0.216512
H43   H     H_    0.359238 0.615467 0.159651 0.195384
H44   H     H_    0.425165 0.738791 0.166557 0.265762

loop_
_geom_bond_atom_site_label_1
_geom_bond_atom_site_label_2
_ccdc_geom_bond_type
O13   H29   S    
C41   H31   S    
C27   C29   A    
C1    C8    S    
C17   C29   S    
C36   H23   S    
C2    C7    S    
C15   N5    S    
C16   N6    S    
C6    C9    S    
O10   H26   S    
C11   N6    S    
C40   H35   S    
C20   C30   A    
O12   H28   S    
C42   C43   S    
C6    O12   S    
C19   C21   A    
C24   C26   A    
C21   C33   S    
C27   O9    S    
C36   C37   S    
C4    C7    S    
C5    O11   S    
C42   H43   S    
C9    H7    S    
O1    Zn1   S    
O8    Zn1   S    
C10   H8    S    
C35   H12   S    
C12   H10   S    
C2    O2    A    
C25   H5    S    
C11   C15   S    
C12   C16   S    
C43   H42   S    
C37   C38   S    
C18   C30   S    
C39   H37   S    
C17   O7    A    
C22   C36   S    
C18   O8    A    
C33   H16   S    
C34   H15   S    
C33   C34   S    
C41   H32   S    
C13   C39   S    
C36   H24   S    
C43   C44   S    
C12   N5    S    
C15   H3    S    
N2    N4    A    
C40   H34   S    
C31   N2    A    
C3    O13   S    
O2    Zn2   S    
C4    C6    S    
C3    C8    S    
C19   H1    S    
C39   C40   S    
C5    C7    S    
O5    Zn1   S    
C26   H6    S    
C14   C42   S    
C14   N6    S    
C42   H44   S    
C34   C35   S    
C35   H13   S    
C3    C9    S    
C33   H17   S    
N5    Zn1   S    
C1    O3    A    
O11   H27   S    
C43   H41   S    
C44   H39   S    
O3    Zn2   S    
N1    N3    A    
C2    O4    A    
C12   C14   S    
C34   H14   S    
C41   H33   S    
C21   C23   A    
C37   H22   S    
C22   C24   A    
O7    Zn2   S    
C4    C10   S    
C19   C29   A    
C17   O5    A    
C37   H21   S    
C13   N5    S    
C4    O14   S    
O6    Zn2   S    
C7    C9    S    
C28   O10   S    
C32   N4    A    
C20   C22   A    
C3    C5    S    
C38   H20   S    
C6    C8    S    
N6    Zn2   S    
C25   C27   A    
C26   C28   A    
C23   C32   S    
C28   C30   A    
C24   C31   S    
C20   H2    S    
C5    C10   S    
C16   H4    S    
C11   C13   S    
C40   C41   S    
C32   N1    A    
C11   H9    S    
C44   H40   S    
C23   C25   A    
C35   H11   S    
O4    Zn1   S    
C18   O6    A    
O9    H25   S    
C38   H18   S    
C8    C10   S    
C31   N3    A    
C13   C16   S    
C38   H19   S    
C44   H38   S    
C14   C15   S    
C39   H36   S    
O14   H30   S    
C1    O1    A    
