data_mof_unit_23568.cif
_audit_creation_date              2012-12-11T15:12:46-0500
_audit_creation_method            fapswitch 2.2
_symmetry_space_group_name_H-M    P1
_symmetry_Int_Tables_number       1
_space_group_crystal_system       triclinic
_cell_length_a                    22.374725
_cell_length_b                    6.935744
_cell_length_c                    19.401509
_cell_angle_alpha                 90.017867
_cell_angle_beta                  98.996884
_cell_angle_gamma                 89.992672
_cell_volume                      2973.78738918

loop_
_atom_site_label
_atom_site_type_symbol
_atom_type_description
_atom_site_fract_x
_atom_site_fract_y
_atom_site_fract_z
_atom_type_partial_charge
O1    O     O_R   0.448420 0.506120 0.415750 -0.531439
O2    O     O_R   0.551580 0.006120 0.584250 -0.536433
O3    O     O_R   0.436490 0.174470 0.555610 -0.530631
O4    O     O_R   0.563510 0.674470 0.444390 -0.531507
C1    C     C_R   0.421593 0.344596 0.576398 0.771582
C2    C     C_R   0.578636 0.844646 0.423891 0.771222
O5    O     O_R   0.441310 0.176330 0.414520 -0.546026
O6    O     O_R   0.558690 0.676330 0.585480 -0.539409
O7    O     O_R   0.556430 0.007110 0.442150 -0.540543
O8    O     O_R   0.443570 0.507110 0.557850 -0.540940
C3    C     C_R   0.426822 0.345269 0.388556 0.817971
C4    C     C_R   0.573396 0.845347 0.611316 0.816275
O9    O     O_3   0.537770 0.339560 0.509230 -0.372361
O10   O     O_3   0.462230 0.839560 0.490770 -0.373256
V1    V     V_3+5 0.492990 0.064280 0.498290 1.474858
V2    V     V_3+5 0.507010 0.564280 0.501710 1.475501
C5    C     C_R   0.867596 0.009245 0.697803 0.342970
C6    C     C_R   0.132361 0.514649 0.301652 0.344088
H1    H     H_    0.951269 0.055752 0.766400 0.126127
H2    H     H_    0.048964 0.562902 0.232809 0.125484
C7    C     C_R   0.883664 0.942459 0.822282 -0.156758
C8    C     C_R   0.116112 0.442834 0.177679 -0.156133
C9    C     C_R   0.588525 0.863281 0.740169 0.270358
C10   C     C_R   0.410931 0.349266 0.259698 0.269488
C11   C     C_R   0.625698 0.901001 0.803861 -0.163537
C12   C     C_R   0.373663 0.380025 0.195636 -0.164152
C13   C     C_R   0.687862 0.920978 0.807767 -0.124673
C14   C     C_R   0.311703 0.404419 0.191785 -0.124734
C15   C     C_R   0.716772 0.896945 0.748767 0.050967
C16   C     C_R   0.282918 0.392053 0.251349 0.050553
C17   C     C_R   0.679630 0.873263 0.682395 -0.046045
C18   C     C_R   0.320375 0.379402 0.318068 -0.048290
C19   C     C_R   0.781338 0.910916 0.753825 -0.057734
C20   C     C_R   0.218421 0.410701 0.246114 -0.057139
C21   C     C_R   0.806084 0.950168 0.692017 -0.045854
C22   C     C_R   0.193669 0.454001 0.307528 -0.049444
C23   C     C_R   0.769238 0.927246 0.626172 0.283975
C24   C     C_R   0.229741 0.429692 0.373476 0.289428
C25   C     C_R   0.707932 0.870286 0.621981 0.205026
C26   C     C_R   0.292828 0.397804 0.378925 0.203423
C27   C     C_R   0.821957 0.887719 0.818236 0.313169
C28   C     C_R   0.177518 0.384455 0.182044 0.311960
C29   C     C_R   0.904748 0.007547 0.762674 -0.310154
C30   C     C_R   0.095248 0.512148 0.236848 -0.308932
C31   C     C_R   0.615143 0.854993 0.678651 -0.139533
C32   C     C_R   0.384739 0.354909 0.321553 -0.138979
H3    H     H_    0.712171 0.965924 0.857603 0.172903
H4    H     H_    0.287644 0.444197 0.141265 0.173800
H5    H     H_    0.607113 0.918187 0.851672 0.125761
H6    H     H_    0.392004 0.387736 0.147375 0.125705
C33   C     C_3   0.804353 0.732466 0.258178 0.230275
C34   C     C_3   0.195857 0.232107 0.741976 0.230067
C35   C     C_3   0.787222 0.107221 0.250375 0.176546
C36   C     C_3   0.212868 0.606921 0.749768 0.176095
C37   C     C_3   0.740612 0.087798 0.302785 0.227576
C38   C     C_3   0.259532 0.587485 0.697419 0.227131
H7    H     H_    0.784169 0.751018 0.365736 0.205298
H8    H     H_    0.216159 0.250432 0.634465 0.202220
H9    H     H_    0.765258 0.211477 0.210427 0.035503
H10   H     H_    0.234778 0.711289 0.789728 0.035571
H11   H     H_    0.704266 0.198134 0.288947 0.035315
H12   H     H_    0.295831 0.697962 0.711272 0.034508
C39   C     C_1   0.624721 0.855162 0.379014 -0.179903
C40   C     C_1   0.375560 0.355085 0.621346 -0.180946
C41   C     C_3   0.792645 0.913400 0.209196 0.161041
C42   C     C_3   0.207464 0.413166 0.790948 0.161629
C43   C     C_3   0.759479 0.729043 0.311924 -0.273534
C44   C     C_3   0.240801 0.228663 0.688308 -0.272835
C45   C     C_3   0.709845 0.885770 0.294543 0.153248
C46   C     C_3   0.290371 0.385566 0.705735 0.153397
C47   C     C_3   0.680426 0.860387 0.216772 -0.456770
C48   C     C_3   0.319729 0.360422 0.783530 -0.457089
C49   C     C_3   0.728447 0.878680 0.166729 -0.489428
C50   C     C_3   0.271641 0.378668 0.833497 -0.489746
C51   C     C_1   0.663048 0.867504 0.341184 -0.015388
C52   C     C_1   0.337223 0.367362 0.659164 -0.013866
C53   C     C_1   0.838128 0.928723 0.160717 -0.059871
C54   C     C_1   0.161927 0.428504 0.839361 -0.060139
C55   C     C_1   0.875622 0.939731 0.121756 -0.200627
C56   C     C_1   0.124402 0.439571 0.878282 -0.201027
H13   H     H_    0.728073 0.745312 0.134716 0.170824
H14   H     H_    0.272026 0.245347 0.865507 0.170542
H15   H     H_    0.715646 0.998810 0.129294 0.169420
H16   H     H_    0.284368 0.498884 0.870940 0.169215
H17   H     H_    0.658263 0.716578 0.209480 0.175490
H18   H     H_    0.341948 0.216698 0.790864 0.174986
H19   H     H_    0.795050 0.600111 0.225334 0.075526
H20   H     H_    0.205159 0.099835 0.774837 0.075385
H21   H     H_    0.738012 0.584098 0.311203 0.094988
H22   H     H_    0.262323 0.083776 0.689085 0.095267
H23   H     H_    0.644524 0.970887 0.202688 0.161065
H24   H     H_    0.355577 0.471067 0.797648 0.161560
O11   O     O_R   0.056480 0.288780 0.942210 -0.538796
O12   O     O_R   0.943520 0.788780 0.057790 -0.538671
O13   O     O_R   0.058700 0.616820 0.085490 -0.534797
O14   O     O_R   0.941300 0.116820 0.914510 -0.534808
C57   C     C_R   0.073412 0.448408 0.111361 0.705111
C58   C     C_R   0.926528 0.948363 0.888613 0.704708
O15   O     O_R   0.063520 0.618570 0.944410 -0.536806
O16   O     O_R   0.936480 0.118570 0.055590 -0.536774
O17   O     O_R   0.948420 0.787670 0.915740 -0.538883
O18   O     O_R   0.051580 0.287670 0.084260 -0.539388
C59   C     C_R   0.078934 0.449753 0.924017 0.722398
C60   C     C_R   0.921068 0.949801 0.075988 0.722350
O19   O     O_3   0.962260 0.453430 0.990800 -0.365795
O20   O     O_3   0.037740 0.953430 0.009200 -0.365887
V3    V     V_3+5 0.007000 0.728750 0.001710 1.426996
V4    V     V_3+5 0.993000 0.228750 0.998290 1.426676
O21   O     O_3   0.864155 0.720353 0.292780 -0.651710
H25   H     H_    0.889041 0.667821 0.259013 0.279106
O22   O     O_3   0.136085 0.219812 0.707291 -0.652020
H26   H     H_    0.111169 0.167343 0.741023 0.279144
N1    N     N_2   0.844231 0.201577 0.279195 -0.519474
H27   H     H_    0.862830 0.283779 0.243607 0.240329
C61   C     C_3   0.889473 0.108824 0.329791 -0.367936
H28   H     H_    0.921294 0.026174 0.302575 0.188880
H29   H     H_    0.869091 0.014326 0.365753 0.263655
H30   H     H_    0.916052 0.221431 0.361710 0.171785
N2    N     N_2   0.155851 0.701131 0.720886 -0.519584
H31   H     H_    0.137211 0.783414 0.756440 0.240278
C62   C     C_3   0.110653 0.608170 0.670281 -0.368437
H32   H     H_    0.078852 0.525478 0.697489 0.188585
H33   H     H_    0.131081 0.513677 0.634333 0.263636
H34   H     H_    0.084041 0.720650 0.638349 0.171417
O23   O     O_3   0.767331 0.118156 0.372467 -0.640270
H35   H     H_    0.772637 0.259533 0.378756 0.306017
O24   O     O_3   0.232856 0.617573 0.627710 -0.636138
H36   H     H_    0.227493 0.758917 0.621395 0.307829
O25   O     O_3   0.794277 0.952604 0.566041 -0.616308
H37   H     H_    0.762418 0.999115 0.528401 0.316561
O26   O     O_3   0.201883 0.426991 0.432305 -0.614074
H38   H     H_    0.224531 0.339746 0.467535 0.308081
N3    N     N_2   0.892424 0.078940 0.639304 -0.455306
H39   H     H_    0.937365 0.043615 0.640342 0.246770
C63   C     C_3   0.881168 0.281631 0.625011 -0.449202
H40   H     H_    0.904604 0.370673 0.668720 0.166004
H41   H     H_    0.831848 0.312692 0.617614 0.209637
H42   H     H_    0.898536 0.321858 0.576408 0.199761
N4    N     N_2   0.108149 0.589677 0.359864 -0.456125
H43   H     H_    0.062450 0.564650 0.357946 0.246192
C64   C     C_3   0.123935 0.788873 0.375827 -0.442188
H44   H     H_    0.103767 0.883757 0.332130 0.165401
H45   H     H_    0.173859 0.807838 0.385127 0.210451
H46   H     H_    0.106222 0.832762 0.423845 0.198267
O27   O     O_3   0.801237 0.799037 0.873907 -0.658444
H47   H     H_    0.833505 0.792134 0.914880 0.277675
O28   O     O_3   0.197445 0.288682 0.127276 -0.659272
H48   H     H_    0.165217 0.281797 0.086276 0.278999
N5    N     N_2   0.524114 0.841994 0.735817 -0.523694
H49   H     H_    0.504232 0.742708 0.699783 0.242488
C65   C     C_3   0.496012 0.852531 0.798068 -0.569480
H50   H     H_    0.446189 0.837744 0.783567 0.188727
H51   H     H_    0.505167 0.994749 0.823878 0.202869
H52   H     H_    0.512711 0.733752 0.834446 0.194554
N6    N     N_2   0.475108 0.321577 0.263893 -0.524872
H53   H     H_    0.494389 0.224755 0.301179 0.243836
C66   C     C_3   0.502857 0.321081 0.201284 -0.569518
H54   H     H_    0.552605 0.303634 0.215680 0.188813
H55   H     H_    0.494480 0.460444 0.173266 0.202859
H56   H     H_    0.485186 0.199069 0.166922 0.194886
O29   O     O_3   0.675457 0.811527 0.559080 -0.661645
H57   H     H_    0.703429 0.750899 0.530583 0.293546
O30   O     O_3   0.328106 0.392010 0.443883 -0.662568
H58   H     H_    0.311287 0.483494 0.475141 0.297117

loop_
_geom_bond_atom_site_label_1
_geom_bond_atom_site_label_2
_ccdc_geom_bond_type
O17   V3    S    
C63   H42   S    
O15   C59   A    
C66   H54   S    
C9    C31   A    
C13   C15   A    
C35   C37   S    
O22   H26   S    
O1    C3    A    
C43   H21   S    
O2    C4    A    
O11   C59   A    
C2    O7    A    
O29   H57   S    
C35   H9    S    
C34   C42   S    
C63   H40   S    
C36   H10   S    
O5    C3    A    
O19   V3    S    
O20   V4    S    
C5    C21   A    
C21   C23   A    
H7    C43   S    
O25   H37   S    
C12   H6    S    
O11   V4    S    
C48   H24   S    
C54   C56   T    
C38   O24   S    
N6    C66   S    
O20   V3    S    
C61   H28   S    
C42   C50   S    
C15   C19   A    
O16   C60   A    
C41   C49   S    
C33   C41   S    
C65   H52   S    
C45   C47   S    
C62   H34   S    
C47   H17   S    
C8    C30   A    
O28   H48   S    
C35   N1    S    
C14   C16   A    
C61   H29   S    
C20   C28   A    
C8    C28   A    
C44   H22   S    
C65   H50   S    
O18   V4    S    
C25   O29   S    
C35   C41   S    
C57   O18   A    
C34   C44   S    
C10   N6    S    
C38   H12   S    
O5    V1    S    
O14   V4    S    
O12   C60   A    
O6    V2    S    
C8    C57   S    
C7    C29   A    
C36   N2    S    
C50   H14   S    
C28   O28   S    
C49   H13   S    
H2    C30   S    
H1    C29   S    
O27   H47   S    
C53   C55   T    
C42   C54   S    
O19   V4    S    
C36   C38   S    
O12   V3    S    
O16   V4    S    
C41   C53   S    
C16   C20   A    
C56   C59   S    
C37   O23   S    
C34   H20   S    
C26   O30   S    
C48   C50   S    
C64   H46   S    
C33   H19   S    
C47   C49   S    
C34   O22   S    
C1    C40   S    
O14   C58   A    
C43   C45   S    
C64   H45   S    
C2    C39   S    
O4    V2    S    
C24   C26   A    
C5    C29   A    
C6    C30   A    
O6    C4    A    
C61   H30   S    
C40   C52   T    
C47   H23   S    
O1    V2    S    
C33   C43   S    
O2    V1    S    
C62   H32   S    
C37   C45   S    
N2    C62   S    
O13   V3    S    
C7    C27   A    
H8    C44   S    
C66   H56   S    
C38   C46   S    
O9    V1    S    
C5    N3    S    
O23   H35   S    
O10   V2    S    
C55   C60   S    
O4    C2    A    
C46   C52   S    
O24   H36   S    
C18   C26   A    
O3    V1    S    
N4    H43   S    
N1    H27   S    
C13   H3    S    
C63   H41   S    
C14   H4    S    
C50   H16   S    
C18   C32   A    
C10   C12   A    
C4    C31   S    
O3    C1    A    
C48   H18   S    
N2    H31   S    
O13   C57   A    
C36   C42   S    
C11   C13   A    
C58   O17   A    
O15   V3    S    
C12   C14   A    
C19   C27   A    
C24   O26   S    
N5    C65   S    
O7    V1    S    
C10   C32   A    
C1    O8    A    
C15   C17   A    
O8    V2    S    
N5    H49   S    
C16   C18   A    
C7    C58   S    
N4    C64   S    
N3    H39   S    
C39   C51   T    
C37   H11   S    
C22   C24   A    
C19   C21   A    
C17   C25   A    
C45   C51   S    
C20   C22   A    
C65   H51   S    
C9    N5    S    
C6    N4    S    
C11   H5    S    
C62   H33   S    
O30   H58   S    
C23   C25   A    
C9    C11   A    
C27   O27   S    
C66   H55   S    
C17   C31   A    
O9    V2    S    
O21   H25   S    
N6    H53   S    
N3    C63   S    
C44   C46   S    
O10   V1    S    
C3    C32   S    
C46   C48   S    
C33   O21   S    
C64   H44   S    
C6    C22   A    
C49   H15   S    
C23   O25   S    
O26   H38   S    
N1    C61   S    
