data_mof_unit_46313.cif
_audit_creation_date              2012-12-11T14:35:57-0500
_audit_creation_method            fapswitch 2.2
_symmetry_space_group_name_H-M    P1
_symmetry_Int_Tables_number       1
_space_group_crystal_system       triclinic
_cell_length_a                    13.480265
_cell_length_b                    13.479676
_cell_length_c                    27.533968
_cell_angle_alpha                 90.617723
_cell_angle_beta                  90.101049
_cell_angle_gamma                 60.030515
_cell_volume                      4333.92847829

loop_
_atom_site_label
_atom_site_type_symbol
_atom_type_description
_atom_site_fract_x
_atom_site_fract_y
_atom_site_fract_z
_atom_type_partial_charge
Br1   Br    Br    0.237319 0.322134 0.109365 -0.497561
Br2   Br    Br    0.405450 0.499713 0.330857 -0.581273
Br3   Br    Br    0.418105 0.747535 0.803241 -0.555430
Br4   Br    Br    0.912373 0.846689 0.186893 -0.583841
C1    C     C_R   0.620158 0.101256 0.570294 0.547495
C2    C     C_1   0.648958 0.705667 0.658582 -0.048996
C3    C     C_3   0.064816 0.233394 0.737479 -0.110759
C4    C     C_R   0.599591 0.779656 0.568831 0.547433
C5    C     C_3   0.084107 0.132935 0.770523 -0.098283
C6    C     C_1   0.096549 0.201548 0.901739 0.000501
C7    C     C_1   0.230587 0.137571 0.617827 -0.011640
C8    C     C_3   0.127599 0.269136 0.774795 -0.104330
C9    C     C_3   0.147367 0.168531 0.807095 0.053291
C10   C     C_3   0.243147 0.189963 0.749030 -0.109489
C11   C     C_3   0.179972 0.154373 0.712404 0.042925
C12   C     C_1   0.630842 0.732665 0.616540 -0.008512
C13   C     C_3   0.262572 0.089521 0.782043 -0.084930
C14   C     C_3   0.199843 0.053621 0.744619 -0.079285
C15   C     C_1   0.124355 0.182200 0.859544 -0.038624
C16   C     C_R   0.278056 0.121681 0.569822 0.546865
C17   C     C_1   0.202891 0.146474 0.659995 -0.053599
C18   C     C_3   0.597370 0.281967 0.741214 -0.093814
C19   C     C_3   0.550566 0.232293 0.779669 -0.094733
C20   C     C_1   0.691498 0.208369 0.902801 -0.001048
C21   C     C_1   0.635322 0.133232 0.618463 -0.012044
C22   C     C_3   0.709928 0.236632 0.770430 -0.100861
C23   C     C_3   0.742830 0.559093 0.767730 -0.133311
C24   C     C_3   0.662944 0.186701 0.808046 0.052898
C25   C     C_3   0.763079 0.121969 0.741674 -0.102289
C26   C     C_3   0.650804 0.167477 0.713236 0.047782
C27   C     C_3   0.716298 0.072316 0.780002 -0.097831
C28   C     C_R   0.622012 0.099054 0.430990 0.543554
C29   C     C_3   0.603796 0.117575 0.750851 -0.104452
C30   C     C_1   0.674650 0.197501 0.860549 -0.044896
C31   C     C_1   0.643684 0.152221 0.660740 -0.054859
C32   C     C_R   0.731191 0.704431 0.358123 -0.137489
C33   C     C_R   0.743896 0.689106 0.307793 0.008063
C34   C     C_3   0.678995 0.655391 0.805675 0.058743
C35   C     C_R   0.766561 0.658852 0.206753 0.024423
C36   C     C_R   0.861326 0.638048 0.235223 -0.090254
C37   C     C_R   0.849658 0.654716 0.285449 -0.127550
C38   C     C_R   0.779264 0.632942 0.157293 -0.105292
C39   C     C_R   0.686198 0.642421 0.130470 -0.003971
C40   C     C_R   0.599923 0.778968 0.429489 0.546283
C41   C     C_R   0.532722 0.750323 0.350998 -0.100821
C42   C     C_R   0.542259 0.741317 0.301054 0.015943
C43   C     C_R   0.648243 0.710102 0.279180 0.061871
C44   C     C_R   0.446482 0.765444 0.272742 -0.102778
C45   C     C_3   0.630586 0.605321 0.738136 -0.078434
C46   C     C_R   0.456480 0.755159 0.222524 -0.120471
C47   C     C_R   0.562781 0.718724 0.200450 0.009866
C48   C     C_R   0.658833 0.697728 0.228711 0.061784
C49   C     C_R   0.576715 0.693722 0.151120 -0.124885
C50   C     C_R   0.625197 0.736390 0.379649 0.002661
C51   C     C_R   0.200160 0.071035 0.357838 -0.141839
C52   C     C_R   0.283157 0.118647 0.429614 0.544047
C53   C     C_R   0.179288 0.078590 0.307793 0.012885
C54   C     C_R   0.130548 0.102602 0.208225 -0.003985
C55   C     C_R   0.102838 0.033839 0.236615 -0.122389
C56   C     C_3   0.662660 0.684312 0.710878 0.025142
C57   C     C_R   0.127782 0.021298 0.286096 -0.132234
C58   C     C_R   0.095715 0.124429 0.160224 -0.161113
C59   C     C_R   0.115950 0.199728 0.132560 0.008003
C60   C     C_R   0.277839 0.198646 0.349864 -0.118516
C61   C     C_R   0.261103 0.203944 0.300211 0.004746
C62   C     C_R   0.210010 0.145489 0.278917 0.066583
C63   C     C_R   0.294896 0.267113 0.271724 -0.137432
C64   C     C_3   0.774740 0.638441 0.739606 -0.116730
C65   C     C_R   0.274817 0.275991 0.222081 -0.099370
C66   C     C_R   0.217853 0.223781 0.200188 0.026558
C67   C     C_3   0.568082 0.700974 0.776563 0.196695
C68   C     C_R   0.187212 0.156332 0.228950 0.035341
C69   C     C_R   0.185565 0.241947 0.151054 0.142573
C70   C     C_R   0.247627 0.132724 0.378953 0.000094
C71   C     C_R   0.570942 0.238374 0.363363 -0.119471
C72   C     C_R   0.576909 0.258012 0.313698 0.025272
C73   C     C_R   0.587412 0.288952 0.213218 -0.020167
C74   C     C_R   0.514058 0.381522 0.243155 -0.099975
C75   C     C_R   0.508064 0.366943 0.293044 0.140659
C76   C     C_3   0.710998 0.734367 0.778336 -0.126802
C77   C     C_R   0.598789 0.305461 0.163994 -0.116413
C78   C     C_3   0.598714 0.780796 0.748720 -0.084631
C79   C     C_R   0.678068 0.213590 0.135187 -0.005150
C80   C     C_R   0.721727 0.040494 0.352756 -0.124362
C81   C     C_R   0.725374 0.056378 0.303432 -0.020751
C82   C     C_R   0.652485 0.164773 0.283485 0.026440
C83   C     C_R   0.799556 0.963874 0.273838 -0.097146
C84   C     C_R   0.802888 0.977389 0.224067 0.149472
C85   C     C_R   0.731098 0.085377 0.203473 0.029657
C86   C     C_R   0.656094 0.179501 0.233325 0.025419
C87   C     C_R   0.737453 0.103225 0.154225 -0.100942
C88   C     C_1   0.696984 0.608242 0.900176 0.012286
C89   C     C_1   0.687982 0.634362 0.858026 -0.010900
C90   C     C_R   0.641858 0.129308 0.382598 -0.010874
C91   C     C_R   0.049081 0.236312 0.949688 0.551870
C92   C     C_R   0.711540 0.562994 0.948170 0.544461
C93   C     C_R   0.722212 0.225597 0.950820 0.549592
C94   C     C_R   0.050403 0.243392 0.087682 0.574326
C95   C     C_R   0.707705 0.576198 0.085782 0.543199
C96   C     C_R   0.718240 0.234159 0.089256 0.547675
Cr1   Cr    Cr6+3 0.417550 0.169090 0.500530 1.039246
Cr2   Cr    Cr6+3 0.669180 0.913420 0.499920 1.030031
Cr3   Cr    Cr6+3 0.413260 0.917540 0.499520 1.038274
Cr4   Cr    Cr6+3 0.909170 0.177380 0.020380 1.049662
Cr5   Cr    Cr6+3 0.912710 0.429210 0.018220 1.075660
Cr6   Cr    Cr6+3 0.657170 0.432570 0.019030 1.057755
H1    H     H_    0.743715 0.787495 0.795266 0.111081
H2    H     H_    0.753793 0.285831 0.779030 0.102802
H3    H     H_    0.863829 0.594887 0.141014 0.160663
H4    H     H_    0.860128 0.612150 0.723742 0.119110
H5    H     H_    0.802063 0.694752 0.380241 0.121650
H6    H     H_    0.944750 0.607202 0.218734 0.164658
H7    H     H_    0.923675 0.638533 0.306868 0.126008
H8    H     H_    0.504569 0.703212 0.129955 0.137406
H9    H     H_    0.382283 0.771664 0.201142 0.127758
H10   H     H_    0.364237 0.791293 0.289464 0.139013
H11   H     H_    0.449740 0.776504 0.367112 0.153458
H12   H     H_    0.343778 0.030540 0.800734 0.140957
H13   H     H_    0.045168 0.088892 0.145611 0.153502
H14   H     H_    0.179614 0.017965 0.380199 0.120390
H15   H     H_    0.059480 0.991924 0.220765 0.154073
H16   H     H_    0.538597 0.872164 0.740466 0.111170
H17   H     H_    0.104409 0.969109 0.307553 0.126024
H18   H     H_    0.300496 0.327711 0.201802 0.178041
H19   H     H_    0.335125 0.311428 0.288052 0.149892
H20   H     H_    0.318919 0.243092 0.365567 0.150359
H21   H     H_    0.552573 0.390984 0.149145 0.140233
H22   H     H_    0.509563 0.305693 0.386988 0.174859
H23   H     H_    0.308691 0.213652 0.739685 0.108085
H24   H     H_    0.462059 0.465881 0.227843 0.152088
H25   H     H_    0.795852 0.033054 0.130967 0.190074
H26   H     H_    0.855521 0.880699 0.289461 0.141449
H27   H     H_    0.776403 0.955602 0.367198 0.137665
H28   H     H_    0.597433 0.552405 0.721357 0.121174
H29   H     H_    0.802542 0.467701 0.776093 0.102885
H30   H     H_    0.018555 0.109321 0.779941 0.112141
H31   H     H_    0.983618 0.292468 0.718802 0.104926
H32   H     H_    0.229428 0.964928 0.731573 0.150812
H33   H     H_    0.097958 0.357941 0.787723 0.114034
H34   H     H_    0.463270 0.277205 0.795779 0.116671
H35   H     H_    0.548932 0.368086 0.724756 0.117483
H36   H     H_    0.559964 0.068350 0.742246 0.100262
H37   H     H_    0.764787 0.986148 0.796417 0.109786
H38   H     H_    0.850429 0.077022 0.725610 0.110131
O1    O     O_R   0.301710 0.195650 0.554160 -0.503109
O2    O     O_R   0.635520 0.542770 0.964420 -0.490336
O3    O     O_R   0.665950 0.325030 0.970100 -0.487745
O4    O     O_R   0.522390 0.158990 0.550460 -0.492555
O5    O     O_R   0.816620 0.158530 0.074540 -0.516620
O6    O     O_R   0.004460 0.188870 0.069750 -0.512922
O7    O     O_R   0.025800 0.341780 0.072300 -0.456667
O8    O     O_R   0.807650 0.528950 0.067500 -0.499647
O9    O     O_R   0.633420 0.550490 0.071810 -0.517179
O10   O     O_R   0.664000 0.332180 0.069640 -0.494456
O11   O     O_3   0.826350 0.346390 0.019210 -0.265189
O12   O     O_R   0.658900 0.818120 0.449760 -0.502974
O13   O     O_R   0.694390 0.003530 0.554040 -0.504118
O14   O     O_R   0.657700 0.819660 0.549320 -0.494640
O15   O     O_R   0.501930 0.803280 0.552920 -0.500690
O16   O     O_R   0.318170 0.023580 0.549580 -0.493080
O17   O     O_R   0.303010 0.193990 0.446760 -0.515761
O18   O     O_R   0.523600 0.157450 0.450900 -0.502309
O19   O     O_R   0.695690 0.001860 0.446640 -0.518434
O20   O     O_R   0.503220 0.801620 0.445520 -0.515053
O21   O     O_R   0.319370 0.022040 0.450020 -0.501562
O22   O     O_3   0.499990 0.000010 0.499990 -0.253946
O23   O     O_R   0.818720 0.150820 0.967160 -0.502087
O24   O     O_R   0.006410 0.181720 0.970200 -0.492713
O25   O     O_R   0.027890 0.334070 0.964920 -0.494660
O26   O     O_R   0.809600 0.521790 0.967960 -0.500496

loop_
_geom_bond_atom_site_label_1
_geom_bond_atom_site_label_2
_ccdc_geom_bond_type
C55   H15   S    
C11   C14   S    
C28   C90   S    
C45   H28   S    
Cr6   O11   S    
Cr1   O4    S    
C54   C58   A    
C60   H20   S    
Cr2   O12   S    
C72   C75   A    
C53   C62   A    
C83   C84   A    
C45   C67   S    
C4    O14   A    
C91   O24   A    
Cr2   O14   S    
C36   H6    S    
C81   C82   A    
C76   H1    S    
Cr1   O1    S    
Cr3   O20   S    
C58   C59   A    
C45   C56   S    
Cr5   O25   S    
C26   C31   S    
C32   C33   A    
C38   H3    S    
C39   C95   S    
C46   H9    S    
C59   C94   S    
C63   H19   S    
Cr3   O16   S    
C87   H25   S    
C23   C34   S    
C41   H11   S    
C28   O19   A    
C95   O9    A    
C88   C92   S    
C18   H35   S    
C71   H22   S    
Cr4   O6    S    
C14   H32   S    
C5    C9    S    
Br2   C75   S    
C34   C67   S    
C51   C70   A    
C56   C78   S    
C39   C49   A    
C62   C68   A    
Cr2   O19   S    
C19   C29   S    
C28   O18   A    
C52   O21   A    
C27   C29   S    
C22   C25   S    
C23   C64   S    
C33   C43   A    
Cr6   O10   S    
C44   H10   S    
C67   C78   S    
C3    C11   S    
C35   C48   A    
C24   C30   S    
C4    C12   S    
C1    O4    A    
C92   O26   A    
C77   H21   S    
C33   C37   A    
C93   O3    A    
C10   C13   S    
Cr1   O22   S    
C66   C69   A    
Cr2   O13   S    
C77   C79   A    
C13   C14   S    
C35   C38   A    
C51   H14   S    
C81   C83   A    
C3    C8    S    
Cr5   O7    S    
C42   C44   A    
C73   C86   A    
C55   C57   A    
C52   C70   S    
Cr5   O26   S    
C9    C15   S    
C20   C93   S    
C40   O12   A    
C2    C56   S    
C19   H34   S    
C80   C81   A    
C76   C78   S    
C82   C86   A    
C22   H2    S    
C35   C36   A    
C3    H31   S    
C74   C75   A    
C80   C90   A    
C59   C69   A    
C65   H18   S    
C61   C63   A    
C54   C55   A    
C73   C74   A    
C25   H38   S    
C7    C16   S    
C7    C17   T    
C20   C30   T    
Cr6   O3    S    
C47   C48   A    
C47   C49   A    
Cr4   O5    S    
Br3   C67   S    
C71   C72   A    
C25   C26   S    
C40   C50   S    
Cr4   O24   S    
C54   C68   A    
C73   C77   A    
C6    C15   T    
Cr6   O9    S    
C32   H5    S    
C46   C47   A    
C8    H33   S    
C16   O1    A    
C64   H4    S    
C19   C24   S    
C8    C9    S    
C91   O25   A    
C58   H13   S    
C13   H12   S    
C21   C31   T    
C1    C21   S    
C36   C37   A    
Cr5   O11   S    
C8    C10   S    
C41   C50   A    
Cr3   O21   S    
C1    O13   A    
C79   C96   S    
C51   C53   A    
C18   C22   S    
C29   H36   S    
C85   C87   A    
C38   C39   A    
C64   C76   S    
C72   C82   A    
C92   O2    A    
C49   H8    S    
C94   O6    A    
C96   O10   A    
C3    C5    S    
Cr5   O8    S    
C42   C43   A    
Cr1   O18   S    
C18   C26   S    
C26   C29   S    
C10   C11   S    
C24   C27   S    
C37   H7    S    
C53   C57   A    
C43   C48   A    
Br4   C84   S    
C96   O5    A    
C79   C87   A    
C95   O8    A    
C22   C24   S    
Cr6   O2    S    
C9    C13   S    
C57   H17   S    
Br1   C69   S    
C60   C61   A    
Cr1   O17   S    
C74   H24   S    
C23   H29   S    
C94   O7    A    
C25   C27   S    
C93   O23   A    
Cr4   O23   S    
Cr3   O15   S    
C34   C76   S    
C6    C91   S    
C52   O17   A    
C34   C89   S    
C44   C46   A    
C88   C89   T    
C83   H26   S    
Cr4   O11   S    
C27   H37   S    
C65   C66   A    
C32   C50   A    
C2    C12   T    
C5    H30   S    
C41   C42   A    
C5    C14   S    
C11   C17   S    
C84   C85   A    
C56   C64   S    
Cr3   O22   S    
Cr2   O22   S    
C61   C62   A    
C16   O16   A    
C60   C70   A    
C18   C19   S    
C66   C68   A    
C40   O20   A    
C63   C65   A    
C85   C86   A    
C4    O15   A    
C80   H27   S    
C78   H16   S    
C23   C45   S    
C71   C90   A    
C10   H23   S    
