data_mof_unit_62441.cif
_audit_creation_date              2012-12-10T19:29:34-0500
_audit_creation_method            fapswitch 2.2
_symmetry_space_group_name_H-M    P1
_symmetry_Int_Tables_number       1
_space_group_crystal_system       triclinic
_cell_length_a                    22.252485
_cell_length_b                    22.249001
_cell_length_c                    14.985417
_cell_angle_alpha                 89.998919
_cell_angle_beta                  89.998092
_cell_angle_gamma                 89.999983
_cell_volume                      7419.21343126

loop_
_atom_site_label
_atom_site_type_symbol
_atom_type_description
_atom_site_fract_x
_atom_site_fract_y
_atom_site_fract_z
_atom_type_partial_charge
C1    C     C_R   0.418770 0.918761 0.499989 0.902507
C2    C     C_1   0.663335 0.836654 0.500017 -0.070072
C3    C     C_1   0.663334 0.163346 0.500012 -0.070197
C4    C     C_1   0.336665 0.836654 0.499987 -0.070197
C5    C     C_1   0.836665 0.663346 0.499983 -0.070069
C6    C     C_1   0.163335 0.336654 0.500017 -0.070068
C7    C     C_1   0.163335 0.663345 0.500013 -0.070200
C8    C     C_1   0.836666 0.336654 0.499988 -0.070201
C9    C     C_1   0.499721 0.999995 0.190055 0.217853
C10   C     C_1   0.500279 0.000005 0.809945 0.217853
C11   C     C_1   0.999722 0.499997 0.190055 0.217854
C12   C     C_R   0.581230 0.081239 0.500011 0.902505
C13   C     C_1   0.000278 0.500002 0.809945 0.217854
C14   C     C_3   0.472795 0.951238 0.970020 0.405736
C15   C     C_3   0.527205 0.048762 0.029980 0.405737
C16   C     C_3   0.528720 0.952114 0.029983 0.405907
C17   C     C_3   0.471280 0.047886 0.970017 0.405904
C18   C     C_3   0.972862 0.451198 0.970026 0.405754
C19   C     C_3   0.027138 0.548802 0.029974 0.405753
C20   C     C_3   0.028787 0.452155 0.029987 0.405859
C21   C     C_3   0.971212 0.547844 0.970013 0.405862
C22   C     C_3   0.701024 0.729099 0.542341 -0.162468
C23   C     C_R   0.581230 0.918761 0.500012 0.902504
C24   C     C_3   0.298941 0.270866 0.457534 -0.162455
C25   C     C_3   0.299028 0.729050 0.457849 -0.162554
C26   C     C_3   0.701153 0.270769 0.542809 -0.162494
C27   C     C_3   0.201059 0.229134 0.542466 -0.162454
C28   C     C_3   0.798976 0.770900 0.457659 -0.162467
C29   C     C_3   0.798847 0.229231 0.457191 -0.162496
C30   C     C_3   0.200972 0.770950 0.542151 -0.162556
C31   C     C_3   0.229093 0.200985 0.457758 -0.163948
C32   C     C_3   0.770873 0.798981 0.542367 -0.163939
C33   C     C_3   0.771000 0.200888 0.541895 -0.163922
C34   C     C_R   0.418770 0.081239 0.499988 0.902503
C35   C     C_3   0.229180 0.798930 0.457444 -0.163869
C36   C     C_3   0.729127 0.701019 0.457633 -0.163935
C37   C     C_3   0.270907 0.299015 0.542242 -0.163943
C38   C     C_3   0.270820 0.701069 0.542555 -0.163872
C39   C     C_3   0.729000 0.299112 0.458105 -0.163924
C40   C     C_1   0.374308 0.125704 0.499983 -0.169708
C41   C     C_1   0.625693 0.874296 0.500017 -0.169709
C42   C     C_1   0.625693 0.125705 0.500013 -0.169831
C43   C     C_1   0.374307 0.874296 0.499986 -0.169830
C44   C     C_1   0.874307 0.625704 0.499983 -0.169705
C45   C     C_R   0.918770 0.418761 0.499989 0.902505
C46   C     C_1   0.125693 0.374296 0.500017 -0.169704
C47   C     C_1   0.125693 0.625704 0.500013 -0.169835
C48   C     C_1   0.874307 0.374295 0.499987 -0.169836
C49   C     C_3   0.264113 0.236008 0.584697 -0.154045
C50   C     C_3   0.735955 0.764060 0.415303 -0.154040
C51   C     C_3   0.735698 0.236202 0.415304 -0.154112
C52   C     C_3   0.263939 0.764161 0.584697 -0.154103
C53   C     C_3   0.764044 0.735939 0.584697 -0.154042
C54   C     C_3   0.235887 0.263991 0.415303 -0.154048
C55   C     C_3   0.236061 0.735839 0.415303 -0.154101
C56   C     C_R   0.081230 0.581239 0.500011 0.902507
C57   C     C_3   0.764302 0.263798 0.584696 -0.154109
C58   C     C_3   0.291250 0.208757 0.499989 0.199231
C59   C     C_3   0.708750 0.791243 0.500011 0.199231
C60   C     C_3   0.708750 0.208757 0.500007 0.199313
C61   C     C_3   0.291249 0.791243 0.499991 0.199311
C62   C     C_3   0.791249 0.708757 0.499989 0.199231
C63   C     C_3   0.208750 0.291243 0.500011 0.199231
C64   C     C_3   0.208751 0.708757 0.500008 0.199312
C65   C     C_3   0.791250 0.291243 0.499993 0.199314
C66   C     C_3   0.441916 0.999089 0.029896 -0.434224
C67   C     C_R   0.081230 0.418761 0.500012 0.902503
C68   C     C_3   0.558084 0.000911 0.970104 -0.434221
C69   C     C_3   0.941918 0.499009 0.029898 -0.434190
C70   C     C_3   0.058082 0.500990 0.970102 -0.434193
C71   C     C_3   0.499193 0.999989 0.090237 -0.070206
C72   C     C_3   0.500807 0.000011 0.909763 -0.070207
C73   C     C_3   0.999194 0.499990 0.090237 -0.070203
C74   C     C_3   0.000806 0.500010 0.909763 -0.070202
C75   C     C_R   0.918770 0.581239 0.499988 0.902504
C76   C     C_1   0.336665 0.163346 0.499983 -0.070071
H1    H     H_    0.605615 0.001656 0.947665 0.186291
H2    H     H_    0.286890 0.340169 0.576762 0.139800
H3    H     H_    0.286733 0.659985 0.577332 0.139779
H4    H     H_    0.712940 0.340345 0.423867 0.139749
H5    H     H_    0.659904 0.713121 0.576942 0.141140
H6    H     H_    0.340034 0.286817 0.422831 0.141148
H7    H     H_    0.340192 0.713030 0.423402 0.141036
H8    H     H_    0.660138 0.286640 0.577795 0.141067
H9    H     H_    0.159966 0.213183 0.577169 0.141150
H10   H     H_    0.840096 0.786879 0.423058 0.141142
H11   H     H_    0.839862 0.213359 0.422205 0.141064
H12   H     H_    0.394385 0.998344 0.052335 0.186289
H13   H     H_    0.159808 0.786970 0.576597 0.141032
H14   H     H_    0.723377 0.776652 0.346093 0.147184
H15   H     H_    0.276748 0.223473 0.653906 0.147184
H16   H     H_    0.276432 0.776835 0.653909 0.147065
H17   H     H_    0.722910 0.223826 0.346091 0.147067
H18   H     H_    0.223252 0.276527 0.346093 0.147185
H19   H     H_    0.776623 0.723348 0.653907 0.147185
H20   H     H_    0.777090 0.276174 0.653908 0.147066
H21   H     H_    0.223568 0.723165 0.346091 0.147064
H22   H     H_    0.572161 0.879278 0.007817 0.345350
H23   H     H_    0.105610 0.501802 0.947659 0.186289
H24   H     H_    0.427840 0.120722 0.992183 0.345348
H25   H     H_    0.431575 0.877120 0.992188 0.345308
H26   H     H_    0.568425 0.122880 0.007812 0.345305
H27   H     H_    0.072335 0.379382 0.007830 0.345342
H28   H     H_    0.927664 0.620618 0.992169 0.345344
H29   H     H_    0.931770 0.377012 0.992205 0.345299
H30   H     H_    0.068230 0.622988 0.007795 0.345301
H31   H     H_    0.894389 0.498198 0.052341 0.186291
H32   H     H_    0.213110 0.159831 0.423238 0.139799
H33   H     H_    0.786828 0.840106 0.576989 0.139802
H34   H     H_    0.787060 0.159655 0.576133 0.139748
H35   H     H_    0.213267 0.840015 0.422668 0.139778
H36   H     H_    0.713172 0.659893 0.423011 0.139803
N1    N     N_1   0.500020 0.000000 0.268010 -0.096822
N2    N     N_1   0.499980 0.000000 0.731990 -0.096822
N3    N     N_1   0.000020 0.500000 0.268010 -0.096822
N4    N     N_1   0.999980 0.500000 0.731990 -0.096822
O1    O     O_R   0.438390 0.938390 0.574460 -0.602867
O2    O     O_R   0.561600 0.061610 0.574480 -0.614627
O3    O     O_R   0.561600 0.938390 0.574480 -0.614399
O4    O     O_R   0.438400 0.061610 0.425520 -0.614402
O5    O     O_R   0.938400 0.438390 0.425520 -0.614636
O6    O     O_R   0.061600 0.561610 0.574480 -0.614637
O7    O     O_R   0.061600 0.438390 0.574480 -0.614393
O8    O     O_R   0.938400 0.561610 0.425520 -0.614391
O9    O     O_3   0.557844 0.900728 0.061746 -0.745268
O10   O     O_3   0.442157 0.099272 0.938254 -0.745273
O11   O     O_3   0.445299 0.898960 0.938265 -0.745296
O12   O     O_R   0.561610 0.061610 0.425540 -0.602866
O13   O     O_3   0.554701 0.101040 0.061735 -0.745300
O14   O     O_3   0.057982 0.400811 0.061756 -0.745286
O15   O     O_3   0.942018 0.599188 0.938244 -0.745281
O16   O     O_3   0.945439 0.398881 0.938274 -0.745284
O17   O     O_3   0.054561 0.601118 0.061726 -0.745279
O18   O     O_R   0.561610 0.938390 0.425540 -0.602953
O19   O     O_R   0.438390 0.061610 0.574460 -0.602955
O20   O     O_R   0.938390 0.438390 0.574460 -0.602863
O21   O     O_R   0.061610 0.561610 0.425540 -0.602864
O22   O     O_R   0.061610 0.438390 0.425540 -0.602958
O23   O     O_R   0.938390 0.561610 0.574460 -0.602956
O24   O     O_R   0.438400 0.938390 0.425520 -0.614627
Zn1   Zn    Zn3+2 0.500000 0.000000 0.599450 1.001448
Zn2   Zn    Zn3+2 0.500000 0.000000 0.400550 1.001448
Zn3   Zn    Zn3+2 0.000000 0.500000 0.599450 1.001448
Zn4   Zn    Zn3+2 0.000000 0.500000 0.400550 1.001447

loop_
_geom_bond_atom_site_label_1
_geom_bond_atom_site_label_2
_ccdc_geom_bond_type
C39   C51   S    
C3    C42   T    
C30   C64   S    
C53   H19   S    
C31   H32   S    
C18   O16   S    
C20   C73   S    
H26   O13   S    
O2    Zn1   S    
C69   H31   S    
C58   C76   S    
C17   C66   S    
C30   C35   S    
C34   C40   S    
C50   C59   S    
C31   C58   S    
C19   C21   S    
O24   Zn2   S    
O20   Zn3   S    
C52   C61   S    
C23   O3    A    
C17   O10   S    
C38   C52   S    
C38   H3    S    
C2    C41   T    
C24   C54   S    
C29   C33   S    
N1    Zn2   S    
C27   H9    S    
C67   O22   A    
C24   H6    S    
C21   O15   S    
C12   C42   S    
C28   C50   S    
C1    C43   S    
H22   O9    S    
C36   C50   S    
C57   H20   S    
C70   C74   S    
C33   C57   S    
C69   C73   S    
C16   C68   S    
H29   O16   S    
C11   N3    T    
C16   O9    S    
C18   C20   S    
C10   N2    T    
C3    C60   S    
C18   C69   S    
C8    C65   S    
C18   C74   S    
C39   C65   S    
O5    Zn4   S    
C20   C70   S    
C16   C71   S    
O23   Zn3   S    
O6    Zn3   S    
C49   H15   S    
C30   H13   S    
C36   C62   S    
C37   C63   S    
C50   H14   S    
C22   H5    S    
C22   C53   S    
C38   C64   S    
H30   O17   S    
C34   O4    A    
C54   H18   S    
C32   H33   S    
C27   C31   S    
C75   O8    A    
N2    Zn1   S    
C25   C55   S    
C28   C32   S    
O4    Zn2   S    
C11   C73   S    
C20   O14   S    
C22   C59   S    
C2    C59   S    
C25   C61   S    
C45   O5    A    
C35   C55   S    
C4    C61   S    
H28   O15   S    
C49   C58   S    
C40   C76   T    
C21   C69   S    
C7    C47   T    
C6    C63   S    
C44   C75   S    
O1    Zn1   S    
C8    C48   T    
C36   H36   S    
C25   C38   S    
O18   Zn2   S    
N4    Zn3   S    
C37   C49   S    
C53   C62   S    
C66   C71   S    
C15   O13   S    
C19   C73   S    
C68   C72   S    
C55   C64   S    
C55   H21   S    
C24   C37   S    
C14   C66   S    
C35   C61   S    
C1    O1    A    
C1    O24   A    
C27   C63   S    
C51   H17   S    
C29   C65   S    
C5    C44   T    
C33   C60   S    
C28   H10   S    
O3    Zn1   S    
H24   O10   S    
C52   H16   S    
C32   C53   S    
C35   H35   S    
C70   H23   S    
C12   O2    A    
C45   C48   S    
C68   H1    S    
C15   C17   S    
C30   C52   S    
N3    Zn4   S    
C45   O20   A    
C26   H8    S    
C6    C46   T    
C23   O18   A    
C14   C72   S    
O21   Zn4   S    
C22   C36   S    
C9    C71   S    
C57   C65   S    
C67   O7    A    
C28   C62   S    
C12   O12   A    
C4    C43   T    
C19   O17   S    
C15   C71   S    
C37   H2    S    
C23   C41   S    
C9    N1    T    
C39   H4    S    
C51   C60   S    
C46   C67   S    
O22   Zn4   S    
C66   H12   S    
C56   O21   A    
O12   Zn2   S    
C34   O19   A    
C15   C68   S    
C21   C74   S    
C26   C57   S    
H25   O11   S    
C5    C62   S    
C14   C16   S    
C31   C54   S    
C26   C39   S    
H27   O14   S    
C7    C64   S    
C29   H11   S    
C13   N4    T    
C14   O11   S    
C29   C51   S    
O19   Zn1   S    
C13   C74   S    
C17   C72   S    
C24   C58   S    
C54   C63   S    
O7    Zn3   S    
C25   H7    S    
O8    Zn4   S    
C19   C70   S    
C75   O23   A    
C33   H34   S    
C32   C59   S    
C26   C60   S    
C27   C49   S    
C56   O6    A    
C47   C56   S    
C10   C72   S    
