data_mof_unit_10302.cif
_audit_creation_date              2013-03-05T15:45:43-0500
_audit_creation_method            fapswitch 2.2
_symmetry_space_group_name_H-M    P1
_symmetry_Int_Tables_number       1
_space_group_crystal_system       triclinic
_cell_length_a                    6.937303
_cell_length_b                    16.707992
_cell_length_c                    16.871489
_cell_angle_alpha                 101.360087
_cell_angle_beta                  91.212576
_cell_angle_gamma                 89.535613
_cell_volume                      1916.79069049

loop_
_atom_site_label
_atom_site_type_symbol
_atom_site_description
_atom_site_fract_x
_atom_site_fract_y
_atom_site_fract_z
_atom_type_partial_charge
O1    O     O_R   0.506340 0.439070 0.579550 -0.589231
O2    O     O_R   0.170010 0.404890 0.412100 -0.581972
O3    O     O_R   0.005010 0.560930 0.420450 -0.598624
C1    C     C_R   0.339192 0.381603 0.383163 0.936835
O4    O     O_R   0.176280 0.429360 0.578400 -0.561600
O5    O     O_R   0.011320 0.585570 0.587940 -0.599950
C2    C     C_R   0.348165 0.413031 0.604495 1.006571
O6    O     O_R   0.500030 0.414430 0.412060 -0.598940
O7    O     O_3   0.340950 0.551220 0.502940 -0.282008
V1    V     V_3+5 0.064020 0.490500 0.499460 1.207438
O8    O     O_R   0.681910 0.595110 0.587900 -0.601284
C3    C     C_R   0.851721 0.618436 0.616671 0.908409
O9    O     O_R   0.675640 0.570640 0.421600 -0.587681
C4    C     C_R   0.842157 0.586635 0.394927 0.924142
V2    V     V_3+5 0.564670 0.509500 0.500540 1.185166
O10   O     O_3   0.837610 0.448780 0.497060 -0.245089
C5    C     C_R   0.921865 0.865465 0.171396 -0.182537
C6    C     C_R   0.843336 0.638697 0.332755 -0.145478
C7    C     C_R   0.715012 0.670100 0.206641 -0.143385
C8    C     C_R   0.721219 0.620099 0.264290 -0.150366
C9    C     C_R   0.956332 0.709682 0.343581 -0.157625
C10   C     C_R   0.943990 0.763168 0.287791 0.007498
C11   C     C_R   0.825109 0.741819 0.217728 0.194393
C12   C     C_R   0.817790 0.792099 0.159705 -0.319693
C13   C     C_R   0.027496 0.891000 0.245019 0.072785
C14   C     C_R   0.044548 0.838127 0.301422 0.291702
H1    H     H_    0.732232 0.773720 0.104671 0.134668
H2    H     H_    0.621645 0.653199 0.153776 0.107096
H3    H     H_    0.631722 0.566079 0.254978 0.107930
H4    H     H_    0.048393 0.724037 0.397053 0.163201
C15   C     C_3   0.804662 0.817523 0.730700 -0.117414
C16   C     C_3   0.974972 0.768447 0.686683 -0.118546
H5    H     H_    0.050305 0.783176 0.633972 0.137090
H6    H     H_    0.740306 0.873725 0.715339 0.122164
C17   C     C_3   0.866013 0.688707 0.687388 -0.089931
C18   C     C_3   0.695530 0.736951 0.730572 -0.091889
C19   C     C_3   0.791145 0.731621 0.813217 -0.142342
C20   C     C_3   0.961461 0.682553 0.769210 -0.142052
C21   C     C_3   0.070591 0.763123 0.769333 -0.101879
C22   C     C_3   0.900105 0.811359 0.812527 -0.091677
H7    H     H_    0.540982 0.725789 0.714067 0.111992
H8    H     H_    0.715769 0.716898 0.865915 0.101709
H9    H     H_    0.025827 0.626351 0.784565 0.100784
H10   H     H_    0.225140 0.774287 0.785833 0.111744
C23   C     C_3   0.505268 0.241740 0.310522 -0.084892
C24   C     C_3   0.349627 0.179401 0.272159 -0.128660
H11   H     H_    0.328315 0.120743 0.291724 0.123207
H12   H     H_    0.604460 0.234435 0.361150 0.138596
C25   C     C_3   0.411679 0.189436 0.187514 -0.095083
C26   C     C_3   0.567732 0.251033 0.225168 -0.115548
C27   C     C_3   0.419676 0.321523 0.227624 -0.158989
C28   C     C_3   0.263614 0.259181 0.189160 -0.126004
C29   C     C_3   0.201105 0.249670 0.274510 -0.079105
C30   C     C_3   0.356728 0.311279 0.312175 -0.092992
H13   H     H_    0.718873 0.251433 0.204908 0.109992
H14   H     H_    0.447379 0.380669 0.209448 0.100380
H15   H     H_    0.164362 0.266384 0.138528 0.107092
H16   H     H_    0.049998 0.249255 0.294790 0.116032
C31   C     C_R   0.393149 0.134920 0.830722 -0.132686
C32   C     C_R   0.372748 0.360111 0.665438 -0.303897
C33   C     C_R   0.571302 0.325252 0.775165 -0.157460
C34   C     C_R   0.528324 0.376403 0.721112 -0.132403
C35   C     C_R   0.256541 0.290863 0.665405 0.272685
C36   C     C_R   0.301293 0.238255 0.720157 0.023495
C37   C     C_R   0.460590 0.255730 0.774999 0.184245
C38   C     C_R   0.506516 0.203723 0.829333 -0.247110
C39   C     C_R   0.238097 0.117085 0.775133 -0.159519
C40   C     C_R   0.193667 0.167362 0.720290 -0.111905
H17   H     H_    0.625442 0.218402 0.872362 0.124642
H18   H     H_    0.148856 0.064045 0.774645 0.132992
H19   H     H_    0.693100 0.339752 0.816678 0.120142
H20   H     H_    0.073523 0.150369 0.678612 0.178304
H21   H     H_    0.619259 0.429083 0.722347 0.137593
O11   O     O_R   0.266070 0.085680 0.087850 -0.591034
O12   O     O_R   0.590090 0.070660 0.921580 -0.592148
O13   O     O_R   0.754780 0.914400 0.912080 -0.592210
C41   C     C_R   0.418322 0.085549 0.894313 0.935387
O14   O     O_R   0.596110 0.095130 0.087880 -0.596932
O15   O     O_R   0.760850 0.939050 0.079570 -0.589109
C42   C     C_R   0.427255 0.118644 0.116713 0.903176
O16   O     O_R   0.260010 0.061030 0.920360 -0.594829
O17   O     O_3   0.425070 0.948840 0.997010 -0.271966
V3    V     V_3+5 0.702100 0.009490 0.000550 1.149035
O18   O     O_R   0.090200 0.929250 0.078500 -0.601804
C43   C     C_R   0.923533 0.914112 0.105889 0.973264
O19   O     O_R   0.084180 0.904770 0.912200 -0.598607
C44   C     C_R   0.914382 0.881555 0.883324 0.908323
V4    V     V_3+5 0.201420 0.990350 0.999580 1.149625
O20   O     O_3   0.928580 0.051150 0.002990 -0.272281
C45   C     C_3   0.102539 0.977951 0.267589 -0.353802
C46   C     C_3   0.935682 0.038155 0.289720 -0.839411
H22   H     H_    0.840135 0.039498 0.236402 0.241128
H23   H     H_    0.849569 0.020724 0.338412 0.286089
H24   H     H_    0.992110 0.100579 0.312025 0.246317
H25   H     H_    0.204331 0.986168 0.320024 0.238849
H26   H     H_    0.185149 0.994048 0.217507 0.189402
N1    N     N_R   0.100478 0.271941 0.607749 0.232474
O21   O     O_R   0.923435 0.274496 0.632072 -0.410714
O22   O     O_R   0.134782 0.254369 0.530729 -0.406692
N2    N     N_R   0.158909 0.861944 0.373891 0.222081
O23   O     O_R   0.346088 0.861455 0.370436 -0.405449
O24   O     O_R   0.076146 0.883155 0.443410 -0.393430

loop_
_geom_bond_atom_site_label_1
_geom_bond_atom_site_label_2
_geom_bond_distance
_ccdc_geom_bond_type
C29   H16   1.110056 S    
C6    C9    1.406481 A    
C4    C6    1.488922 S    
O2    C1    1.307379 A    
C7    C8    1.401251 A    
C12   H1    1.084436 S    
C1    O6    1.290358 A    
C31   C41   1.483375 S    
O14   C42   1.305580 A    
N1    O21   1.300884 A    
C45   H25   1.107885 S    
C29   C30   1.536309 S    
C24   C25   1.540897 S    
C13   C45   1.520690 S    
C32   C35   1.415404 A    
C5    C43   1.495598 S    
C36   C40   1.405666 A    
C22   C44   1.502358 S    
C18   C19   1.549490 S    
C19   C22   1.539220 S    
C31   C38   1.402358 A    
O5    C3    1.292421 A    
C20   C21   1.549396 S    
O19   V4    2.004263 S    
C38   H17   1.084257 S    
V2    O10   2.137287 S    
C15   C22   1.539849 S    
C32   C34   1.407963 A    
C27   H14   1.110173 S    
C16   C21   1.549561 S    
C19   H8    1.110121 S    
C25   C26   1.538225 S    
C31   C39   1.406338 A    
O8    V2    2.004349 S    
O14   V3    1.989264 S    
C17   C18   1.539145 S    
C11   C12   1.409891 A    
C34   H21   1.083667 S    
O1    V2    1.993466 S    
O7    V1    2.174129 S    
C33   H19   1.083792 S    
O11   C42   1.293095 A    
O9    C4    1.297211 A    
C18   H7    1.109935 S    
O13   V3    1.991256 S    
N1    O22   1.301164 A    
C8    H3    1.083451 S    
C10   C11   1.414940 A    
V3    O20   1.720009 S    
C5    C12   1.405646 A    
C39   C40   1.395258 A    
C16   C17   1.539308 S    
C17   C20   1.539748 S    
O18   C43   1.299132 A    
C46   H22   1.109730 S    
O4    C2    1.307650 A    
O19   C44   1.297691 A    
C13   C14   1.422903 A    
C23   C24   1.546822 S    
C27   C28   1.549343 S    
C7    C11   1.405249 A    
C19   C20   1.549520 S    
C46   H23   1.111046 S    
C15   C16   1.549606 S    
C41   O16   1.290641 A    
C40   H20   1.081723 S    
C25   C28   1.543643 S    
N2    O24   1.300909 A    
C26   C27   1.551351 S    
C15   H6    1.110151 S    
C3    C17   1.502282 S    
C7    H2    1.083555 S    
O12   C41   1.307868 A    
O13   C44   1.292457 A    
O3    C4    1.300239 A    
C23   C30   1.543242 S    
C37   C38   1.412028 A    
O6    V2    2.000426 S    
O9    V2    2.000515 S    
O2    V1    1.989287 S    
C2    C32   1.488751 S    
O15   C43   1.299434 A    
C28   C29   1.550666 S    
C23   H12   1.110339 S    
C24   H11   1.105981 S    
C1    C30   1.509723 S    
O1    C2    1.292239 A    
O18   V4    2.000521 S    
O5    V1    1.991164 S    
O8    C3    1.297683 A    
C45   H26   1.107814 S    
C21   H10   1.109932 S    
C9    H4    1.082655 S    
C26   H13   1.110154 S    
C25   C42   1.511405 S    
C27   C30   1.542284 S    
C5    C13   1.421156 A    
C16   H5    1.110190 S    
C39   H18   1.083742 S    
O7    V2    1.694190 S    
O4    V1    1.975594 S    
C35   N1    1.434622 S    
O3    V1    1.978964 S    
V1    O10   1.720025 S    
C36   C37   1.420603 A    
C46   H24   1.108344 S    
O15   V3    1.978879 S    
O12   V3    1.975658 S    
C45   C46   1.530543 S    
C23   C26   1.549578 S    
O17   V4    1.692243 S    
C24   C29   1.550921 S    
N2    O23   1.300944 A    
C6    C8    1.403560 A    
C33   C34   1.393666 A    
O16   V4    1.999686 S    
C28   H15   1.110198 S    
C35   C36   1.423242 A    
C21   C22   1.539176 S    
C33   C37   1.397240 A    
C20   H9    1.110141 S    
V4    O20   2.137349 S    
O17   V3    2.174113 S    
C10   C14   1.414910 A    
C15   C18   1.549433 S    
O11   V4    2.001195 S    
C9    C10   1.420779 A    
C14   N2    1.433549 S    
