data_mof_unit_45110.cif
_audit_creation_date              2012-12-10T16:48:47-0500
_audit_creation_method            fapswitch 2.2
_symmetry_space_group_name_H-M    P1
_symmetry_Int_Tables_number       1
_space_group_crystal_system       triclinic
_cell_length_a                    7.778354
_cell_length_b                    8.638662
_cell_length_c                    10.43789
_cell_angle_alpha                 88.590162
_cell_angle_beta                  97.838811
_cell_angle_gamma                 93.35274
_cell_volume                      693.528435363

loop_
_atom_site_label
_atom_site_type_symbol
_atom_type_description
_atom_site_fract_x
_atom_site_fract_y
_atom_site_fract_z
_atom_type_partial_charge
C1    C     C_R   0.544249 0.794400 0.496714 0.880486
C2    C     C_2   0.431889 0.043302 0.504709 0.338604
C3    C     C_R   0.455655 0.205591 0.502994 0.904928
C4    C     C_R   0.568798 0.484415 0.738094 0.848262
C5    C     C_R   0.429338 0.505466 0.262009 0.905991
C6    C     C_2   0.597610 0.450090 0.876760 0.026214
C7    C     C_2   0.393253 0.497855 0.122521 -0.007089
C8    C     C_2   0.465533 0.375178 0.929581 0.536648
C9    C     C_2   0.453605 0.376268 0.067008 0.552626
C10   C     C_2   0.567852 0.956698 0.494505 0.330941
F1    F     F_    0.508910 0.250728 0.139353 -0.597978
F2    F     F_    0.325629 0.308652 0.853617 -0.581482
F3    F     F_    0.731028 0.016729 0.481828 -0.585348
F4    F     F_    0.268642 0.983277 0.517166 -0.586488
H1    H     H_    0.985427 0.383301 0.406252 0.240932
H2    H     H_    0.014578 0.616648 0.593802 0.230905
H3    H     H_    0.108603 0.690977 0.143372 0.401070
H4    H     H_    0.870076 0.701021 0.840496 0.374008
N1    N     N_2   0.940600 0.458860 0.467170 -0.119627
N2    N     N_2   0.059400 0.541140 0.532830 -0.117276
O1    O     O_R   0.391630 0.738350 0.508060 -0.568423
O2    O     O_2   0.223968 0.629860 0.906909 -0.233041
O3    O     O_3   0.201874 0.766811 0.123059 -0.434600
O4    O     O_2   0.803557 0.488972 0.108486 -0.269763
O5    O     O_2   0.938234 0.414835 0.923000 -0.199670
O6    O     O_3   0.845518 0.698122 0.931194 -0.452558
O7    O     O_R   0.608370 0.261650 0.491940 -0.562722
O8    O     O_R   0.674540 0.711990 0.487010 -0.585514
O9    O     O_R   0.325460 0.288010 0.512990 -0.564903
O10   O     O_R   0.411370 0.508250 0.688780 -0.542812
O11   O     O_R   0.588630 0.491750 0.311220 -0.552130
O12   O     O_R   0.694270 0.481880 0.667740 -0.615424
O13   O     O_R   0.305730 0.518120 0.332260 -0.628646
O14   O     O_2   0.482991 0.769021 0.016274 -0.195144
S1    S     S_3+6 0.324793 0.667996 0.036504 0.104529
S2    S     S_3+6 0.800765 0.509871 0.965017 0.078183
Zn1   Zn    Zn3+2 0.311100 0.517600 0.514050 1.125285
Zn2   Zn    Zn3+2 0.688900 0.482400 0.485950 1.121029

loop_
_geom_bond_atom_site_label_1
_geom_bond_atom_site_label_2
_ccdc_geom_bond_type
C1    O8    A    
C1    O1    A    
O2    S1    D    
N1    Zn2   S    
O12   Zn2   S    
C5    C7    S    
N1    N2    D    
H4    O6    S    
O11   Zn2   S    
O8    Zn2   S    
C8    F2    S    
C3    O7    A    
C2    C3    S    
O4    S2    D    
H1    N1    S    
N2    Zn1   S    
C9    F1    S    
C3    O9    A    
C4    O12   A    
H3    O3    S    
O6    S2    S    
H2    N2    S    
C6    S2    S    
O3    S1    S    
C2    F4    S    
C4    O10   A    
O7    Zn2   S    
C2    C10   D    
O1    Zn1   S    
C4    C6    S    
O14   S1    D    
O9    Zn1   S    
C7    C9    D    
C6    C8    D    
O5    S2    D    
C7    S1    S    
O13   Zn1   S    
C1    C10   S    
O10   Zn1   S    
C8    C9    S    
C5    O11   A    
C10   F3    S    
C5    O13   A    
