data_mof_unit_61136.cif
_audit_creation_date              2012-12-10T18:45:40-0500
_audit_creation_method            fapswitch 2.2
_symmetry_space_group_name_H-M    P1
_symmetry_Int_Tables_number       1
_space_group_crystal_system       triclinic
_cell_length_a                    18.105154
_cell_length_b                    18.105267
_cell_length_c                    43.007696
_cell_angle_alpha                 90.057556
_cell_angle_beta                  90.005321
_cell_angle_gamma                 89.999988
_cell_volume                      14097.8573961

loop_
_atom_site_label
_atom_site_type_symbol
_atom_type_description
_atom_site_fract_x
_atom_site_fract_y
_atom_site_fract_z
_atom_type_partial_charge
C1    C     C_R   0.500007 0.999920 0.334215 0.796907
C2    C     C_R   0.499672 0.000042 0.868503 -0.008910
C3    C     C_3   0.777941 0.257807 0.221123 -0.249179
C4    C     C_3   0.258418 0.222652 0.778939 -0.244979
C5    C     C_3   0.699330 0.733913 0.228012 -0.195463
C6    C     C_3   0.777333 0.258461 0.778958 -0.249225
C7    C     C_3   0.222551 0.741511 0.221067 -0.244753
C8    C     C_R   0.500043 0.066803 0.114984 -0.181539
C9    C     C_R   0.498601 0.933157 0.884999 -0.177705
C10   C     C_R   0.933090 0.501423 0.114971 -0.177839
C11   C     C_R   0.066878 0.500040 0.885045 -0.172457
C12   C     C_R   0.499675 0.933038 0.114937 -0.172445
C13   C     C_R   0.999974 0.500348 0.131497 -0.008915
C14   C     C_R   0.500454 0.066911 0.885066 -0.182699
C15   C     C_R   0.066845 0.499589 0.114964 -0.182574
C16   C     C_R   0.933112 0.500398 0.885034 -0.181486
C17   C     C_R   0.001399 0.566843 0.615001 -0.177705
C18   C     C_R   0.999957 0.433197 0.385016 -0.181539
C19   C     C_R   0.433122 0.999960 0.614955 -0.172457
C20   C     C_R   0.566910 0.998577 0.385029 -0.177839
C21   C     C_R   0.999546 0.433089 0.614934 -0.182699
C22   C     C_R   0.000325 0.566962 0.385063 -0.172445
C23   C     C_R   0.566888 0.999602 0.614966 -0.181486
C24   C     C_R   0.999999 0.500131 0.868508 -0.006189
C25   C     C_R   0.433155 0.000411 0.385036 -0.182574
C26   C     C_R   0.499912 0.066806 0.082547 -0.157634
C27   C     C_R   0.498429 0.933129 0.917436 -0.157330
C28   C     C_R   0.933069 0.501624 0.082531 -0.157523
C29   C     C_R   0.066878 0.500209 0.917484 -0.154901
C30   C     C_R   0.499530 0.933021 0.082496 -0.154594
C31   C     C_R   0.500278 0.066902 0.917506 -0.157827
C32   C     C_R   0.066844 0.499794 0.082527 -0.157644
C33   C     C_R   0.933093 0.500582 0.917472 -0.157281
C34   C     C_R   0.001570 0.566871 0.582564 -0.157330
C35   C     C_R   0.000328 0.499958 0.631497 -0.008910
C36   C     C_R   0.000088 0.433194 0.417453 -0.157634
C37   C     C_R   0.433121 0.999791 0.582516 -0.154901
C38   C     C_R   0.566930 0.998376 0.417468 -0.157523
C39   C     C_R   0.999721 0.433098 0.582494 -0.157827
C40   C     C_R   0.000470 0.566979 0.417504 -0.154594
C41   C     C_R   0.566907 0.999418 0.582527 -0.157281
C42   C     C_R   0.433156 0.000206 0.417473 -0.157644
C43   C     C_R   0.499641 0.999912 0.065942 0.079150
C44   C     C_R   0.499307 0.000004 0.934051 0.079767
C45   C     C_R   0.999952 0.500772 0.065949 0.079769
C46   C     C_R   0.000080 0.500073 0.368507 -0.006152
C47   C     C_R   0.999980 0.500488 0.934058 0.079139
C48   C     C_R   0.000693 0.499996 0.565949 0.079767
C49   C     C_R   0.000359 0.500088 0.434058 0.079150
C50   C     C_R   0.500019 0.999512 0.565942 0.079139
C51   C     C_R   0.500048 0.999228 0.434051 0.079769
C52   C     C_2   0.116433 0.185842 0.229247 0.913675
C53   C     C_2   0.883753 0.815143 0.769980 0.907118
C54   C     C_2   0.815227 0.116154 0.230148 0.906912
C55   C     C_2   0.251035 0.817130 0.809362 0.909882
C56   C     C_2   0.817229 0.749071 0.190686 0.909871
C57   C     C_R   0.500000 0.999869 0.631492 -0.006189
C58   C     C_2   0.116605 0.185241 0.770523 0.912099
C59   C     C_2   0.185218 0.883357 0.229469 0.912197
C60   C     C_2   0.814203 0.116405 0.770603 0.913635
C61   C     C_2   0.616247 0.684857 0.730020 0.907118
C62   C     C_2   0.383567 0.314158 0.270753 0.913675
C63   C     C_2   0.248965 0.682870 0.690638 0.909882
C64   C     C_2   0.684773 0.383846 0.269852 0.906912
C65   C     C_2   0.383395 0.314759 0.729477 0.912099
C66   C     C_2   0.682771 0.750929 0.309314 0.909871
C67   C     C_2   0.685796 0.383594 0.729397 0.913635
C68   C     C_R   0.500026 0.999652 0.368502 -0.008916
C69   C     C_2   0.314782 0.616643 0.270531 0.912197
C70   C     C_R   0.000510 0.500073 0.468420 0.294967
C71   C     C_R   0.000704 0.500023 0.531587 0.294364
C72   C     C_R   0.500047 0.999188 0.468412 0.294363
C73   C     C_R   0.499998 0.999987 0.665783 0.795277
C74   C     C_R   0.500031 0.999352 0.531580 0.294975
C75   C     C_R   0.499296 0.999977 0.968413 0.294364
C76   C     C_R   0.499490 0.999927 0.031580 0.294967
C77   C     C_R   0.999969 0.500648 0.968420 0.294975
C78   C     C_R   0.999953 0.500812 0.031588 0.294363
C79   C     C_R   0.641623 0.141590 0.249957 0.877002
C80   C     C_R   0.358293 0.858496 0.750032 0.886084
C81   C     C_R   0.858483 0.641711 0.249968 0.886591
C82   C     C_R   0.141595 0.358364 0.750047 0.874015
C83   C     C_R   0.358378 0.858392 0.249945 0.874048
C84   C     C_R   0.000005 0.500031 0.334217 0.795269
C85   C     C_R   0.641549 0.141682 0.750016 0.878891
C86   C     C_R   0.141674 0.358461 0.249985 0.878492
C87   C     C_R   0.858393 0.641604 0.750048 0.877079
C88   C     C_R   0.141707 0.641504 0.749968 0.886084
C89   C     C_R   0.858377 0.358410 0.250043 0.877002
C90   C     C_R   0.358405 0.141636 0.749953 0.874015
C91   C     C_R   0.641517 0.858289 0.250032 0.886591
C92   C     C_R   0.858451 0.358318 0.749983 0.878891
C93   C     C_R   0.141622 0.641608 0.250055 0.874048
C94   C     C_R   0.641607 0.858395 0.749952 0.877079
C95   C     C_R   0.000077 0.499975 0.665785 0.796905
C96   C     C_R   0.358326 0.141539 0.250015 0.878492
C97   C     C_3   0.229697 0.195293 0.269498 -0.190924
C98   C     C_3   0.769802 0.804273 0.730209 -0.192955
C99   C     C_3   0.804277 0.230345 0.269832 -0.192785
C100  C     C_3   0.183599 0.780527 0.756059 -0.226085
C101  C     C_3   0.780548 0.816410 0.244011 -0.225950
C102  C     C_3   0.229932 0.195322 0.730406 -0.195555
C103  C     C_3   0.195392 0.770144 0.269601 -0.195611
C104  C     C_3   0.804662 0.229727 0.730445 -0.190932
C105  C     C_3   0.730198 0.695727 0.769791 -0.192956
C106  C     C_R   0.000002 0.500013 0.834217 0.795277
C107  C     C_3   0.270303 0.304707 0.230502 -0.190924
C108  C     C_3   0.316400 0.719473 0.743941 -0.226085
C109  C     C_3   0.695723 0.269655 0.230168 -0.192785
C110  C     C_3   0.270068 0.304678 0.769594 -0.195555
C111  C     C_3   0.719452 0.683590 0.255989 -0.225950
C112  C     C_3   0.695338 0.270273 0.769555 -0.190932
C113  C     C_3   0.304608 0.729856 0.230399 -0.195611
C114  C     C_3   0.186874 0.220428 0.240392 0.004850
C115  C     C_3   0.813267 0.779903 0.759258 0.012137
C116  C     C_3   0.779940 0.186689 0.240800 0.012206
C117  C     C_R   0.999993 0.500080 0.165785 0.796907
C118  C     C_3   0.251317 0.781983 0.777791 0.007202
C119  C     C_3   0.782026 0.748734 0.222230 0.007119
C120  C     C_3   0.186896 0.220246 0.759501 0.005866
C121  C     C_3   0.220237 0.813088 0.240497 0.005835
C122  C     C_3   0.779594 0.186863 0.759538 0.004972
C123  C     C_3   0.686733 0.720096 0.740742 0.012137
C124  C     C_3   0.313126 0.279572 0.259608 0.004850
C125  C     C_3   0.248683 0.718016 0.722208 0.007202
C126  C     C_3   0.720060 0.313311 0.259200 0.012206
C127  C     C_3   0.313104 0.279754 0.740499 0.005866
C128  C     C_R   0.499923 0.000025 0.834215 0.796905
C129  C     C_3   0.717973 0.751266 0.277770 0.007119
C130  C     C_3   0.720406 0.313137 0.740462 0.004972
C131  C     C_3   0.279763 0.686912 0.259503 0.005835
C132  C     C_3   0.198660 0.301140 0.249768 -0.026060
C133  C     C_3   0.801442 0.698952 0.750261 -0.027055
C134  C     C_3   0.698982 0.198528 0.249752 -0.026905
C135  C     C_3   0.300805 0.801693 0.750166 -0.035621
C136  C     C_3   0.801684 0.699191 0.249834 -0.035733
C137  C     C_3   0.198535 0.301017 0.750253 -0.024161
C138  C     C_3   0.301040 0.801441 0.249731 -0.024266
C139  C     C_R   0.499995 0.999969 0.165783 0.795269
C140  C     C_3   0.698863 0.198662 0.750235 -0.026205
C141  C     C_3   0.698558 0.801048 0.749739 -0.027055
C142  C     C_3   0.301340 0.198860 0.250231 -0.026060
C143  C     C_3   0.199194 0.698307 0.749834 -0.035621
C144  C     C_3   0.801018 0.301472 0.250248 -0.026905
C145  C     C_3   0.301465 0.198983 0.749747 -0.024161
C146  C     C_3   0.698316 0.800809 0.250166 -0.035733
C147  C     C_3   0.801137 0.301338 0.749765 -0.026205
C148  C     C_3   0.198960 0.698559 0.250269 -0.024266
C149  C     C_3   0.241496 0.277268 0.278974 -0.249100
C150  C     C_R   0.499919 0.999926 0.131493 -0.006152
C151  C     C_3   0.757970 0.722064 0.721117 -0.248822
C152  C     C_3   0.722059 0.242193 0.278877 -0.249179
C153  C     C_3   0.233865 0.800701 0.728062 -0.195324
C154  C     C_3   0.800670 0.766087 0.271988 -0.195463
C155  C     C_3   0.241582 0.277348 0.721061 -0.244979
C156  C     C_3   0.277449 0.758489 0.278933 -0.244753
C157  C     C_3   0.722667 0.241539 0.721042 -0.249225
C158  C     C_3   0.742030 0.777935 0.778883 -0.248822
C159  C     C_3   0.258504 0.222732 0.221026 -0.249100
C160  C     C_3   0.266135 0.699299 0.771938 -0.195324
H1    H     H_    0.213437 0.149700 0.285328 0.174802
H2    H     H_    0.286563 0.350300 0.214672 0.174802
H3    H     H_    0.371407 0.695255 0.738834 0.170006
H4    H     H_    0.650495 0.285396 0.214048 0.175064
H5    H     H_    0.286143 0.350217 0.785524 0.172790
H6    H     H_    0.695217 0.628575 0.261036 0.169970
H7    H     H_    0.649781 0.286503 0.785433 0.174767
H8    H     H_    0.350087 0.713720 0.214464 0.172796
H9    H     H_    0.234059 0.300696 0.302636 0.161816
H10   H     H_    0.764977 0.698114 0.697527 0.162498
H11   H     H_    0.698111 0.235315 0.302462 0.162336
H12   H     H_    0.785660 0.849498 0.714124 0.175096
H13   H     H_    0.221368 0.842595 0.709976 0.176015
H14   H     H_    0.842540 0.778540 0.290115 0.175961
H15   H     H_    0.234202 0.300803 0.697421 0.163204
H16   H     H_    0.300993 0.765921 0.302569 0.163315
H17   H     H_    0.699183 0.234135 0.697395 0.161776
H18   H     H_    0.735023 0.801886 0.802473 0.162498
H19   H     H_    0.265941 0.199304 0.197364 0.161816
H20   H     H_    0.278632 0.657405 0.790024 0.176015
H21   H     H_    0.801889 0.264685 0.197538 0.162336
H22   H     H_    0.265798 0.199196 0.802579 0.163204
H23   H     H_    0.849505 0.214604 0.285952 0.175064
H24   H     H_    0.657460 0.721460 0.209885 0.175961
H25   H     H_    0.800817 0.265865 0.802605 0.161776
H26   H     H_    0.199007 0.734079 0.197431 0.163315
H27   H     H_    0.500234 0.119256 0.127110 0.164176
H28   H     H_    0.497890 0.880719 0.872864 0.168569
H29   H     H_    0.880655 0.502117 0.127084 0.168453
H30   H     H_    0.119327 0.499842 0.872940 0.165953
H31   H     H_    0.499576 0.880598 0.127029 0.165962
H32   H     H_    0.501260 0.119354 0.872981 0.164159
H33   H     H_    0.119291 0.498781 0.127071 0.164273
H34   H     H_    0.128593 0.804745 0.761166 0.170006
H35   H     H_    0.880668 0.500482 0.872921 0.164203
H36   H     H_    0.002110 0.619281 0.627136 0.168569
H37   H     H_    0.999766 0.380744 0.372890 0.164176
H38   H     H_    0.380673 0.000158 0.627060 0.165953
H39   H     H_    0.619345 0.997883 0.372916 0.168453
H40   H     H_    0.998740 0.380646 0.627019 0.164159
H41   H     H_    0.000424 0.619402 0.372971 0.165962
H42   H     H_    0.619332 0.999518 0.627079 0.164203
H43   H     H_    0.380709 0.001219 0.372929 0.164273
H44   H     H_    0.500004 0.119322 0.070527 0.154297
H45   H     H_    0.804783 0.871425 0.238964 0.169970
H46   H     H_    0.497627 0.880610 0.929450 0.155925
H47   H     H_    0.880554 0.502430 0.070491 0.155711
H48   H     H_    0.119392 0.500135 0.929531 0.155285
H49   H     H_    0.499337 0.880504 0.070433 0.155490
H50   H     H_    0.500958 0.119407 0.929576 0.154190
H51   H     H_    0.119354 0.499132 0.070484 0.154406
H52   H     H_    0.880572 0.500784 0.929510 0.154516
H53   H     H_    0.002373 0.619390 0.570550 0.155925
H54   H     H_    0.999996 0.380678 0.429473 0.154297
H55   H     H_    0.380608 0.999865 0.570469 0.155285
H56   H     H_    0.213857 0.149783 0.714476 0.172790
H57   H     H_    0.619445 0.997570 0.429509 0.155711
H58   H     H_    0.999041 0.380593 0.570424 0.154190
H59   H     H_    0.000663 0.619496 0.429567 0.155490
H60   H     H_    0.619427 0.999216 0.570490 0.154516
H61   H     H_    0.380646 0.000868 0.429516 0.154406
H62   H     H_    0.009355 0.199267 0.217670 0.374999
H63   H     H_    0.991255 0.802814 0.781042 0.346045
H64   H     H_    0.802949 0.008593 0.219135 0.346027
H65   H     H_    0.293319 0.894474 0.838054 0.346082
H66   H     H_    0.894594 0.706803 0.162018 0.346177
H67   H     H_    0.149913 0.786280 0.285535 0.172796
H68   H     H_    0.009322 0.197984 0.781889 0.374887
H69   H     H_    0.197955 0.990601 0.218083 0.374909
H70   H     H_    0.800796 0.009327 0.782135 0.375146
H71   H     H_    0.508745 0.697186 0.718958 0.346045
H72   H     H_    0.490645 0.300733 0.282330 0.374999
H73   H     H_    0.206681 0.605526 0.661946 0.346082
H74   H     H_    0.697051 0.491407 0.280865 0.346027
H75   H     H_    0.490677 0.302016 0.718111 0.374887
H76   H     H_    0.605405 0.793197 0.337982 0.346177
H77   H     H_    0.699204 0.490673 0.717865 0.375146
H78   H     H_    0.850219 0.213497 0.714567 0.174767
H79   H     H_    0.302045 0.509399 0.281917 0.374909
H80   H     H_    0.714340 0.650502 0.785876 0.175096
N1    N     N_R   0.498896 0.935458 0.015432 -0.171258
N2    N     N_R   0.001104 0.564542 0.484568 -0.171258
N3    N     N_R   0.564516 0.998773 0.515471 -0.172420
N4    N     N_R   0.435562 0.999752 0.484521 -0.172571
N5    N     N_R   0.001200 0.564517 0.515509 -0.171401
N6    N     N_R   0.000033 0.435581 0.484498 -0.173139
N7    N     N_R   0.435554 0.999827 0.515462 -0.171968
N8    N     N_R   0.564524 0.998691 0.484530 -0.172055
N9    N     N_R   0.499878 0.064444 0.984561 -0.173229
N10   N     N_R   0.064437 0.500248 0.015479 -0.172571
N11   N     N_R   0.935484 0.501227 0.984528 -0.172420
N12   N     N_R   0.499967 0.064419 0.015501 -0.173139
N13   N     N_R   0.498800 0.935483 0.984491 -0.171401
N14   N     N_R   0.935475 0.501309 0.015470 -0.172055
N15   N     N_R   0.064446 0.500173 0.984538 -0.171968
N16   N     N_R   0.000122 0.435556 0.515439 -0.173229
O1    O     O_3   0.500000 0.000000 0.250000 -0.499663
O2    O     O_R   0.438450 0.000020 0.680680 -0.643177
O3    O     O_R   0.000020 0.561550 0.319320 -0.643265
O4    O     O_R   0.999980 0.438450 0.680680 -0.649566
O5    O     O_R   0.938450 0.500020 0.819320 -0.647924
O6    O     O_R   0.061550 0.499980 0.180680 -0.649440
O7    O     O_R   0.499980 0.938450 0.819320 -0.634353
O8    O     O_R   0.500020 0.061550 0.180680 -0.647871
O9    O     O_R   0.061550 0.499980 0.819320 -0.643177
O10   O     O_R   0.938450 0.500020 0.180680 -0.634476
O11   O     O_R   0.500020 0.061550 0.819320 -0.649566
O12   O     O_3   0.500000 1.000000 0.750000 -0.499667
O13   O     O_R   0.499980 0.938450 0.180680 -0.643266
O14   O     O_R   0.648010 0.086580 0.268180 -0.622202
O15   O     O_R   0.351990 0.913420 0.731820 -0.648473
O16   O     O_R   0.913420 0.648010 0.268180 -0.648510
O17   O     O_R   0.086580 0.351990 0.731820 -0.618807
O18   O     O_R   0.351990 0.913420 0.268180 -0.618690
O19   O     O_R   0.648010 0.086580 0.731820 -0.620348
O20   O     O_R   0.086580 0.351990 0.268180 -0.620310
O21   O     O_R   0.913420 0.648010 0.731820 -0.622091
O22   O     O_R   0.148010 0.586580 0.768180 -0.648473
O23   O     O_3   0.000000 0.500000 0.250000 -0.499663
O24   O     O_R   0.851990 0.413420 0.231820 -0.622202
O25   O     O_R   0.413420 0.148010 0.768180 -0.618807
O26   O     O_R   0.586580 0.851990 0.231820 -0.648510
O27   O     O_R   0.851990 0.413420 0.768180 -0.620348
O28   O     O_R   0.148010 0.586580 0.231820 -0.618690
O29   O     O_R   0.586580 0.851990 0.768180 -0.622091
O30   O     O_R   0.413420 0.148010 0.231820 -0.620310
O31   O     O_R   0.413460 0.851950 0.231830 -0.648057
O32   O     O_R   0.586540 0.148050 0.768170 -0.636774
O33   O     O_R   0.148050 0.413460 0.231830 -0.636739
O34   O     O_3   0.000000 0.500000 0.750000 -0.499667
O35   O     O_R   0.851950 0.586540 0.768170 -0.636189
O36   O     O_R   0.586540 0.148050 0.231830 -0.636150
O37   O     O_R   0.413460 0.851950 0.768170 -0.604094
O38   O     O_R   0.851950 0.586540 0.231830 -0.604198
O39   O     O_R   0.148050 0.413460 0.768170 -0.648017
O40   O     O_R   0.913460 0.351950 0.731830 -0.636774
O41   O     O_R   0.086540 0.648050 0.268170 -0.648057
O42   O     O_R   0.648050 0.913460 0.731830 -0.636189
O43   O     O_R   0.351950 0.086540 0.268170 -0.636739
O44   O     O_R   0.086540 0.648050 0.731830 -0.604094
O45   O     O_R   0.438450 0.000020 0.319320 -0.649440
O46   O     O_R   0.913460 0.351950 0.268170 -0.636150
O47   O     O_R   0.351950 0.086540 0.731830 -0.648017
O48   O     O_R   0.648050 0.913460 0.268170 -0.604198
O49   O     O_2   0.114987 0.119838 0.223331 -0.604434
O50   O     O_R   0.053064 0.228933 0.225478 -0.811283
O51   O     O_2   0.884874 0.881252 0.775663 -0.613575
O52   O     O_R   0.947544 0.772612 0.773596 -0.813912
O53   O     O_2   0.881360 0.115016 0.224525 -0.613380
O54   O     O_R   0.772713 0.052336 0.226530 -0.813868
O55   O     O_2   0.208582 0.794277 0.829233 -0.612284
O56   O     O_R   0.561550 0.999980 0.680680 -0.647924
O57   O     O_R   0.298760 0.875716 0.815955 -0.810581
O58   O     O_2   0.794453 0.791602 0.170832 -0.612204
O59   O     O_R   0.875783 0.701308 0.184097 -0.810584
O60   O     O_2   0.115583 0.119249 0.776436 -0.590054
O61   O     O_R   0.052907 0.227915 0.774171 -0.811467
O62   O     O_2   0.119204 0.884385 0.223569 -0.590006
O63   O     O_R   0.227900 0.947028 0.225800 -0.811454
O64   O     O_2   0.880229 0.114932 0.776434 -0.604433
O65   O     O_R   0.771110 0.053053 0.774393 -0.811290
O66   O     O_2   0.615126 0.618748 0.724337 -0.613575
O67   O     O_R   0.999980 0.438450 0.319320 -0.647871
O68   O     O_R   0.552456 0.727388 0.726404 -0.813912
O69   O     O_2   0.385013 0.380162 0.276669 -0.604434
O70   O     O_R   0.446936 0.271067 0.274521 -0.811283
O71   O     O_2   0.291418 0.705723 0.670767 -0.612284
O72   O     O_R   0.201240 0.624284 0.684045 -0.810581
O73   O     O_2   0.618640 0.384984 0.275475 -0.613380
O74   O     O_R   0.727287 0.447663 0.273470 -0.813868
O75   O     O_2   0.384417 0.380751 0.723564 -0.590054
O76   O     O_R   0.447093 0.272085 0.725828 -0.811467
O77   O     O_2   0.705547 0.708398 0.329167 -0.612204
O78   O     O_R   0.000020 0.561550 0.680680 -0.634354
O79   O     O_R   0.624217 0.798692 0.315903 -0.810584
O80   O     O_2   0.619770 0.385068 0.723566 -0.604433
O81   O     O_R   0.728890 0.446947 0.725607 -0.811290
O82   O     O_2   0.380796 0.615615 0.276431 -0.590006
O83   O     O_R   0.272100 0.552972 0.274200 -0.811454
O84   O     O_R   0.561550 0.999980 0.319320 -0.634476
Zn1   Zn    Zn3+2 0.499980 0.087890 0.224030 1.015197
Zn2   Zn    Zn3+2 0.000020 0.412110 0.275970 1.015197
Zn3   Zn    Zn3+2 0.412110 0.999980 0.724030 1.006209
Zn4   Zn    Zn3+2 0.587890 0.000020 0.275970 1.033191
Zn5   Zn    Zn3+2 0.000020 0.412110 0.724030 1.014539
Zn6   Zn    Zn3+2 0.999980 0.587890 0.275970 1.006312
Zn7   Zn    Zn3+2 0.587890 0.000020 0.724030 1.015304
Zn8   Zn    Zn3+2 0.412110 0.999980 0.275970 1.014548
Zn9   Zn    Zn3+2 0.500020 0.912110 0.775970 1.033213
Zn10  Zn    Zn3+2 0.912110 0.499980 0.224030 1.033191
Zn11  Zn    Zn3+2 0.087890 0.500020 0.775970 1.006209
Zn12  Zn    Zn3+2 0.500020 0.912110 0.224030 1.006311
Zn13  Zn    Zn3+2 0.499980 0.087890 0.775970 1.014539
Zn14  Zn    Zn3+2 0.087890 0.500020 0.224030 1.014548
Zn15  Zn    Zn3+2 0.912110 0.499980 0.775970 1.015304
Zn16  Zn    Zn3+2 0.999980 0.587890 0.724030 1.033213

loop_
_geom_bond_atom_site_label_1
_geom_bond_atom_site_label_2
_ccdc_geom_bond_type
C100  C153  S    
O16   Zn6   S    
H66   O59   S    
C8    C26   A    
O22   Zn11  S    
C39   H58   S    
C118  C160  S    
H68   O61   S    
C133  C151  S    
C104  C157  S    
C124  C142  S    
C15   C32   A    
H65   O57   S    
C139  O13   A    
C62   O70   S    
C29   H48   S    
C5    C119  S    
C65   C127  S    
O15   Zn3   S    
C92   O27   A    
C129  C154  S    
H77   O81   S    
C10   C28   A    
C153  H13   S    
C1    C68   S    
O32   Zn13  S    
C105  C123  S    
C91   O26   A    
C32   C45   A    
C19   C37   A    
C90   O47   A    
C67   O80   D    
O67   Zn2   S    
C80   O15   A    
C54   C116  S    
C26   C43   A    
O34   Zn16  S    
C45   C78   S    
C42   H61   S    
C117  O10   A    
O12   Zn3   S    
O1    Zn4   S    
O41   Zn6   S    
C92   C147  S    
C104  C147  S    
C93   O41   A    
C107  C124  S    
C30   H49   S    
C56   O58   D    
C8    H27   S    
C101  C146  S    
N2    N5    A    
C53   O52   S    
C12   C150  A    
H63   O52   S    
O34   Zn11  S    
C159  H19   S    
C99   C116  S    
O21   Zn16  S    
C100  C143  S    
C89   O24   A    
C101  C119  S    
C8    C150  A    
C105  C158  S    
C107  H2    S    
C123  C141  S    
C18   H37   S    
C151  H10   S    
C63   C125  S    
C65   O76   S    
C127  C145  S    
C46   C84   S    
C117  O6    A    
O1    Zn8   S    
O78   Zn16  S    
C78   N10   A    
C30   C43   A    
C34   C48   A    
C17   C34   A    
C71   N5    A    
C103  C121  S    
C41   H60   S    
C81   C136  S    
C105  C133  S    
O28   Zn14  S    
C106  O9    A    
C22   H41   S    
H72   O70   S    
C61   O66   D    
C20   C68   A    
C34   H53   S    
O23   Zn10  S    
C21   C35   A    
O36   Zn1   S    
C139  C150  S    
C119  C136  S    
C23   C41   A    
N4    N7    A    
C11   H30   S    
C72   N8    A    
C76   N1    A    
C158  H18   S    
C54   O53   D    
C16   H35   S    
C37   C50   A    
C86   C132  S    
C33   H52   S    
C128  O11   A    
C2    C14   A    
C97   C142  S    
O19   Zn7   S    
C103  C156  S    
N3    N8    A    
C103  H67   S    
C83   C138  S    
C53   C115  S    
C62   O69   D    
O46   Zn2   S    
C124  C149  S    
C69   O83   S    
C112  C140  S    
O12   Zn7   S    
C14   C31   A    
C113  H8    S    
C62   C124  S    
C143  C160  S    
C80   C135  S    
C29   C47   A    
C130  C157  S    
C149  H9    S    
C131  C156  S    
C3    C116  S    
C50   C74   S    
C140  C157  S    
C111  C136  S    
C104  C122  S    
C40   C49   A    
H70   O65   S    
C137  C155  S    
O8    Zn1   S    
C128  O7    A    
C57   C73   S    
C73   O56   A    
C160  H20   S    
C59   O62   D    
C36   H54   S    
C126  C152  S    
C27   C44   A    
C19   H38   S    
C75   N13   A    
C5    H24   S    
C99   H23   S    
C79   O36   A    
C14   H32   S    
C61   O68   S    
C7    C121  S    
O35   Zn15  S    
C94   O29   A    
O1    Zn1   S    
C95   O4    A    
O7    Zn9   S    
H79   O83   S    
C10   H29   S    
C154  H14   S    
C115  C158  S    
O2    Zn3   S    
C63   O72   S    
C108  C135  S    
C32   H51   S    
C64   O74   S    
N11   N14   A    
C38   C51   A    
C112  H7    S    
C81   O16   A    
C96   O43   A    
C81   O38   A    
O24   Zn10  S    
C96   O30   A    
C69   C131  S    
C94   O42   A    
C85   C140  S    
O12   Zn13  S    
C102  H56   S    
C97   H1    S    
C56   C119  S    
O12   Zn9   S    
N1    N13   A    
C58   O60   D    
C83   O18   A    
C83   O31   A    
O4    Zn5   S    
C23   C57   A    
C79   C134  S    
N9    N12   A    
C130  C147  S    
C107  C132  S    
H69   O63   S    
C52   C114  S    
C99   C152  S    
C61   C123  S    
C58   O61   S    
O14   Zn4   S    
C6    C147  S    
C98   C115  S    
N6    N16   A    
C101  C154  S    
C125  C143  S    
O1    Zn12  S    
C4    C145  S    
C126  C144  S    
O38   Zn10  S    
C36   C49   A    
C109  C126  S    
C24   C106  S    
C97   C149  S    
C52   O49   D    
C17   H36   S    
C21   H40   S    
C112  C130  S    
C97   C114  S    
C2    C9    A    
C88   O22   A    
C93   O28   A    
C85   O32   A    
C72   N4    A    
C84   O3    A    
C77   N15   A    
C142  C159  S    
C9    H28   S    
C95   O78   A    
C19   C57   A    
O27   Zn15  S    
C53   O51   D    
C60   O65   S    
C90   C145  S    
C82   O39   A    
C102  C145  S    
C110  H5    S    
C116  C134  S    
O10   Zn10  S    
O31   Zn12  S    
C93   C148  S    
C55   O55   D    
C111  C129  S    
C87   O35   A    
C88   O44   A    
O40   Zn5   S    
O9    Zn11  S    
C88   C143  S    
C59   O63   S    
C65   O75   D    
C60   O64   D    
C66   C129  S    
C86   O33   A    
C90   O25   A    
C132  C149  S    
C38   H57   S    
C25   C68   A    
C18   C46   A    
C98   C151  S    
C108  H3    S    
C123  C151  S    
C84   O67   A    
C99   C144  S    
C82   O17   A    
O17   Zn5   S    
C127  C155  S    
C73   O2    A    
C23   H42   S    
C25   H43   S    
C85   O19   A    
C86   O20   A    
C26   H44   S    
C54   O54   S    
C136  C154  S    
C134  C152  S    
C58   C120  S    
O34   Zn15  S    
O37   Zn9   S    
C1    O84   A    
C60   C122  S    
C66   O79   S    
C3    H21   S    
O39   Zn11  S    
C129  C146  S    
C70   N6    A    
C74   N3    A    
C22   C46   A    
C64   C126  S    
C49   C70   S    
C40   H59   S    
C67   C130  S    
C100  C118  S    
C51   C72   S    
C41   C50   A    
C102  C120  S    
C9    C27   A    
H62   O50   S    
C155  H15   S    
C43   C76   S    
C12   H31   S    
C4    C110  S    
C156  H16   S    
C69   O82   D    
C12   C30   A    
C109  C134  S    
C6    C112  S    
C110  C137  S    
C3    C144  S    
O84   Zn4   S    
H64   O54   S    
C109  H4    S    
C25   C42   A    
C13   C117  S    
C67   O81   S    
C35   C95   S    
C89   C144  S    
C115  C133  S    
C92   O40   A    
O42   Zn7   S    
C27   H46   S    
C31   H50   S    
C3    C109  S    
H76   O79   S    
C122  C140  S    
C15   H33   S    
C141  C158  S    
O23   Zn14  S    
C28   H47   S    
C113  C138  S    
C120  C137  S    
C17   C35   A    
C4    H22   S    
C75   N9    A    
C18   C36   A    
C37   H55   S    
C118  C135  S    
O47   Zn3   S    
C39   C48   A    
C55   C118  S    
C2    C128  S    
C59   C121  S    
C87   C133  S    
C6    H25   S    
O3    Zn6   S    
O6    Zn14  S    
C63   O71   D    
O33   Zn14  S    
C82   C137  S    
C55   O57   S    
H71   O68   S    
C11   C24   A    
C87   O21   A    
O13   Zn12  S    
O45   Zn8   S    
C66   O77   D    
H73   O72   S    
O5    Zn15  S    
O23   Zn2   S    
O20   Zn2   S    
O48   Zn4   S    
C77   N11   A    
C108  C125  S    
C56   O59   S    
C110  C127  S    
H75   O76   S    
C16   C24   A    
C139  O8    A    
C1    O45   A    
C47   C77   S    
C125  C153  S    
C103  C148  S    
O56   Zn7   S    
O26   Zn12  S    
C71   N16   A    
C28   C45   A    
C79   O14   A    
C31   C44   A    
C104  H78   S    
C78   N14   A    
C7    H26   S    
C152  H11   S    
C5    C111  S    
C106  O5    A    
O30   Zn1   S    
C121  C138  S    
C44   C75   S    
C20   H39   S    
C16   C33   A    
H74   O74   S    
C20   C38   A    
C80   O37   A    
C21   C39   A    
C22   C40   A    
O23   Zn6   S    
C131  C148  S    
C111  H6    S    
C157  H17   S    
C101  H45   S    
C89   O46   A    
O25   Zn13  S    
C91   O48   A    
C13   C15   A    
C98   C141  S    
C52   O50   S    
C6    C122  S    
C48   C71   S    
C7    C148  S    
C138  C156  S    
N10   N15   A    
C5    C146  S    
C113  C131  S    
C94   C141  S    
C114  C132  S    
C10   C13   A    
C107  C159  S    
C64   O73   D    
C108  C160  S    
C100  H34   S    
C42   C51   A    
O43   Zn8   S    
C135  C153  S    
O11   Zn13  S    
O18   Zn8   S    
C7    C113  S    
O34   Zn5   S    
C98   H12   S    
C70   N2    A    
O29   Zn9   S    
C74   N7    A    
O44   Zn16  S    
C33   C47   A    
C105  H80   S    
C114  C159  S    
C96   C142  S    
C11   C29   A    
C4    C120  S    
C102  C155  S    
C91   C146  S    
C76   N12   A    
