data_mof_unit_19298.cif
_audit_creation_date              2012-12-10T17:26:25-0500
_audit_creation_method            fapswitch 2.2
_symmetry_space_group_name_H-M    P1
_symmetry_Int_Tables_number       1
_space_group_crystal_system       triclinic
_cell_length_a                    10.183128
_cell_length_b                    10.531613
_cell_length_c                    27.380153
_cell_angle_alpha                 90.913966
_cell_angle_beta                  83.954055
_cell_angle_gamma                 96.646138
_cell_volume                      2900.40112056

loop_
_atom_site_label
_atom_site_type_symbol
_atom_type_description
_atom_site_fract_x
_atom_site_fract_y
_atom_site_fract_z
_atom_type_partial_charge
C1    C     C_R   0.556531 0.734154 0.494784 0.829904
C2    C     C_R   0.650526 0.692657 0.123880 -0.102898
C3    C     C_R   0.517560 0.527125 0.645940 -0.357759
C4    C     C_R   0.511401 0.539631 0.353598 -0.361889
C5    C     C_R   0.676436 0.691007 0.020974 -0.047828
C6    C     C_R   0.609007 0.455605 0.971654 -0.048037
C7    C     C_R   0.629661 0.456987 0.022052 0.011103
C8    C     C_R   0.656265 0.690688 0.970539 0.012221
C9    C     C_R   0.649783 0.574241 0.047132 0.070684
C10   C     C_R   0.629283 0.573435 0.945623 0.071794
C11   C     C_R   0.723099 0.802536 0.047078 0.381561
C12   C     C_R   0.443216 0.265455 0.501878 0.848187
C13   C     C_R   0.559885 0.343158 0.946406 0.380418
C14   C     C_R   0.695518 0.805262 0.098021 -0.138916
C15   C     C_R   0.572319 0.342886 0.895364 -0.147323
C16   C     C_R   0.503961 0.504268 0.593742 1.040240
C17   C     C_R   0.499593 0.505187 0.405959 1.000460
C18   C     C_R   0.649117 0.804772 0.945609 -0.145877
C19   C     C_R   0.638249 0.344556 0.047705 -0.146444
C20   C     C_2   0.588353 0.869583 0.483879 0.305484
C21   C     C_2   0.410345 0.128102 0.496498 0.295522
C22   C     C_2   0.492384 0.929078 0.466775 -0.184309
C23   C     C_R   0.614781 0.574321 0.894791 -0.085786
C24   C     C_2   0.497200 0.066643 0.467113 -0.198465
C25   C     C_2   0.927907 0.453994 0.512317 0.274794
C26   C     C_2   0.072217 0.478800 0.495217 0.257215
C27   C     C_R   0.583372 0.682991 0.820295 0.717974
C28   C     C_R   0.620995 0.467841 0.177215 0.683116
C29   C     C_R   0.592901 0.457745 0.818836 0.686833
C30   C     C_R   0.618681 0.693940 0.174625 0.717885
C31   C     C_R   0.434291 0.497655 0.731880 0.376684
C32   C     C_R   0.658812 0.634600 0.284371 0.391457
C33   C     C_R   0.421482 0.470404 0.682124 0.273168
C34   C     C_R   0.644447 0.574799 0.098862 -0.086108
C35   C     C_R   0.621263 0.626706 0.335138 0.243708
C36   C     C_R   0.625849 0.610916 0.659518 0.297641
C37   C     C_R   0.428008 0.477692 0.320680 0.313004
C38   C     C_R   0.653152 0.617881 0.708645 0.379765
C39   C     C_R   0.445054 0.514084 0.271273 0.346042
C40   C     C_R   0.555292 0.562875 0.745127 -0.112405
C41   C     C_R   0.567094 0.581879 0.252190 -0.108533
C42   C     C_R   0.613811 0.690870 0.869572 -0.171539
C43   C     C_R   0.630599 0.458793 0.125475 -0.161888
C44   C     C_R   0.635525 0.807875 0.895559 0.435275
C45   C     C_R   0.629869 0.341428 0.098892 0.439386
C46   C     C_R   0.598246 0.457384 0.869412 -0.091797
Cl1   Cl    Cl    0.718734 0.716907 0.615594 -0.410798
Cl2   Cl    Cl    0.323713 0.336610 0.337236 -0.317653
Cl3   Cl    Cl    0.713374 0.725133 0.375638 -0.444192
Cl4   Cl    Cl    0.288825 0.360411 0.665095 -0.399460
H1    H     H_    0.118644 0.587484 0.552874 0.194461
H2    H     H_    0.912521 0.895794 0.529806 0.422037
H3    H     H_    0.968216 0.241267 0.436838 0.402974
H4    H     H_    0.073765 0.365584 0.596508 0.389233
H5    H     H_    0.011789 0.719194 0.689055 0.404115
H6    H     H_    0.100574 0.459410 0.243524 0.416800
H7    H     H_    0.760832 0.146117 0.884872 0.385250
H8    H     H_    0.513319 0.006203 0.099910 0.390653
H9    H     H_    0.017081 0.714242 0.288783 0.414516
H10   H     H_    0.084537 0.438375 0.780939 0.409515
H11   H     H_    0.030428 0.017788 0.046028 0.407851
H12   H     H_    0.877742 0.494116 0.447342 0.237459
H13   H     H_    0.267136 0.106667 0.952443 0.408597
H14   H     H_    0.721759 0.892844 0.117837 0.257576
H15   H     H_    0.542769 0.255021 0.876278 0.260007
H16   H     H_    0.649778 0.893536 0.965474 0.248936
H17   H     H_    0.650036 0.257283 0.027688 0.249238
H18   H     H_    0.583180 0.119138 0.446657 0.213258
H19   H     H_    0.398904 0.876075 0.458781 0.209349
H20   H     H_    0.143234 0.089995 0.596621 0.425926
N1    N     N_R   0.580279 0.568727 0.795710 -0.314130
N2    N     N_R   0.603092 0.582040 0.200133 -0.313673
N3    N     N_2   0.842700 0.448890 0.480020 -0.194581
N4    N     N_2   0.157300 0.551110 0.519980 -0.219082
O1    O     O_R   0.431060 0.692470 0.504020 -0.620240
O2    O     O_2   0.630258 0.365549 0.204966 -0.427688
O3    O     O_2   0.603446 0.805441 0.198316 -0.459614
O4    O     O_2   0.594965 0.347421 0.793085 -0.466382
O5    O     O_2   0.159152 0.021873 0.497137 -0.236649
O6    O     O_2   0.296953 0.926096 0.551466 -0.285782
O7    O     O_3   0.215224 0.143992 0.576937 -0.467225
O8    O     O_2   0.805948 0.027286 0.452614 -0.241798
O9    O     O_2   0.720581 0.038510 0.539479 -0.216537
O10   O     O_3   0.847710 0.846182 0.510259 -0.466475
O11   O     O_2   0.162682 0.511533 0.400514 -0.200842
O12   O     O_R   0.568940 0.307530 0.495980 -0.607197
O13   O     O_2   0.218680 0.317399 0.438951 -0.227996
O14   O     O_3   0.985779 0.317325 0.415318 -0.480334
O15   O     O_2   0.863292 0.484046 0.608737 -0.237006
O16   O     O_2   0.758247 0.292659 0.570361 -0.166193
O17   O     O_3   0.005814 0.300640 0.584761 -0.463236
O18   O     O_2   0.801324 0.836238 0.727560 -0.155987
O19   O     O_2   0.846134 0.646641 0.771085 -0.291355
O20   O     O_3   0.930577 0.668795 0.679100 -0.436044
O21   O     O_2   0.328870 0.554842 0.189179 -0.291695
O22   O     O_2   0.318167 0.333681 0.217462 -0.163600
O23   O     O_R   0.651120 0.659650 0.491200 -0.533118
O24   O     O_3   0.168281 0.484800 0.266378 -0.441380
O25   O     O_2   0.749512 0.959766 0.821128 -0.170154
O26   O     O_2   0.526094 0.998242 0.857055 -0.190593
O27   O     O_3   0.726862 0.071336 0.905898 -0.505171
O28   O     O_2   0.727995 0.163763 0.149536 -0.180130
O29   O     O_2   0.487997 0.176837 0.164193 -0.171150
O30   O     O_3   0.577829 0.073427 0.083226 -0.516881
O31   O     O_2   0.867036 0.650855 0.212590 -0.292407
O32   O     O_2   0.826090 0.844710 0.259824 -0.160466
O33   O     O_3   0.930845 0.666606 0.301361 -0.437829
O34   O     O_R   0.348880 0.340350 0.508800 -0.529794
O35   O     O_2   0.297315 0.309782 0.787396 -0.173151
O36   O     O_2   0.309757 0.524433 0.823859 -0.289869
O37   O     O_3   0.154948 0.473691 0.755431 -0.445655
O38   O     O_2   0.917633 0.873261 0.974264 -0.251578
O39   O     O_2   0.793332 0.042041 0.012468 -0.230309
O40   O     O_3   0.963834 0.950813 0.061813 -0.481473
O41   O     O_2   0.511203 0.102822 0.981770 -0.247701
O42   O     O_2   0.377388 0.262058 0.022279 -0.254328
O43   O     O_3   0.325200 0.179117 0.936162 -0.472258
O44   O     O_R   0.389980 0.516390 0.577660 -0.587882
O45   O     O_R   0.610020 0.483610 0.422340 -0.590334
O46   O     O_R   0.610040 0.483570 0.564830 -0.534841
O47   O     O_R   0.389960 0.516430 0.435170 -0.539950
O48   O     O_2   0.552599 0.785854 0.797255 -0.414878
S1    S     S_3+6 0.266958 0.049451 0.530578 0.088433
S2    S     S_3+6 0.298841 0.449653 0.776965 0.138604
S3    S     S_3+6 0.850253 0.920193 0.021525 0.080367
S4    S     S_3+6 0.443210 0.219017 0.974091 0.073914
S5    S     S_3+6 0.743799 0.950412 0.496563 0.125856
S6    S     S_3+6 0.115452 0.406563 0.436917 0.130401
S7    S     S_3+6 0.883502 0.382995 0.570460 0.128948
S8    S     S_3+6 0.809553 0.694903 0.723537 0.157737
S9    S     S_3+6 0.315073 0.470330 0.233580 0.136993
S10   S     S_3+6 0.658297 0.961589 0.867941 0.139245
S11   S     S_3+6 0.606074 0.186858 0.126019 0.144293
S12   S     S_3+6 0.823050 0.701956 0.262466 0.148405
Zn1   Zn    Zn3+2 0.353060 0.521910 0.508560 1.108525
Zn2   Zn    Zn3+2 0.646940 0.478090 0.491440 1.133530

loop_
_geom_bond_atom_site_label_1
_geom_bond_atom_site_label_2
_ccdc_geom_bond_type
C38   C40   A    
C40   N1    S    
H1    N4    S    
H6    O24   S    
C25   S7    S    
C39   C41   A    
O20   S8    S    
C23   C42   A    
O25   S10   D    
O7    S1    S    
C38   S8    S    
C11   S3    S    
C31   S2    S    
C5    C11   A    
O33   S12   S    
O41   S4    D    
C16   O46   A    
H13   O43   S    
C11   C14   A    
O1    Zn1   S    
O39   S3    D    
C3    C33   A    
C15   H15   S    
O15   S7    D    
C31   C40   A    
C36   Cl1   S    
H2    O10   S    
H20   O7    S    
O36   S2    D    
O16   S7    D    
C3    C16   S    
C29   O4    S    
O24   S9    S    
C35   Cl3   S    
C32   C41   A    
C31   C33   A    
H12   N3    S    
C19   H17   S    
O43   S4    S    
C22   H19   S    
C2    C34   A    
O10   S5    S    
C4    C35   A    
C23   C46   A    
O42   S4    D    
O21   S9    D    
C30   O3    S    
C28   N2    A    
C42   C44   A    
H5    O20   S    
O13   S6    D    
C27   O48   S    
O30   S11   S    
C1    O1    A    
C32   C35   A    
O34   Zn1   S    
C1    O23   A    
C12   O34   A    
O40   S3    S    
C24   H18   S    
C25   C26   S    
O5    S1    D    
C12   C21   S    
H9    O33   S    
O46   Zn2   S    
C21   S1    S    
O18   S8    D    
C5    C9    A    
C16   O44   A    
N3    Zn2   S    
C14   H14   S    
N4    Zn1   S    
O26   S10   D    
C26   S6    S    
O47   Zn1   S    
C37   Cl2   S    
C43   C45   A    
O38   S3    D    
C20   S5    S    
O22   S9    D    
C4    C17   S    
C17   O47   A    
C20   C22   D    
C7    C19   A    
C13   C15   A    
C9    C34   A    
C22   C24   S    
H8    O30   S    
C13   S4    S    
O19   S8    D    
C28   O2    S    
C18   C44   A    
C27   N1    A    
O12   Zn2   S    
C7    C9    A    
C18   H16   S    
C1    C20   S    
O37   S2    S    
C8    C10   A    
C34   C43   A    
O9    S5    D    
C6    C10   A    
C5    C8    A    
C30   N2    A    
C19   C45   A    
O35   S2    D    
C6    C7    A    
O17   S7    S    
C10   C23   A    
C44   S10   S    
H7    O27   S    
C28   C43   A    
C45   S11   S    
O45   Zn2   S    
O23   Zn2   S    
C12   O12   A    
C29   C46   A    
C2    C30   A    
C36   C38   A    
C33   Cl4   S    
O28   S11   D    
H4    O17   S    
O14   S6    S    
H10   O37   S    
C6    C13   A    
C32   S12   S    
C27   C42   A    
C39   S9    S    
C3    C36   A    
C26   N4    D    
H3    O14   S    
C25   N3    D    
O29   S11   D    
C2    C14   A    
C8    C18   A    
O8    S5    D    
C17   O45   A    
O27   S10   S    
O32   S12   D    
C4    C37   A    
C37   C39   A    
C21   C24   D    
H11   O40   S    
O11   S6    D    
C15   C46   A    
O44   Zn1   S    
C41   N2    S    
O31   S12   D    
C29   N1    A    
O6    S1    D    
