data_mof_unit_44113.cif
_audit_creation_date              2012-12-11T16:53:29-0500
_audit_creation_method            fapswitch 2.2
_symmetry_space_group_name_H-M    P1
_symmetry_Int_Tables_number       1
_space_group_crystal_system       triclinic
_cell_length_a                    14.855879
_cell_length_b                    14.786013
_cell_length_c                    17.224611
_cell_angle_alpha                 108.923693
_cell_angle_beta                  106.426861
_cell_angle_gamma                 108.101104
_cell_volume                      3076.8691687

loop_
_atom_site_label
_atom_site_type_symbol
_atom_type_description
_atom_site_fract_x
_atom_site_fract_y
_atom_site_fract_z
_atom_type_partial_charge
C1    C     C_R   0.087753 0.280769 0.067177 -0.139955
C2    C     C_R   0.033225 0.480599 0.730130 0.065789
C3    C     C_R   0.660973 0.219045 0.748888 0.041762
C4    C     C_R   0.360561 0.560618 0.052352 0.072696
C5    C     C_R   0.221341 0.701697 0.263667 -0.132636
C6    C     C_R   0.753541 0.568792 0.977040 -0.139828
C7    C     C_R   0.890053 0.401655 0.176822 0.177182
C8    C     C_R   0.084691 0.802035 0.007004 -0.117719
C9    C     C_R   0.913711 0.717846 0.928855 -0.141774
C10   C     C_R   0.063378 0.490132 0.256133 -0.208245
C11   C     C_R   0.229448 0.799658 0.188601 -0.126287
C12   C     C_R   0.938580 0.456128 0.736540 -0.138978
C13   C     C_R   0.745945 0.473722 0.054170 -0.096220
C14   C     C_R   0.248079 0.805178 0.274944 0.084020
C15   C     C_R   0.719509 0.550873 0.039774 0.054973
C16   C     C_R   0.970639 0.437780 0.258466 0.016016
C17   C     C_R   0.999762 0.814255 0.961302 0.039685
C18   C     C_R   0.523493 0.654469 0.041944 0.165096
C19   C     C_R   0.473433 0.599540 0.081892 0.031320
C20   C     C_R   0.531669 0.569934 0.140173 -0.196014
C21   C     C_R   0.625391 0.570163 0.138442 -0.197048
C22   C     C_R   0.658944 0.597936 0.077073 0.034447
C23   C     C_R   0.719904 0.215551 0.825292 -0.154363
C24   C     C_R   0.614822 0.653127 0.038973 0.165672
C25   C     C_3   0.582205 0.644990 0.945234 -0.523556
C26   C     C_3   0.483127 0.647603 0.949100 -0.515163
C27   C     C_R   0.959601 0.440589 0.338531 0.155126
C28   C     C_R   0.043317 0.475805 0.649476 0.076544
C29   C     C_R   0.088080 0.397898 0.529622 -0.217745
C30   C     C_R   0.092925 0.417538 0.615162 -0.198608
C31   C     C_R   0.993588 0.520990 0.602194 -0.053998
C32   C     C_R   0.977335 0.489554 0.512368 0.145235
C33   C     C_R   0.028321 0.431263 0.477321 0.173356
C34   C     C_R   0.300668 0.594127 0.002648 -0.154332
C35   C     C_R   0.020825 0.409503 0.391140 -0.318607
C36   C     C_R   0.901937 0.490972 0.369634 0.060934
C37   C     C_R   0.911463 0.515589 0.457033 -0.289126
C38   C     C_R   0.552966 0.140053 0.683310 0.124049
C39   C     C_R   0.291443 0.899117 0.363847 0.099499
C40   C     C_R   0.367154 0.090821 0.460751 -0.048077
C41   C     C_R   0.307105 0.002227 0.373608 -0.014758
C42   C     C_R   0.323089 0.884719 0.442045 -0.309746
C43   C     C_R   0.385931 0.970688 0.526449 0.166446
C44   C     C_R   0.412694 0.074849 0.535903 0.140899
C45   C     C_R   0.723809 0.311878 0.749834 0.040026
C46   C     C_R   0.492202 0.159941 0.617813 -0.259612
C47   C     C_R   0.516575 0.037140 0.676976 -0.167635
C48   C     C_R   0.431534 0.953113 0.599655 -0.204564
C49   C     C_R   0.060624 0.129712 0.153126 0.125530
C50   C     C_R   0.993627 0.100876 0.064277 0.016940
C51   C     C_R   0.909258 0.996747 0.014016 0.022432
C52   C     C_R   0.886100 0.932353 0.057863 -0.225915
C53   C     C_R   0.945306 0.970501 0.150748 0.033942
C54   C     C_R   0.036188 0.066208 0.195586 0.156256
C55   C     C_3   0.071211 0.159947 0.283291 -0.500284
C56   C     C_R   0.296333 0.497147 0.077775 -0.116688
C57   C     C_3   0.099457 0.229454 0.237463 -0.515281
C58   C     C_R   0.113423 0.545687 0.815147 -0.149209
C59   C     C_R   0.914340 0.196477 0.989049 -0.088450
C60   C     C_R   0.000256 0.183600 0.032445 0.066862
H1    H     H_    0.165446 0.304950 0.116213 0.101247
H2    H     H_    0.749667 0.626288 0.952635 0.106265
H3    H     H_    0.165703 0.856679 0.031375 0.091854
H4    H     H_    0.836051 0.694539 0.880378 0.084865
H5    H     H_    0.141294 0.516220 0.305736 0.111801
H6    H     H_    0.244251 0.864524 0.170938 0.111404
H7    H     H_    0.732641 0.442902 0.100430 0.133244
H8    H     H_    0.499759 0.534677 0.178217 0.126325
H9    H     H_    0.662368 0.535159 0.175474 0.132409
H10   H     H_    0.633166 0.716786 0.943500 0.186499
H11   H     H_    0.861673 0.411472 0.681082 0.110385
H12   H     H_    0.566515 0.567277 0.892466 0.203568
H13   H     H_    0.477828 0.721483 0.950621 0.194318
H14   H     H_    0.412236 0.571858 0.898535 0.201195
H15   H     H_    0.066045 0.372571 0.366590 0.146429
H16   H     H_    0.127027 0.353092 0.502971 0.134184
H17   H     H_    0.868321 0.556247 0.481208 0.140478
H18   H     H_    0.132753 0.385291 0.653615 0.135778
H19   H     H_    0.511343 0.239762 0.626139 0.152232
H20   H     H_    0.691615 0.162886 0.853221 0.115240
H21   H     H_    0.558633 0.018944 0.727502 0.118317
H22   H     H_    0.409263 0.873085 0.593448 0.124560
H23   H     H_    0.308966 0.807193 0.438464 0.127347
H24   H     H_    0.818324 0.855393 0.021052 0.124531
H25   H     H_    0.005545 0.162248 0.301470 0.209924
H26   H     H_    0.140563 0.171249 0.338589 0.178790
H27   H     H_    0.050551 0.272055 0.228534 0.213698
H28   H     H_    0.328478 0.659325 0.986664 0.104089
H29   H     H_    0.185124 0.279329 0.265364 0.183864
H30   H     H_    0.320640 0.469578 0.127337 0.085727
H31   H     H_    0.196276 0.584175 0.833282 0.104335
H32   H     H_    0.833185 0.145025 0.968159 0.123405
H33   H     H_    0.224983 0.673340 0.313789 0.096057
N1    N     N_R   0.055640 0.348550 0.045600 -0.041499
N2    N     N_R   0.798340 0.505430 0.954400 -0.042808
N3    N     N_R   0.931580 0.439470 0.128350 -0.059292
N4    N     N_R   0.051950 0.704140 0.002340 -0.039773
N5    N     N_R   0.944360 0.651450 0.954400 -0.038807
N6    N     N_R   0.039170 0.492150 0.176290 -0.043910
N7    N     N_R   0.188710 0.696600 0.128350 -0.044207
N8    N     N_R   0.794820 0.447010 0.002340 -0.035812
N9    N     N_R   0.960830 0.507850 0.823710 -0.047411
N10   N     N_R   0.811290 0.303400 0.871650 -0.043534
N11   N     N_R   0.205180 0.552990 0.997660 -0.038326
N12   N     N_R   0.814810 0.361830 0.823710 -0.054269
N13   N     N_R   0.201660 0.494570 0.045600 -0.039456
N14   N     N_R   0.068420 0.560530 0.871650 -0.039841
N15   N     N_R   0.948050 0.295860 0.997660 -0.042965
N16   N     N_R   0.185190 0.638170 0.176290 -0.040522
Ni1   Ni    Ni4+2 0.119330 0.493420 0.109950 0.205972
Ni2   Ni    Ni4+2 0.880670 0.506580 0.890050 0.202639
Ni3   Ni    Ni4+2 0.872590 0.372590 0.000000 0.240436
Ni4   Ni    Ni4+2 0.127410 0.627410 0.000000 0.208018
I1    I     I_    0.745657 0.265112 0.122063 -0.509130
N17   N     N_3   0.840003 0.524049 0.315090 -0.216715
H34   H     H_    0.763228 0.488970 0.307671 0.120269
H35   H     H_    0.868871 0.606798 0.349973 0.103614
N18   N     N_3   0.959224 0.597533 0.643916 -0.221730
H36   H     H_    0.993011 0.628633 0.714432 0.121861
H37   H     H_    0.990911 0.664237 0.633804 0.102229
N19   N     N_3   0.387578 0.196977 0.472386 -0.222724
H38   H     H_    0.316244 0.200545 0.449961 0.099702
H39   H     H_    0.425951 0.213987 0.432901 0.106509
N20   N     N_3   0.262454 0.016736 0.295896 -0.223504
H40   H     H_    0.211830 0.050062 0.305933 0.109342
H41   H     H_    0.322368 0.069241 0.289349 0.100428
N21   N     N_3   0.843623 0.958507 0.920328 -0.217499
H42   H     H_    0.766829 0.939702 0.912999 0.104992
H43   H     H_    0.845209 0.887924 0.882943 0.104969
N22   N     N_3   0.686747 0.366101 0.702818 -0.230561
H44   H     H_    0.685599 0.334917 0.638556 0.093442
H45   H     H_    0.739087 0.447189 0.737112 0.103197

loop_
_geom_bond_atom_site_label_1
_geom_bond_atom_site_label_2
_ccdc_geom_bond_type
C59   C60   A    
C9    N5    A    
C9    H4    S    
C3    C23   A    
C19   C20   A    
C18   C26   S    
C8    N4    A    
C2    C12   A    
N11   N13   A    
N4    N5    A    
C39   C41   A    
C29   H16   S    
C53   C54   A    
N8    Ni3   S    
C7    N3    A    
N3    Ni3   S    
N1    N15   A    
C57   H29   S    
C18   C24   A    
C41   N20   S    
C36   C37   A    
C18   C19   A    
N7    N16   A    
C13   H7    S    
C46   H19   S    
C11   C14   A    
N17   H34   S    
N3    N6    A    
C29   C33   A    
C26   H13   S    
C49   C57   S    
C58   N14   A    
C52   H24   S    
N18   H36   S    
N14   Ni4   S    
C33   C35   A    
C14   C39   S    
C4    C19   S    
C15   C22   S    
C23   N10   A    
C47   C48   A    
C3    C38   S    
C45   N12   A    
C1    N1    A    
N17   H35   S    
C23   H20   S    
C5    C14   A    
C43   C48   A    
C11   H6    S    
C16   C27   S    
C56   H30   S    
N12   Ni2   S    
C45   N22   S    
C21   C22   A    
C4    C56   A    
N9    Ni2   S    
C44   C46   A    
C39   C42   A    
C4    C34   A    
C38   C46   A    
C42   H23   S    
C51   C52   A    
C24   C25   S    
C1    C60   A    
C10   C16   A    
C27   C35   A    
C25   C26   S    
N6    Ni1   S    
C37   H17   S    
N1    Ni1   S    
C34   N11   A    
C57   H27   S    
C21   H9    S    
C11   N7    A    
C55   H25   S    
N22   H45   S    
C43   C44   A    
N21   H43   S    
C31   N18   S    
C12   N9    A    
C29   C30   A    
C40   N19   S    
C31   C32   A    
C48   H22   S    
C6    C15   A    
C35   H15   S    
C50   C51   A    
C38   C47   A    
N9    N14   A    
N10   N12   A    
C25   H12   S    
C34   H28   S    
C32   C37   A    
C56   N13   A    
N19   H38   S    
C9    C17   A    
C7    C16   A    
C12   H11   S    
C6    N2    A    
C13   C15   A    
C22   C24   A    
C42   C43   A    
C13   N8    A    
N21   H42   S    
C52   C53   A    
C7    I1    S    
N20   H41   S    
C58   H31   S    
C10   H5    S    
C54   C55   S    
C40   C41   A    
N5    Ni2   S    
C20   H8    S    
C28   C31   A    
N7    Ni4   S    
C59   N15   A    
C1    H1    S    
C5    H33   S    
C2    C58   A    
C27   C36   A    
N2    N8    A    
C8    C17   A    
C51   N21   S    
C32   C33   A    
C6    H2    S    
C55   H26   S    
C55   C57   S    
N22   H44   S    
C50   C60   S    
N2    Ni2   S    
N16   Ni1   S    
C5    N16   A    
C28   C30   A    
C26   H14   S    
C3    C45   A    
C59   H32   S    
C47   H21   S    
C10   N6    A    
N18   H37   S    
N19   H39   S    
C8    H3    S    
N11   Ni4   S    
C30   H18   S    
N15   Ni3   S    
C40   C44   A    
C20   C21   A    
N13   Ni1   S    
C49   C50   A    
N10   Ni3   S    
C2    C28   S    
C25   H10   S    
C36   N17   S    
N4    Ni4   S    
C49   C54   A    
N20   H40   S    
