data_mof_unit_7346.cif
_audit_creation_date              2012-12-10T16:56:29-0500
_audit_creation_method            fapswitch 2.2
_symmetry_space_group_name_H-M    P1
_symmetry_Int_Tables_number       1
_space_group_crystal_system       triclinic
_cell_length_a                    7.767724
_cell_length_b                    8.604089
_cell_length_c                    15.705205
_cell_angle_alpha                 90.907076
_cell_angle_beta                  86.163879
_cell_angle_gamma                 93.22103
_cell_volume                      1045.56161246

loop_
_atom_site_label
_atom_site_type_symbol
_atom_type_description
_atom_site_fract_x
_atom_site_fract_y
_atom_site_fract_z
_atom_type_partial_charge
C1    C     C_R   0.544728 0.794327 0.497464 0.934301
C2    C     C_3   0.367287 0.404242 0.030189 -0.216053
C3    C     C_1   0.507814 0.499496 0.750615 -0.144432
C4    C     C_1   0.492254 0.500590 0.249384 -0.116067
C5    C     C_3   0.353015 0.549379 0.975384 0.041358
C6    C     C_3   0.647782 0.451020 0.024577 0.050810
C7    C     C_3   0.505673 0.499630 0.916853 0.088372
C8    C     C_3   0.495052 0.500639 0.083129 0.137111
C9    C     C_1   0.508905 0.499363 0.825884 -0.050461
C10   C     C_1   0.491397 0.500805 0.174111 0.016357
C11   C     C_2   0.813190 0.395517 0.053500 0.383260
C12   C     C_R   0.455268 0.205673 0.502537 0.932320
C13   C     C_2   0.187132 0.601948 0.945363 0.469641
C14   C     C_2   0.679126 0.998993 0.404763 0.399426
C15   C     C_2   0.320829 0.000991 0.595222 0.392810
C16   C     C_R   0.502562 0.500002 0.661933 0.930478
C17   C     C_R   0.497441 0.500002 0.338068 0.926607
C18   C     C_2   0.560080 0.954475 0.480461 -0.227011
C19   C     C_2   0.439905 0.045522 0.519532 -0.220902
C20   C     C_3   0.478787 0.646552 0.029707 -0.129534
C21   C     C_3   0.522095 0.353858 0.970282 -0.272511
C22   C     C_3   0.633537 0.596097 0.969716 -0.179161
H1    H     H_    0.743122 0.672941 0.943235 0.181563
H2    H     H_    0.199499 0.057133 0.606317 0.078397
H3    H     H_    0.257711 0.327323 0.056630 0.176820
H4    H     H_    0.459684 0.765464 0.055841 0.171398
H5    H     H_    0.541471 0.234931 0.944239 0.166793
H6    H     H_    0.013577 0.382054 0.436484 0.205570
H7    H     H_    0.986423 0.617948 0.563514 0.200846
H8    H     H_    0.856641 0.282798 0.032394 0.059804
H9    H     H_    0.108424 0.524157 0.906941 0.038629
H10   H     H_    0.800434 0.942820 0.393641 0.083987
N1    N     N_2   0.950320 0.457950 0.477300 -0.171414
N2    N     N_2   0.049680 0.542050 0.522700 -0.174802
O1    O     O_R   0.389250 0.738570 0.505570 -0.580744
O2    O     O_2   0.139729 0.731670 0.963995 -0.556629
O3    O     O_2   0.638395 0.090337 0.351832 -0.557357
O4    O     O_2   0.361557 0.909665 0.648161 -0.560164
O5    O     O_R   0.610750 0.261430 0.494430 -0.583457
O6    O     O_R   0.678390 0.711630 0.491020 -0.656720
O7    O     O_R   0.321610 0.288370 0.508980 -0.657713
O8    O     O_R   0.355460 0.513480 0.630490 -0.595494
O9    O     O_R   0.644540 0.486520 0.369510 -0.580720
O10   O     O_R   0.644600 0.486540 0.615950 -0.630814
O11   O     O_R   0.355400 0.513460 0.384050 -0.627385
O12   O     O_2   0.900392 0.477331 0.100190 -0.546146
Zn1   Zn    Zn3+2 0.306940 0.517990 0.509710 0.981868
Zn2   Zn    Zn3+2 0.693060 0.482010 0.490290 0.987165

loop_
_geom_bond_atom_site_label_1
_geom_bond_atom_site_label_2
_ccdc_geom_bond_type
C17   O9    A    
C15   O4    D    
C12   O7    A    
C3    C9    T    
C7    C22   S    
O9    Zn2   S    
C14   C18   S    
C5    C13   S    
O1    Zn1   S    
C12   O5    A    
N1    N2    D    
C21   H5    S    
C5    C20   S    
C7    C21   S    
C14   O3    D    
C15   C19   S    
C1    C18   S    
C8    C20   S    
C20   H4    S    
C2    C21   S    
C4    C17   S    
C12   C19   S    
C15   H2    S    
C20   C22   S    
H6    N1    S    
C2    H3    S    
C7    C9    S    
O8    Zn1   S    
O11   Zn1   S    
O7    Zn1   S    
C2    C5    S    
C4    C10   T    
C6    C22   S    
C16   O8    A    
C1    O1    A    
C13   O2    D    
C8    C10   S    
C18   C19   D    
C14   H10   S    
C6    C11   S    
C5    C7    S    
N1    Zn2   S    
C16   O10   A    
O6    Zn2   S    
C11   O12   D    
C6    C8    S    
N2    Zn1   S    
C1    O6    A    
C22   H1    S    
C6    C21   S    
H7    N2    S    
C13   H9    S    
C2    C8    S    
C3    C16   S    
O10   Zn2   S    
C11   H8    S    
C17   O11   A    
O5    Zn2   S    
