data_mof_unit_60440.cif
_audit_creation_date              2012-12-10T16:43:16-0500
_audit_creation_method            fapswitch 2.2
_symmetry_space_group_name_H-M    P1
_symmetry_Int_Tables_number       1
_space_group_crystal_system       triclinic
_cell_length_a                    30.166547
_cell_length_b                    30.872228
_cell_length_c                    21.769787
_cell_angle_alpha                 89.945393
_cell_angle_beta                  134.293825
_cell_angle_gamma                 90.075846
_cell_volume                      14511.7454685

loop_
_atom_site_label
_atom_site_type_symbol
_atom_type_description
_atom_site_fract_x
_atom_site_fract_y
_atom_site_fract_z
_atom_type_partial_charge
C1    C     C_R   0.689959 0.808947 0.882824 0.877704
C2    C     C_R   0.310031 0.808950 0.117179 0.877513
C3    C     C_R   0.189961 0.308947 0.882825 0.877494
C4    C     C_R   0.810033 0.308951 0.117179 0.877803
C5    C     C_R   0.452821 0.789502 0.998683 0.107827
C6    C     C_R   0.547043 0.789495 0.000820 0.107824
C7    C     C_R   0.952828 0.289503 0.998698 0.108100
C8    C     C_R   0.047050 0.289496 0.000835 0.107948
C9    C     C_R   0.477281 0.670922 0.001057 -0.204126
C10   C     C_R   0.522375 0.670918 0.998701 -0.203756
C11   C     C_R   0.977267 0.170922 0.001031 -0.204237
C12   C     C_R   0.022362 0.170918 0.998675 -0.204223
C13   C     C_R   0.523536 0.828725 0.000562 -0.197990
C14   C     C_R   0.476387 0.828728 0.998835 -0.197859
C15   C     C_R   0.023550 0.328725 0.000591 -0.198188
C16   C     C_R   0.976401 0.328729 0.998864 -0.198558
C17   C     C_2   0.562191 0.870661 0.675924 0.421972
C18   C     C_2   0.437661 0.870639 0.324265 0.421898
C19   C     C_2   0.062186 0.370664 0.675929 0.422062
C20   C     C_2   0.937637 0.370626 0.324302 0.421559
C21   C     C_2   0.590535 0.904931 0.677317 -0.370824
C22   C     C_2   0.409360 0.904937 0.322682 -0.370712
C23   C     C_2   0.090532 0.404929 0.677313 -0.370805
C24   C     C_2   0.909344 0.404959 0.322643 -0.370649
C25   C     C_2   0.599073 0.835457 0.739132 -0.177666
C26   C     C_2   0.400768 0.835452 0.261001 -0.177770
C27   C     C_2   0.099061 0.335462 0.739145 -0.177679
C28   C     C_2   0.900743 0.335442 0.261032 -0.177956
C29   C     C_2   0.653992 0.843157 0.818883 -0.388506
C30   C     C_2   0.345979 0.843161 0.181144 -0.388522
C31   C     C_2   0.154004 0.343157 0.818884 -0.388522
C32   C     C_2   0.845986 0.343163 0.181141 -0.389164
C33   C     C_R   0.132189 0.749086 0.077955 -0.234816
C34   C     C_R   0.867863 0.748960 0.922127 -0.235602
C35   C     C_R   0.632187 0.248967 0.077960 -0.234663
C36   C     C_R   0.367862 0.249085 0.922136 -0.234668
C37   C     C_R   0.115947 0.750335 0.999944 -0.057149
C38   C     C_R   0.884092 0.750432 0.000118 -0.058963
C39   C     C_R   0.615949 0.250339 0.999957 -0.057279
C40   C     C_R   0.384096 0.250428 0.000135 -0.057239
C41   C     C_R   0.053573 0.751747 0.921964 -0.239445
C42   C     C_R   0.946464 0.752056 0.078083 -0.239302
C43   C     C_R   0.553578 0.251874 0.921988 -0.239130
C44   C     C_R   0.446471 0.251922 0.078113 -0.239263
C45   C     C_R   0.664206 0.749901 0.999789 0.808137
C46   C     C_R   0.335760 0.749915 0.000142 0.808292
C47   C     C_R   0.164206 0.249901 0.999789 0.808111
C48   C     C_R   0.835760 0.249915 0.000142 0.808099
C49   C     C_R   0.006955 0.751111 0.921383 0.109110
C50   C     C_R   0.993087 0.751385 0.078675 0.107839
C51   C     C_R   0.506959 0.251241 0.921405 0.109018
C52   C     C_R   0.493093 0.251254 0.078701 0.109030
C53   C     C_R   0.023311 0.750568 0.000015 0.061011
C54   C     C_R   0.976735 0.750596 0.000052 0.061150
C55   C     C_R   0.523315 0.250570 0.000034 0.061124
C56   C     C_R   0.476739 0.250596 0.000073 0.061124
C57   C     C_R   0.086206 0.749946 0.078609 0.105825
C58   C     C_R   0.913844 0.749779 0.921466 0.106150
C59   C     C_R   0.586207 0.249823 0.078623 0.106035
C60   C     C_R   0.413845 0.249907 0.921481 0.106025
C61   C     C_R   0.944346 0.750848 0.843682 -0.204844
C62   C     C_R   0.055697 0.751314 0.156377 -0.203725
C63   C     C_R   0.444350 0.251103 0.843704 -0.204454
C64   C     C_R   0.555703 0.251056 0.156402 -0.204465
C65   C     C_R   0.898087 0.749855 0.843726 -0.201206
C66   C     C_R   0.101960 0.750268 0.156346 -0.200782
C67   C     C_R   0.398088 0.250110 0.843741 -0.200584
C68   C     C_R   0.601962 0.250015 0.156363 -0.200519
C69   C     C_2   0.903430 0.590644 0.249157 -0.152568
C70   C     C_2   0.062202 0.625198 0.682987 -0.151806
C71   C     C_2   0.437891 0.125241 0.316957 -0.150884
C72   C     C_2   0.562197 0.125229 0.682917 -0.150785
C73   C     C_2   0.902726 0.588532 0.309980 -0.306804
C74   C     C_2   0.091122 0.594793 0.677780 -0.305489
C75   C     C_2   0.408959 0.094779 0.322191 -0.306405
C76   C     C_2   0.591124 0.094796 0.677772 -0.306452
C77   C     C_2   0.862516 0.620917 0.176253 -0.156231
C78   C     C_2   0.096952 0.661617 0.743752 -0.154533
C79   C     C_2   0.403137 0.161659 0.256196 -0.155173
C80   C     C_2   0.596958 0.161643 0.743696 -0.155244
C81   C     C_2   0.846989 0.659170 0.185803 -0.314125
C82   C     C_2   0.155412 0.656462 0.819629 -0.310270
C83   C     C_2   0.344637 0.156469 0.180365 -0.310730
C84   C     C_2   0.655395 0.156465 0.819619 -0.310816
C85   C     C_R   0.058063 0.559654 0.615596 0.830959
C86   C     C_R   0.940036 0.557699 0.380577 0.826813
C87   C     C_R   0.558065 0.059653 0.615598 0.827050
C88   C     C_R   0.441968 0.059652 0.384397 0.827007
C89   C     C_R   0.810097 0.691236 0.117515 0.843293
C90   C     C_R   0.190094 0.690999 0.882968 0.843163
C91   C     C_R   0.309922 0.191003 0.117032 0.843188
C92   C     C_R   0.690090 0.190999 0.882966 0.843245
C93   C     C_R   0.557710 0.940048 0.614984 0.905463
C94   C     C_R   0.442250 0.940053 0.385010 0.905409
C95   C     C_R   0.057708 0.440047 0.614981 0.905616
C96   C     C_R   0.942244 0.440059 0.384999 0.901667
C97   C     C_R   0.835718 0.750124 0.000056 0.806722
C98   C     C_R   0.164297 0.750091 0.999971 0.806683
C99   C     C_R   0.335720 0.250121 0.000063 0.806784
C100  C     C_R   0.664299 0.250093 0.999976 0.806943
C101  C     C_R   0.405880 0.789198 0.997442 -0.230743
C102  C     C_R   0.594019 0.789185 0.002137 -0.231077
C103  C     C_R   0.905887 0.289199 0.997456 -0.231325
C104  C     C_R   0.094026 0.289185 0.002152 -0.230917
C105  C     C_R   0.384242 0.749849 0.000425 -0.055833
C106  C     C_R   0.615626 0.749830 0.999309 -0.056597
C107  C     C_R   0.884242 0.249849 0.000425 -0.055742
C108  C     C_R   0.115626 0.249830 0.999310 -0.055808
C109  C     C_R   0.408695 0.710477 0.003292 -0.237294
C110  C     C_R   0.591076 0.710461 0.996466 -0.237488
C111  C     C_R   0.908689 0.210478 0.003279 -0.237554
C112  C     C_R   0.091069 0.210461 0.996454 -0.237638
C113  C     C_R   0.454142 0.710151 0.001546 0.109952
C114  C     C_R   0.545589 0.710142 0.998138 0.109531
C115  C     C_R   0.954136 0.210151 0.001534 0.109950
C116  C     C_R   0.045583 0.210143 0.998126 0.110026
C117  C     C_R   0.476679 0.749822 0.999953 0.061650
C118  C     C_R   0.523108 0.749818 0.999620 0.061696
C119  C     C_R   0.976680 0.249823 0.999955 0.061645
C120  C     C_R   0.023109 0.249819 0.999622 0.061609
Cu1   Cu    Cu3+1 0.719490 0.719480 0.938970 0.965222
Cu2   Cu    Cu3+1 0.280510 0.719480 0.061030 0.966829
Cu3   Cu    Cu3+1 0.219490 0.219480 0.938970 0.967109
Cu4   Cu    Cu3+1 0.780510 0.219480 0.061030 0.967072
Cu5   Cu    Cu3+1 0.780480 0.780500 0.060980 0.959209
Cu6   Cu    Cu3+1 0.219520 0.780500 0.939020 0.958429
Cu7   Cu    Cu3+1 0.280480 0.280500 0.060980 0.957854
Cu8   Cu    Cu3+1 0.719520 0.280500 0.939020 0.957607
Cu9   Cu    Cu3+1 0.455530 0.999980 0.499990 1.008390
Cu10  Cu    Cu3+1 0.544470 0.999980 0.500010 1.008037
Cu11  Cu    Cu3+1 0.955530 0.499980 0.499990 1.008029
Cu12  Cu    Cu3+1 0.044470 0.499980 0.500010 1.008042
H1    H     H_    0.386963 0.819507 0.995879 0.147382
H2    H     H_    0.613009 0.819492 0.003674 0.147472
H3    H     H_    0.886975 0.319508 0.995904 0.146950
H4    H     H_    0.113022 0.319492 0.003699 0.147321
H5    H     H_    0.041487 0.752373 0.861914 0.142884
H6    H     H_    0.958548 0.752854 0.138125 0.146913
H7    H     H_    0.541491 0.252595 0.861939 0.143127
H8    H     H_    0.458553 0.252617 0.138158 0.143069
H9    H     H_    0.931182 0.751130 0.782912 0.148035
H10   H     H_    0.068861 0.751785 0.217143 0.150113
H11   H     H_    0.431187 0.251483 0.782936 0.148295
H12   H     H_    0.568868 0.251426 0.217171 0.148300
H13   H     H_    0.849992 0.749368 0.782986 0.152832
H14   H     H_    0.150056 0.749934 0.217091 0.153416
H15   H     H_    0.349992 0.249721 0.782999 0.153027
H16   H     H_    0.650057 0.249583 0.217104 0.153062
H17   H     H_    0.931883 0.568434 0.250274 0.165549
H18   H     H_    0.012103 0.624803 0.638999 0.162966
H19   H     H_    0.487992 0.124898 0.360928 0.164242
H20   H     H_    0.512089 0.124859 0.638872 0.164301
H21   H     H_    0.869348 0.607283 0.303814 0.154119
H22   H     H_    0.140187 0.597797 0.715076 0.154236
H23   H     H_    0.359900 0.097739 0.284926 0.154014
H24   H     H_    0.640203 0.097776 0.715117 0.153965
H25   H     H_    0.848189 0.612758 0.115989 0.164736
H26   H     H_    0.073081 0.692152 0.727852 0.160888
H27   H     H_    0.427021 0.192227 0.272067 0.161235
H28   H     H_    0.573112 0.192194 0.727765 0.161354
H29   H     H_    0.866950 0.669368 0.248564 0.155845
H30   H     H_    0.176977 0.624695 0.839575 0.153715
H31   H     H_    0.323055 0.124677 0.160431 0.153907
H32   H     H_    0.676926 0.124684 0.839585 0.153971
H33   H     H_    0.391282 0.680184 0.004922 0.144406
H34   H     H_    0.608462 0.680165 0.994947 0.146080
H35   H     H_    0.891270 0.180184 0.004899 0.144368
H36   H     H_    0.108450 0.180166 0.994925 0.144307
H37   H     H_    0.460237 0.640259 0.001990 0.147066
H38   H     H_    0.539372 0.640251 0.997848 0.147716
H39   H     H_    0.960218 0.140259 0.001954 0.146916
H40   H     H_    0.039353 0.140252 0.997811 0.146909
H41   H     H_    0.541381 0.859389 0.001214 0.150095
H42   H     H_    0.458599 0.859394 0.998123 0.150104
H43   H     H_    0.041402 0.359389 0.001254 0.149774
H44   H     H_    0.958619 0.359395 0.998163 0.149380
H45   H     H_    0.640639 0.905442 0.721461 0.122375
H46   H     H_    0.359248 0.905493 0.278345 0.122212
H47   H     H_    0.140634 0.405439 0.721450 0.122321
H48   H     H_    0.859230 0.405554 0.278232 0.122937
H49   H     H_    0.579291 0.803089 0.720893 0.199685
H50   H     H_    0.420457 0.803082 0.279304 0.199726
H51   H     H_    0.079252 0.303097 0.720924 0.199645
H52   H     H_    0.920404 0.303060 0.279372 0.199915
H53   H     H_    0.671341 0.876030 0.840206 0.155772
H54   H     H_    0.328727 0.876033 0.159792 0.155822
H55   H     H_    0.171383 0.376029 0.840201 0.155665
H56   H     H_    0.828764 0.376040 0.159765 0.155529
H57   H     H_    0.180628 0.748331 0.137988 0.150465
H58   H     H_    0.819428 0.748039 0.862096 0.150653
H59   H     H_    0.680623 0.248116 0.137990 0.150517
H60   H     H_    0.319424 0.248262 0.862100 0.150485
O1    O     O_R   0.679710 0.768740 0.859430 -0.579016
O2    O     O_R   0.320290 0.768740 0.140570 -0.579062
O3    O     O_R   0.179710 0.268740 0.859430 -0.578939
O4    O     O_R   0.820290 0.268740 0.140570 -0.578986
O5    O     O_R   0.082020 0.544510 0.588970 -0.591477
O6    O     O_R   0.917980 0.544510 0.411030 -0.595287
O7    O     O_R   0.582020 0.044510 0.588970 -0.595406
O8    O     O_R   0.417980 0.044510 0.411030 -0.595337
O9    O     O_R   0.506970 0.955460 0.589020 -0.537913
O10   O     O_R   0.493030 0.955460 0.410980 -0.538029
O11   O     O_R   0.006970 0.455460 0.589020 -0.538083
O12   O     O_R   0.993030 0.455460 0.410980 -0.542311
O13   O     O_R   0.582050 0.955480 0.588990 -0.577575
O14   O     O_R   0.417950 0.955480 0.411010 -0.577552
O15   O     O_R   0.082050 0.455480 0.588990 -0.577483
O16   O     O_R   0.917950 0.455480 0.411010 -0.577015
O17   O     O_R   0.731220 0.820270 0.962460 -0.587240
O18   O     O_R   0.268780 0.820270 0.037540 -0.587368
O19   O     O_R   0.231220 0.320270 0.962460 -0.587449
O20   O     O_R   0.768780 0.320270 0.037540 -0.587579
O21   O     O_R   0.659370 0.724200 0.948480 -0.584412
O22   O     O_R   0.340630 0.724200 0.051520 -0.585712
O23   O     O_R   0.159370 0.224200 0.948480 -0.585629
O24   O     O_R   0.840630 0.224200 0.051520 -0.585580
O25   O     O_R   0.710880 0.775730 0.051510 -0.586955
O26   O     O_R   0.289120 0.775730 0.948490 -0.585488
O27   O     O_R   0.210880 0.275730 0.051510 -0.585735
O28   O     O_R   0.789120 0.275730 0.948490 -0.585885
O29   O     O_R   0.768760 0.679710 0.037490 -0.581447
O30   O     O_R   0.231240 0.679710 0.962510 -0.587624
O31   O     O_R   0.268760 0.179710 0.037490 -0.587434
O32   O     O_R   0.731240 0.179710 0.962510 -0.587463
O33   O     O_R   0.820270 0.731240 0.140520 -0.587063
O34   O     O_R   0.179730 0.731240 0.859480 -0.580509
O35   O     O_R   0.320270 0.231240 0.140520 -0.580717
O36   O     O_R   0.679730 0.231240 0.859480 -0.580766
O37   O     O_R   0.789100 0.724240 0.948440 -0.586819
O38   O     O_R   0.210900 0.724240 0.051560 -0.583773
O39   O     O_R   0.289100 0.224240 0.948440 -0.583637
O40   O     O_R   0.710900 0.224240 0.051560 -0.583710
O41   O     O_R   0.840600 0.775770 0.051470 -0.585901
O42   O     O_R   0.159400 0.775770 0.948530 -0.588818
O43   O     O_R   0.340600 0.275770 0.051470 -0.588879
O44   O     O_R   0.659400 0.275770 0.948530 -0.588772
O45   O     O_R   0.006940 0.544490 0.589000 -0.584670
O46   O     O_R   0.993060 0.544490 0.411000 -0.583968
O47   O     O_R   0.506940 0.044490 0.589000 -0.583963
O48   O     O_R   0.493060 0.044490 0.411000 -0.584074
Cl1   Cl    Cl    0.481176 0.863370 0.593958 -0.576832
Cl2   Cl    Cl    0.518622 0.863296 0.406539 -0.577553
Cl3   Cl    Cl    0.981175 0.363376 0.593966 -0.576909
Cl4   Cl    Cl    0.018578 0.363236 0.406694 -0.577812

loop_
_geom_bond_atom_site_label_1
_geom_bond_atom_site_label_2
_ccdc_geom_bond_type
Cu8   O44   S    
C71   C75   D    
C55   C56   A    
C48   O24   A    
C11   H39   S    
C46   O26   A    
Cu3   O23   S    
C42   H6    S    
C45   O25   A    
C9    H37   S    
C18   C26   S    
C87   O7    A    
C57   C66   A    
C72   C76   D    
C93   O13   A    
C40   C99   S    
C71   C79   S    
Cu7   O27   S    
C12   H40   S    
C51   C55   A    
C53   C54   A    
C13   H41   S    
Cu10  O48   S    
C50   C54   A    
C21   C93   S    
C37   C41   A    
C64   C68   A    
C92   O32   A    
C35   C59   A    
C56   C60   A    
Cu2   O2    S    
C90   O30   A    
C55   C59   A    
C24   C96   S    
C79   H27   S    
C59   C68   A    
C116  C120  A    
C96   O16   A    
C48   C107  S    
C70   C78   S    
C68   H16   S    
C95   O11   A    
C15   C16   A    
C88   O48   A    
C46   C105  S    
Cu5   O25   S    
C74   H22   S    
C33   H57   S    
C41   C49   A    
C103  H3    S    
Cu12  O46   S    
C106  C110  A    
Cu1   Cu5   S    
C98   O38   A    
C52   C56   A    
C69   C77   S    
C78   H26   S    
C97   O37   A    
C63   H11   S    
Cu4   O32   S    
C60   C67   A    
C23   C95   S    
C70   H18   S    
C46   O22   A    
C47   O23   A    
Cu3   O39   S    
C24   H48   S    
C45   O21   A    
C43   H7    S    
C94   O10   A    
Cu11  O11   S    
C9    C10   A    
Cu8   O28   S    
C23   H47   S    
Cu10  O10   S    
C22   H46   S    
Cu4   Cu8   S    
C82   H30   S    
Cu9   O9    S    
C35   H59   S    
C18   Cl2   S    
C21   H45   S    
C17   Cl1   S    
C44   H8    S    
C34   C38   A    
C13   C14   A    
Cu9   O47   S    
Cu7   O35   S    
C22   C94   S    
Cu3   O3    S    
Cu6   O34   S    
C81   H29   S    
C62   H10   S    
C38   C97   S    
Cu5   O33   S    
Cu11  O16   S    
C28   C32   D    
Cu1   O1    S    
C37   C98   S    
C95   O15   A    
C25   H49   S    
C96   O12   A    
C63   C67   A    
C7    C103  A    
C25   C29   D    
Cu2   O38   S    
C34   H58   S    
C71   H19   S    
Cu12  O12   S    
C101  C105  A    
C2    O18   A    
C62   C66   A    
C1    O17   A    
C80   C84   D    
C7    C119  A    
C36   C40   A    
Cu11  O6    S    
C87   O47   A    
C12   C116  A    
Cu1   O37   S    
C10   C114  A    
C52   C64   A    
Cu5   O17   S    
C19   C23   D    
C39   C43   A    
C20   C28   S    
C3    O19   A    
C72   H20   S    
C27   C31   D    
C76   H24   S    
C3    O3    A    
Cu2   O22   S    
C5    C117  A    
C2    O2    A    
Cu1   O21   S    
Cu2   Cu6   S    
C35   C39   A    
C17   C21   D    
C102  H2    S    
Cu5   O41   S    
C70   C74   D    
C61   C65   A    
C11   C115  A    
C99   O43   A    
C78   C82   D    
C58   C65   A    
Cu3   Cu7   S    
C98   O42   A    
C77   C81   D    
Cu8   O36   S    
C97   O41   A    
C101  H1    S    
Cu4   O4    S    
C105  C109  A    
C1    C29   S    
C51   C63   A    
C33   C57   A    
C1    O1    A    
Cu4   O40   S    
C119  C120  A    
C69   C73   D    
C109  C113  A    
C8    C104  A    
C76   C87   S    
C77   H25   S    
C5    C14   A    
C114  C118  A    
C109  H33   S    
C86   O6    A    
C113  C117  A    
C26   H50   S    
C111  C115  A    
C61   H9    S    
C7    C16   A    
C42   C50   A    
C26   C30   D    
C8    C15   A    
C115  C119  A    
Cu6   O18   S    
C50   C62   A    
Cu6   O26   S    
C100  O44   A    
C111  H35   S    
C65   H13   S    
Cu10  O7    S    
C30   H54   S    
C110  C114  A    
C104  C108  A    
C19   C27   S    
C45   C106  S    
C8    C120  A    
C34   C58   A    
Cu9   Cu10  S    
Cu4   O24   S    
Cu7   O19   S    
C41   H5    S    
C4    O4    A    
C83   H31   S    
C53   C57   A    
C104  H4    S    
C91   O35   A    
C36   H60   S    
C107  C111  A    
C90   O34   A    
C89   O33   A    
C17   C25   S    
C36   C60   A    
C84   H32   S    
C44   C52   A    
C99   O39   A    
C11   C12   A    
C112  C116  A    
C75   H23   S    
C38   C42   A    
C19   Cl3   S    
C94   O14   A    
C10   H38   S    
C83   C91   S    
Cu7   O43   S    
Cu3   O31   S    
C82   C90   S    
C5    C101  A    
C15   H43   S    
C2    C30   S    
C69   H17   S    
C88   O8    A    
C18   C22   D    
C28   H52   S    
C81   C89   S    
C72   C80   S    
Cu10  O13   S    
C117  C118  A    
Cu8   O20   S    
C3    C31   S    
C89   O29   A    
Cu9   O14   S    
C110  H34   S    
C49   C61   A    
C43   C51   A    
C39   C100  S    
C47   O27   A    
C93   O9    A    
C49   C53   A    
C4    O20   A    
Cu11  O45   S    
C32   H56   S    
Cu12  O5    S    
C86   O46   A    
C29   H53   S    
C102  C106  A    
C85   O45   A    
C6    C102  A    
C74   C85   S    
C20   Cl4   S    
Cu11  Cu12  S    
Cu6   O42   S    
C33   C37   A    
C9    C113  A    
C66   H14   S    
Cu9   O8    S    
C80   H28   S    
C16   H44   S    
C4    C32   S    
C79   C83   D    
C108  C112  A    
C75   C88   S    
C40   C44   A    
C54   C58   A    
C92   O36   A    
Cu12  O15   S    
C14   H42   S    
C47   C108  S    
Cu2   O30   S    
C67   H15   S    
C73   H21   S    
C27   H51   S    
Cu1   O29   S    
C85   O5    A    
C100  O40   A    
C103  C107  A    
C73   C86   S    
C84   C92   S    
C64   H12   S    
C31   H55   S    
C91   O31   A    
C20   C24   D    
C48   O28   A    
C6    C118  A    
C6    C13   A    
C112  H36   S    
