data_mof_unit_15269.cif
_audit_creation_date              2012-12-10T19:16:25-0500
_audit_creation_method            fapswitch 2.2
_symmetry_space_group_name_H-M    P1
_symmetry_Int_Tables_number       1
_space_group_crystal_system       triclinic
_cell_length_a                    10.622006
_cell_length_b                    9.680785
_cell_length_c                    27.708292
_cell_angle_alpha                 89.621237
_cell_angle_beta                  90.042526
_cell_angle_gamma                 89.992535
_cell_volume                      2849.16276466

loop_
_atom_site_label
_atom_site_type_symbol
_atom_type_description
_atom_site_fract_x
_atom_site_fract_y
_atom_site_fract_z
_atom_type_partial_charge
C1    C     C_R   0.257570 0.500287 0.499930 0.847102
C2    C     C_R   0.495875 0.383497 0.276790 0.710778
C3    C     C_R   0.494466 0.511034 0.252741 0.182963
C4    C     C_R   0.493557 0.532653 0.101712 -0.067750
C5    C     C_R   0.377742 0.526110 0.126889 -0.141472
C6    C     C_R   0.263628 0.534765 0.100450 -0.120519
C7    C     C_R   0.607851 0.538752 0.127587 -0.002677
C8    C     C_R   0.498330 0.503190 0.353203 -0.138319
C9    C     C_R   0.501838 0.498484 0.646762 -0.045380
C10   C     C_R   0.387016 0.491936 0.974501 0.071034
C11   C     C_R   0.612739 0.550469 0.974792 0.045660
C12   C     C_R   0.499864 0.500586 0.405902 0.916848
C13   C     C_R   0.501031 0.517150 0.949430 0.065869
C14   C     C_R   0.283228 0.439709 0.948483 -0.124495
C15   C     C_R   0.286893 0.428388 0.898608 -0.164628
C16   C     C_R   0.395280 0.465766 0.873185 -0.021097
C17   C     C_R   0.503364 0.508291 0.898521 -0.055848
C18   C     C_R   0.613734 0.541874 0.872910 -0.021909
C19   C     C_R   0.612948 0.535626 0.822502 0.505346
C20   C     C_R   0.398824 0.460472 0.822792 0.512724
C21   C     C_R   0.502823 0.371785 0.722339 -0.096350
C22   C     C_R   0.500913 0.372472 0.672195 -0.227281
C23   C     C_R   0.742661 0.500276 0.499911 0.847131
C24   C     C_R   0.504871 0.623546 0.672103 -0.226901
C25   C     C_R   0.506863 0.622464 0.722208 -0.101049
C26   C     C_R   0.505796 0.496731 0.747298 0.319124
C27   C     C_R   0.381829 0.514663 0.024875 -0.071335
C28   C     C_R   0.495751 0.531545 0.050685 0.014681
C29   C     C_R   0.612156 0.545913 0.025852 0.076820
C30   C     C_R   0.266569 0.526991 0.050064 0.498757
C31   C     C_R   0.722080 0.549279 0.102947 -0.114214
C32   C     C_R   0.721461 0.586128 0.948061 -0.207075
C33   C     C_R   0.721582 0.582205 0.897998 -0.126038
C34   C     C_R   0.500343 0.499551 0.594063 0.878895
C35   C     C_R   0.724451 0.553153 0.053003 -0.203170
C36   C     C_3   0.071536 0.652279 0.499262 -0.397230
C37   C     C_3   0.072435 0.426898 0.545842 -0.397705
C38   C     C_3   0.928658 0.652272 0.499262 -0.397075
C39   C     C_3   0.927969 0.426878 0.545834 -0.398383
C40   C     C_3   0.072298 0.425807 0.454430 -0.394138
C41   C     C_3   0.121319 0.501276 0.499863 0.174271
C42   C     C_3   0.878913 0.501261 0.499853 0.174525
C43   C     C_3   0.927805 0.425806 0.454422 -0.394290
C44   C     C_3   0.387615 0.081876 0.473718 -0.231394
C45   C     C_3   0.387610 0.919110 0.473729 -0.233082
C46   C     C_3   0.612556 0.081817 0.474239 -0.231694
C47   C     C_3   0.612553 0.919087 0.474243 -0.233201
C48   C     C_3   0.499062 0.080374 0.548695 -0.233676
C49   C     C_3   0.499076 0.917888 0.548697 -0.230894
C50   C     C_R   0.381792 0.509901 0.177521 0.628200
C51   C     C_R   0.605548 0.532581 0.177863 0.553722
C52   C     C_R   0.494870 0.634220 0.278608 -0.176208
C53   C     C_R   0.496800 0.630576 0.328639 -0.208145
C54   C     C_R   0.497763 0.379502 0.327002 -0.312369
H1    H     H_    0.498865 0.280207 0.345252 0.177968
H2    H     H_    0.493907 0.732647 0.259802 0.180912
H3    H     H_    0.810801 0.553272 0.122209 0.194668
H4    H     H_    0.807208 0.621282 0.964791 0.164880
H5    H     H_    0.505690 0.722005 0.653310 0.149553
H6    H     H_    0.806984 0.610702 0.879035 0.196522
H7    H     H_    0.508678 0.719134 0.741645 0.138918
H8    H     H_    0.816464 0.556546 0.036663 0.166147
H9    H     H_    0.105882 0.708169 0.466547 0.172972
H10   H     H_    0.107100 0.318381 0.547204 0.172062
H11   H     H_    0.105966 0.709130 0.531519 0.171806
H12   H     H_    0.107764 0.480009 0.578701 0.166259
H13   H     H_    0.894341 0.709096 0.531525 0.171890
H14   H     H_    0.892715 0.479965 0.578692 0.166347
H15   H     H_    0.894167 0.708187 0.466554 0.173035
H16   H     H_    0.893356 0.318352 0.547185 0.171840
H17   H     H_    0.107549 0.478127 0.421182 0.170643
H18   H     H_    0.106926 0.317255 0.453881 0.172432
H19   H     H_    0.892437 0.478139 0.421173 0.170536
H20   H     H_    0.893199 0.317255 0.453867 0.172404
H21   H     H_    0.384695 0.121371 0.435941 0.153051
H22   H     H_    0.384612 0.880940 0.435965 0.150579
H23   H     H_    0.300198 0.119206 0.491425 0.145178
H24   H     H_    0.300243 0.881261 0.491482 0.144913
H25   H     H_    0.616530 0.121332 0.436480 0.152887
H26   H     H_    0.616578 0.880917 0.436495 0.150822
H27   H     H_    0.582685 0.118344 0.568847 0.146003
H28   H     H_    0.582740 0.879252 0.568852 0.146464
H29   H     H_    0.414900 0.118397 0.568462 0.146261
H30   H     H_    0.414915 0.879214 0.568481 0.146560
H31   H     H_    0.699482 0.119086 0.492354 0.145217
H32   H     H_    0.699437 0.881217 0.492394 0.145011
H33   H     H_    0.498669 0.274692 0.653439 0.149559
H34   H     H_    0.502023 0.274511 0.741862 0.139770
H35   H     H_    0.204342 0.389788 0.880087 0.197401
H36   H     H_    0.199625 0.401388 0.966141 0.210652
H37   H     H_    0.497095 0.727434 0.347991 0.172134
N1    N     N_R   0.493985 0.516637 0.201407 -0.342841
N2    N     N_R   0.506214 0.496449 0.798709 -0.358894
N3    N     N_3   0.499750 0.138610 0.498940 -0.035074
N4    N     N_3   0.499750 0.861390 0.498940 -0.034701
O1    O     O_R   0.314910 0.616040 0.499990 -0.635350
O2    O     O_R   0.314910 0.383960 0.499990 -0.634637
O3    O     O_R   0.500140 0.616020 0.428740 -0.628140
O4    O     O_R   0.500140 0.383980 0.428740 -0.626750
O5    O     O_R   0.685320 0.616040 0.499970 -0.635430
O6    O     O_R   0.685320 0.383960 0.499970 -0.634863
O7    O     O_R   0.500090 0.616050 0.571230 -0.630341
O8    O     O_R   0.500090 0.383950 0.571230 -0.629544
O9    O     O_2   0.276103 0.483196 0.202843 -0.500406
O10   O     O_2   0.295490 0.421709 0.797930 -0.553684
O11   O     O_2   0.713907 0.540626 0.203211 -0.530725
O12   O     O_2   0.717787 0.568073 0.797359 -0.554187
Zn1   Zn    Zn3+2 0.500150 0.654960 0.499980 0.906656
Zn2   Zn    Zn3+2 0.500150 0.345040 0.499980 0.907550
F1    F     F_    0.495871 0.263975 0.251493 -0.647917
C55   C     C_2   0.139536 0.562628 0.122978 0.614704
H38   H     H_    0.055892 0.511151 0.109541 0.063051
O13   O     O_2   0.128264 0.650063 0.154241 -0.512567
F2    F     F_    0.156938 0.549356 0.025861 -0.707624

loop_
_geom_bond_atom_site_label_1
_geom_bond_atom_site_label_2
_ccdc_geom_bond_type
C10   C27   A    
C43   H19   S    
C20   N2    A    
C50   O9    S    
C40   H17   S    
C39   H14   S    
C55   H38   S    
C32   H4    S    
C21   C26   A    
C23   O6    A    
C52   C53   A    
C28   C29   A    
C34   O7    A    
C23   C42   S    
C48   N3    S    
C45   H22   S    
C49   H30   S    
C44   H23   S    
C38   C42   S    
C51   O11   S    
C5    C6    A    
C9    C22   A    
O6    Zn2   S    
C15   C16   A    
O4    Zn2   S    
O3    Zn1   S    
C48   H27   S    
C18   C19   A    
C6    C55   S    
C14   H36   S    
C12   O4    A    
C54   H1    S    
C40   C43   S    
C16   C17   A    
C53   H37   S    
O7    Zn1   S    
C45   H24   S    
C36   H9    S    
C12   O3    A    
C19   N2    A    
C8    C12   S    
C46   H31   S    
C43   H20   S    
C23   O5    A    
O1    Zn1   S    
C38   H15   S    
C21   C22   A    
C27   C30   A    
C36   C41   S    
C47   H26   S    
C4    C7    A    
C4    C28   A    
C39   C42   S    
O5    Zn1   S    
C7    C31   A    
C47   H32   S    
C24   C25   A    
C10   C14   A    
C1    O2    A    
C36   H11   S    
C25   C26   A    
C3    N1    S    
C49   H28   S    
C44   H21   S    
C51   N1    A    
C15   H35   S    
O2    Zn2   S    
C46   N3    S    
C16   C20   A    
C37   H12   S    
C17   C18   A    
C55   O13   D    
C25   H7    S    
C22   H33   S    
C49   N4    S    
C1    C41   S    
C48   C49   S    
C6    C30   A    
C11   C32   A    
C33   H6    S    
C2    C54   A    
C9    C34   S    
C31   C35   A    
C5    C50   A    
C42   C43   S    
C8    C54   A    
C45   N4    S    
C37   H10   S    
C44   C45   S    
C20   O10   S    
C30   F2    S    
C50   N1    A    
C46   C47   S    
C2    F1    S    
C40   H18   S    
C4    C5    A    
C10   C13   A    
C8    C53   A    
C3    C52   A    
C9    C24   A    
C29   C35   A    
N3    Zn2   S    
C34   O8    A    
C48   H29   S    
C13   C17   A    
O8    Zn2   S    
C32   C33   A    
C31   H3    S    
C36   C38   S    
C2    C3    A    
C7    C51   A    
C37   C39   S    
C11   C13   A    
C46   H25   S    
C26   N2    S    
C24   H5    S    
C39   H16   S    
C35   H8    S    
C37   C41   S    
C18   C33   A    
C21   H34   S    
C44   N3    S    
N4    Zn1   S    
C38   H13   S    
C11   C29   A    
C27   C28   A    
C47   N4    S    
C14   C15   A    
C40   C41   S    
C1    O1    A    
C52   H2    S    
C19   O12   S    
