data_mof_unit_26022.cif
_audit_creation_date              2012-12-11T14:41:13-0500
_audit_creation_method            fapswitch 2.2
_symmetry_space_group_name_H-M    P1
_symmetry_Int_Tables_number       1
_space_group_crystal_system       triclinic
_cell_length_a                    24.663441
_cell_length_b                    17.506389
_cell_length_c                    15.604337
_cell_angle_alpha                 89.802868
_cell_angle_beta                  129.55768
_cell_angle_gamma                 89.74244
_cell_volume                      5194.23913934

loop_
_atom_site_label
_atom_site_type_symbol
_atom_type_description
_atom_site_fract_x
_atom_site_fract_y
_atom_site_fract_z
_atom_type_partial_charge
C1    C     C_R   0.336493 0.384927 0.204800 -0.082364
C2    C     C_R   0.333678 0.605064 0.195136 -0.055495
C3    C     C_R   0.836493 0.884927 0.204800 -0.082364
C4    C     C_R   0.833678 0.105064 0.195136 -0.055495
C5    C     C_R   0.621563 0.320990 0.794628 -0.001455
C6    C     C_R   0.633593 0.659551 0.826814 0.038101
C7    C     C_R   0.121563 0.820990 0.794628 -0.001455
C8    C     C_R   0.133593 0.159551 0.826814 0.038101
C9    C     C_R   0.685820 0.385603 0.502456 0.134077
C10   C     C_R   0.657772 0.666573 0.497442 0.153505
C11   C     C_R   0.185820 0.885603 0.502456 0.134077
C12   C     C_R   0.157772 0.166573 0.497442 0.153505
C13   C     C_R   0.312529 0.395457 0.494030 0.027042
C14   C     C_R   0.356686 0.682827 0.495718 -0.015465
C15   C     C_R   0.812529 0.895457 0.494030 0.027042
C16   C     C_R   0.856686 0.182828 0.495718 -0.015465
C17   C     C_3   0.311581 0.261777 0.537511 -0.438748
C18   C     C_3   0.361850 0.793037 0.604037 -0.478507
C19   C     C_3   0.811581 0.761777 0.537511 -0.438747
C20   C     C_3   0.861850 0.293037 0.604037 -0.478507
C21   C     C_3   0.767603 0.695424 0.526737 0.315960
C22   C     C_3   0.816106 0.359731 0.592628 0.350443
C23   C     C_3   0.267603 0.195424 0.526736 0.315960
C24   C     C_3   0.316107 0.859731 0.592628 0.350443
C25   C     C_3   0.249997 0.363127 0.566647 -0.442933
C26   C     C_3   0.261896 0.697911 0.501223 -0.444092
C27   C     C_3   0.749996 0.863127 0.566647 -0.442933
C28   C     C_3   0.761896 0.197911 0.501223 -0.444093
C29   C     C_3   0.198328 0.327011 0.375017 -0.409087
C30   C     C_3   0.278816 0.798173 0.398351 -0.452548
C31   C     C_3   0.698328 0.827010 0.375017 -0.409087
C32   C     C_3   0.778816 0.298173 0.398351 -0.452548
C33   C     C_3   0.268554 0.338311 0.493468 0.009294
C34   C     C_3   0.315719 0.741956 0.499069 0.080685
C35   C     C_3   0.768554 0.838311 0.493468 0.009293
C36   C     C_3   0.815719 0.241956 0.499069 0.080685
C37   C     C_3   0.697798 0.728724 0.495616 -0.270882
C38   C     C_3   0.735251 0.336490 0.503163 -0.295898
C39   C     C_3   0.197798 0.228724 0.495616 -0.270883
C40   C     C_3   0.235251 0.836489 0.503163 -0.295898
C41   C     C_3   0.716465 0.795217 0.581213 0.803381
C42   C     C_3   0.725922 0.251716 0.528281 0.793949
C43   C     C_3   0.216465 0.295217 0.581213 0.803380
C44   C     C_3   0.225922 0.751717 0.528281 0.793949
C45   C     C_R   0.651887 0.362073 0.758964 -0.144549
C46   C     C_R   0.659391 0.626193 0.779049 -0.153782
C47   C     C_R   0.151887 0.862073 0.758964 -0.144549
C48   C     C_R   0.159391 0.126192 0.779049 -0.153782
C49   C     C_3   0.654930 0.763506 0.372567 0.671012
C50   C     C_3   0.719202 0.340445 0.386024 0.693010
C51   C     C_3   0.154929 0.263506 0.372567 0.671012
C52   C     C_3   0.219202 0.840445 0.386024 0.693010
C53   C     C_2   0.648416 0.249264 0.857663 -0.089813
C54   C     C_2   0.663445 0.726108 0.897879 -0.127187
C55   C     C_2   0.148416 0.749264 0.857663 -0.089813
C56   C     C_2   0.163445 0.226108 0.897879 -0.127187
C57   C     C_2   0.697993 0.208622 0.867020 -0.078665
C58   C     C_2   0.702458 0.773879 0.890583 -0.077092
C59   C     C_2   0.197993 0.708622 0.867020 -0.078665
C60   C     C_2   0.202458 0.273879 0.890583 -0.077092
C61   C     C_2   0.308728 0.651782 0.018328 -0.136832
C62   C     C_2   0.312658 0.330618 0.034025 -0.129405
C63   C     C_2   0.808728 0.151782 0.018328 -0.136832
C64   C     C_2   0.812658 0.830618 0.034025 -0.129406
C65   C     C_2   0.238897 0.653369 0.957387 -0.097644
C66   C     C_2   0.243103 0.330777 0.975123 -0.098523
C67   C     C_2   0.738897 0.153369 0.957387 -0.097644
C68   C     C_2   0.743103 0.830777 0.975123 -0.098523
C69   C     C_R   0.616958 0.401511 0.409606 0.025240
C70   C     C_R   0.597430 0.632621 0.405667 -0.010799
C71   C     C_R   0.116958 0.901511 0.409606 0.025240
C72   C     C_R   0.097430 0.132622 0.405667 -0.010799
C73   C     C_R   0.381322 0.408167 0.587359 -0.136719
C74   C     C_R   0.410471 0.641975 0.589493 -0.193652
C75   C     C_R   0.881322 0.908167 0.587359 -0.136718
C76   C     C_R   0.910471 0.141975 0.589493 -0.193652
C77   C     C_R   0.689743 0.399215 0.593065 -0.001026
C78   C     C_R   0.676275 0.628631 0.591260 0.001094
C79   C     C_R   0.189743 0.899215 0.593065 -0.001026
C80   C     C_R   0.176275 0.128632 0.591260 0.001094
C81   C     C_R   0.310041 0.406917 0.404731 0.406261
C82   C     C_R   0.331483 0.637409 0.404585 0.458257
C83   C     C_R   0.810041 0.906917 0.404731 0.406262
C84   C     C_R   0.831483 0.137409 0.404585 0.458257
C85   C     C_R   0.563416 0.362188 0.764761 0.486241
C86   C     C_R   0.572233 0.622598 0.787664 0.430449
C87   C     C_R   0.063416 0.862188 0.764761 0.486241
C88   C     C_R   0.072233 0.122598 0.787664 0.430448
C89   C     C_R   0.426883 0.385426 0.203216 -0.050463
C90   C     C_R   0.424920 0.608446 0.197945 -0.071665
C91   C     C_R   0.926883 0.885427 0.203216 -0.050462
C92   C     C_R   0.924920 0.108446 0.197945 -0.071665
C93   C     C_R   0.357881 0.362946 0.145038 0.083631
C94   C     C_R   0.354335 0.625242 0.133946 0.087242
C95   C     C_R   0.857881 0.862946 0.145038 0.083631
C96   C     C_R   0.854334 0.125242 0.133946 0.087242
H1    H     H_    0.631404 0.232699 0.904423 0.202522
H2    H     H_    0.653910 0.736150 0.956037 0.198217
H3    H     H_    0.131404 0.732699 0.904423 0.202522
H4    H     H_    0.153910 0.236150 0.956037 0.198217
N1    N     N_R   0.389430 0.421450 0.294590 -0.051458
N2    N     N_R   0.389430 0.578550 0.294590 -0.058811
N3    N     N_R   0.889430 0.921450 0.294590 -0.051458
N4    N     N_R   0.889430 0.078550 0.294590 -0.058811
N5    N     N_R   0.612200 0.424040 0.705410 -0.075238
N6    N     N_R   0.612200 0.575960 0.705410 -0.072354
N7    N     N_R   0.112200 0.924040 0.705410 -0.075238
N8    N     N_R   0.112200 0.075960 0.705410 -0.072354
N9    N     N_R   0.581780 0.422390 0.443390 -0.066526
N10   N     N_R   0.581780 0.577610 0.443390 -0.078221
N11   N     N_R   0.081780 0.922390 0.443390 -0.066526
N12   N     N_R   0.081780 0.077610 0.443390 -0.078221
N13   N     N_R   0.419850 0.423100 0.556610 -0.072479
N14   N     N_R   0.419850 0.576900 0.556610 -0.066254
N15   N     N_R   0.919850 0.923100 0.556610 -0.072479
N16   N     N_R   0.919850 0.076900 0.556610 -0.066254
N17   N     N_R   0.627410 0.423100 0.556610 -0.069905
N18   N     N_R   0.627410 0.576900 0.556610 -0.074036
N19   N     N_R   0.127410 0.923100 0.556610 -0.069905
N20   N     N_R   0.127410 0.076900 0.556610 -0.074036
N21   N     N_R   0.374220 0.422390 0.443390 -0.089058
N22   N     N_R   0.374220 0.577610 0.443390 -0.077442
N23   N     N_R   0.874220 0.922390 0.443390 -0.089058
N24   N     N_R   0.874220 0.077610 0.443390 -0.077442
N25   N     N_R   0.555000 0.424040 0.705410 -0.090042
N26   N     N_R   0.555000 0.575960 0.705410 -0.089762
N27   N     N_R   0.055000 0.924040 0.705410 -0.090042
N28   N     N_R   0.055000 0.075960 0.705410 -0.089762
N29   N     N_R   0.446630 0.421450 0.294590 -0.062343
N30   N     N_R   0.446630 0.578550 0.294590 -0.066064
N31   N     N_R   0.946630 0.921450 0.294590 -0.062343
N32   N     N_R   0.946630 0.078550 0.294590 -0.066065
Ni1   Ni    Ni4+2 0.382890 0.500000 0.370170 0.298240
Ni2   Ni    Ni4+2 0.882890 0.000000 0.370170 0.298240
Ni3   Ni    Ni4+2 0.618740 0.500000 0.629830 0.253450
Ni4   Ni    Ni4+2 0.118740 0.000000 0.629830 0.253450
Ni5   Ni    Ni4+2 0.514090 0.500000 0.370170 0.244365
Ni6   Ni    Ni4+2 0.014090 0.000000 0.370170 0.244365
Ni7   Ni    Ni4+2 0.487550 0.500000 0.629830 0.299004
Ni8   Ni    Ni4+2 0.987550 0.000000 0.629830 0.299004
H5    H     H_    0.284488 0.381686 0.179217 0.164252
H6    H     H_    0.280355 0.596465 0.161410 0.181554
H7    H     H_    0.784488 0.881686 0.179217 0.164252
H8    H     H_    0.780355 0.096465 0.161410 0.181554
H9    H     H_    0.330509 0.247813 0.490835 0.180301
H10   H     H_    0.407495 0.816094 0.613816 0.197493
H11   H     H_    0.830510 0.747813 0.490836 0.180301
H12   H     H_    0.907495 0.316094 0.613816 0.197493
H13   H     H_    0.755093 0.657901 0.459271 0.177214
H14   H     H_    0.825323 0.410305 0.560350 0.163198
H15   H     H_    0.255092 0.157901 0.459271 0.177214
H16   H     H_    0.325323 0.910305 0.560350 0.163198
Cl1   Cl    Cl    0.320934 0.133036 0.645830 -0.501982
Cl2   Cl    Cl    0.352470 0.889895 0.729437 -0.504727
Cl3   Cl    Cl    0.820934 0.633036 0.645831 -0.501983
Cl4   Cl    Cl    0.852470 0.389895 0.729437 -0.504728
H17   H     H_    0.297512 0.384189 0.648167 0.218984
H18   H     H_    0.287697 0.649764 0.562327 0.212589
H19   H     H_    0.797511 0.884189 0.648166 0.218984
H20   H     H_    0.787697 0.149764 0.562327 0.212589
Cl5   Cl    Cl    0.778543 0.767794 0.725556 -0.606493
Cl6   Cl    Cl    0.764188 0.236653 0.671253 -0.603293
Cl7   Cl    Cl    0.278543 0.267794 0.725557 -0.606493
Cl8   Cl    Cl    0.264188 0.736653 0.671252 -0.603294
H21   H     H_    0.668184 0.881774 0.343502 0.264646
H22   H     H_    0.758978 0.272890 0.318826 0.262247
H23   H     H_    0.168184 0.381775 0.343503 0.264646
H24   H     H_    0.258978 0.772890 0.318826 0.262247
H25   H     H_    0.209790 0.311750 0.318969 0.233709
H26   H     H_    0.318511 0.839455 0.414196 0.194815
H27   H     H_    0.709791 0.811750 0.318970 0.233709
H28   H     H_    0.818511 0.339455 0.414196 0.194815
Cl9   Cl    Cl    0.638222 0.695591 0.270154 -0.576493
Cl10  Cl    Cl    0.715515 0.437492 0.343571 -0.563674
Cl11  Cl    Cl    0.138221 0.195591 0.270154 -0.576493
Cl12  Cl    Cl    0.215515 0.937492 0.343571 -0.563674
Cl13  Cl    Cl    0.570016 0.802251 0.315559 -0.499814
Cl14  Cl    Cl    0.638270 0.296474 0.270830 -0.484332
Cl15  Cl    Cl    0.070016 0.302251 0.315560 -0.499813
Cl16  Cl    Cl    0.138270 0.796474 0.270830 -0.484332
H29   H     H_    0.213150 0.412849 0.527046 0.226270
H30   H     H_    0.221898 0.671152 0.419295 0.269954
H31   H     H_    0.713149 0.912848 0.527045 0.226270
H32   H     H_    0.721898 0.171152 0.419295 0.269954
H33   H     H_    0.699501 0.348448 0.772545 0.158092
H34   H     H_    0.710261 0.635120 0.801684 0.153852
H35   H     H_    0.199501 0.848448 0.772544 0.158092
H36   H     H_    0.210261 0.135120 0.801684 0.153852
Cl17  Cl    Cl    0.641124 0.827945 0.564623 -0.540256
Cl18  Cl    Cl    0.635994 0.221977 0.451483 -0.510567
Cl19  Cl    Cl    0.141125 0.327945 0.564624 -0.540256
Cl20  Cl    Cl    0.135994 0.721977 0.451483 -0.510568
H37   H     H_    0.213616 0.626380 0.986310 0.157058
H38   H     H_    0.217930 0.361157 0.002036 0.154902
H39   H     H_    0.713616 0.126380 0.986310 0.157058
H40   H     H_    0.717930 0.861157 0.002036 0.154902
H41   H     H_    0.716320 0.224641 0.822079 0.189712
H42   H     H_    0.712360 0.764410 0.832874 0.205072
H43   H     H_    0.216320 0.724641 0.822079 0.189712
H44   H     H_    0.212360 0.264410 0.832874 0.205072
H45   H     H_    0.333174 0.679732 0.988322 0.186948
H46   H     H_    0.336784 0.299267 0.005749 0.193748
H47   H     H_    0.833174 0.179732 0.988322 0.186948
H48   H     H_    0.836784 0.799267 0.005749 0.193749
H49   H     H_    0.594910 0.405934 0.324063 0.178934
H50   H     H_    0.566472 0.644657 0.318763 0.185714
H51   H     H_    0.094910 0.905934 0.324063 0.178934
H52   H     H_    0.066472 0.144657 0.318763 0.185714
H53   H     H_    0.398962 0.414780 0.670270 0.206012
H54   H     H_    0.435320 0.656566 0.673465 0.197457
H55   H     H_    0.898962 0.914780 0.670270 0.206012
H56   H     H_    0.935320 0.156566 0.673465 0.197457
H57   H     H_    0.734259 0.395986 0.679774 0.190690
H58   H     H_    0.723065 0.633964 0.676070 0.192131
H59   H     H_    0.234259 0.895986 0.679774 0.190690
H60   H     H_    0.223065 0.133965 0.676070 0.192131
Cl21  Cl    Cl    0.236868 0.445105 0.275989 -0.609503
Cl22  Cl    Cl    0.244722 0.633548 0.277823 -0.579510
Cl23  Cl    Cl    0.736868 0.945105 0.275989 -0.609503
Cl24  Cl    Cl    0.744722 0.133548 0.277823 -0.579510
Cl25  Cl    Cl    0.517817 0.342739 0.813967 -0.579392
Cl26  Cl    Cl    0.542963 0.612276 0.864565 -0.561140
Cl27  Cl    Cl    0.017817 0.842738 0.813967 -0.579392
Cl28  Cl    Cl    0.042963 0.112276 0.864565 -0.561140
H61   H     H_    0.456475 0.384758 0.173792 0.146153
H62   H     H_    0.454413 0.606109 0.168444 0.142158
H63   H     H_    0.956475 0.884758 0.173792 0.146153
H64   H     H_    0.954413 0.106109 0.168444 0.142158
H65   H     H_    0.358952 0.268496 0.626281 0.273457
H66   H     H_    0.383076 0.758928 0.679887 0.262467
H67   H     H_    0.858952 0.768496 0.626282 0.273457
H68   H     H_    0.883076 0.258928 0.679887 0.262467

loop_
_geom_bond_atom_site_label_1
_geom_bond_atom_site_label_2
_ccdc_geom_bond_type
C15   C75   A    
C80   N20   A    
C24   Cl2   S    
C20   H68   S    
C55   C59   D    
C86   N26   A    
N1    N29   A    
C49   Cl9   S    
C85   N25   A    
C16   C84   A    
C45   H33   S    
C25   C43   S    
C72   N12   A    
C10   C78   A    
C77   H57   S    
C72   H52   S    
C22   Cl4   S    
N25   Ni7   S    
C3    N3    A    
C75   H55   S    
C4    H8    S    
C17   C23   S    
N4    Ni2   S    
C74   H54   S    
C10   C37   S    
C18   C24   S    
C42   Cl6   S    
C32   C36   S    
C5    C53   S    
C19   C21   S    
N3    Ni2   S    
C6    C54   S    
C48   H36   S    
C77   N17   A    
C64   C68   D    
C54   C58   D    
C11   C71   A    
C30   H24   S    
C91   N31   A    
C2    N2    A    
C60   H44   S    
N32   Ni6   S    
C22   C38   S    
C13   C81   A    
C87   N27   A    
C92   C96   A    
C92   H64   S    
C73   N13   A    
C10   C70   A    
C71   H51   S    
N9    Ni5   S    
C42   Cl18  S    
C62   H46   S    
C22   H14   S    
C30   C52   S    
C78   H58   S    
C24   H16   S    
C61   H45   S    
C39   C51   S    
C4    C96   A    
C69   N9    A    
C26   C34   S    
C7    C87   A    
C31   H21   S    
C29   C33   S    
C25   H29   S    
C71   N11   A    
C20   H12   S    
C26   H18   S    
C21   H13   S    
C84   Cl24  S    
C52   Cl12  S    
C65   H37   S    
N5    Ni3   S    
C67   H39   S    
C5    C85   A    
C76   H56   S    
C79   H59   S    
C64   H48   S    
C43   Cl19  S    
C90   N30   A    
C89   C93   A    
C89   H61   S    
C8    C56   S    
N13   Ni7   S    
C11   C40   S    
C17   C33   S    
C31   C49   S    
C51   Cl15  S    
C15   C35   S    
C83   N23   A    
C66   H38   S    
C74   N14   A    
C45   N5    A    
C90   C94   A    
C59   C65   S    
C49   Cl13  S    
C63   C67   D    
N26   Ni7   S    
N15   N23   A    
C32   H22   S    
C62   C66   D    
N23   Ni2   S    
C26   C44   S    
N12   Ni6   S    
C2    C94   A    
C3    H7    S    
C70   N10   A    
C18   H66   S    
C59   H43   S    
N12   N20   A    
C30   C34   S    
C61   C94   S    
C39   C43   S    
C50   Cl14  S    
C53   H1    S    
C40   C52   S    
C5    C45   A    
C63   C96   S    
C19   H11   S    
C56   C60   D    
C81   N21   A    
C92   N32   A    
C7    C47   A    
N9    N17   A    
C17   H9    S    
C8    C48   A    
C52   Cl16  S    
N22   Ni1   S    
C13   C33   S    
N7    Ni4   S    
C83   Cl23  S    
C27   C41   S    
C82   Cl22  S    
C81   Cl21  S    
N1    Ni1   S    
C88   Cl28  S    
C21   Cl3   S    
N29   Ni5   S    
C68   H40   S    
C9    C77   A    
N14   Ni7   S    
C46   H34   S    
C51   Cl11  S    
N10   N18   A    
C18   C34   S    
C32   C50   S    
C37   C49   S    
C11   C79   A    
C30   H26   S    
C7    C55   S    
C26   H30   S    
N11   N19   A    
C58   C68   S    
N6    Ni3   S    
C78   N18   A    
C20   C22   S    
C87   Cl27  S    
C1    N1    A    
C47   N7    A    
C23   Cl1   S    
C28   H20   S    
C25   H17   S    
C2    H6    S    
C31   C35   S    
C84   N24   A    
N27   Ni8   S    
C56   H4    S    
C47   H35   S    
N17   Ni3   S    
C14   C74   A    
C76   N16   A    
C80   H60   S    
C29   C51   S    
C73   H53   S    
C23   H15   S    
C58   H42   S    
C17   H65   S    
C6    C46   A    
C91   H63   S    
C16   C76   A    
C90   H62   S    
N10   Ni5   S    
N2    N30   A    
C64   C95   S    
C13   C73   A    
C79   N19   A    
C18   H10   S    
C53   C57   D    
C14   C34   S    
C15   C83   A    
C63   H47   S    
C57   H41   S    
C38   C42   S    
C38   C50   S    
C32   H28   S    
C41   Cl17  S    
C70   H50   S    
N13   N21   A    
C44   Cl8   S    
N6    N26   A    
C69   H49   S    
N19   Ni4   S    
C6    C86   A    
N8    Ni4   S    
N5    N25   A    
C50   Cl10  S    
C27   C35   S    
C9    C69   A    
C12   C39   S    
N3    N31   A    
C28   H32   S    
N2    Ni1   S    
N7    N27   A    
C88   N28   A    
N31   Ni6   S    
C19   C35   S    
C44   Cl20  S    
C57   C67   S    
C29   H23   S    
C41   Cl5   S    
C48   N8    A    
C31   H27   S    
C19   H67   S    
C23   C39   S    
C12   C80   A    
N14   N22   A    
C28   C42   S    
C9    C38   S    
C24   C40   S    
C29   H25   S    
C4    N4    A    
C75   N15   A    
C37   C41   S    
C8    C88   A    
C12   C72   A    
C27   H31   S    
C1    H5    S    
C46   N6    A    
C27   H19   S    
C60   C66   S    
N24   Ni2   S    
C20   C36   S    
C61   C65   D    
C40   C44   S    
C21   C37   S    
N15   Ni8   S    
C28   C36   S    
C91   C95   A    
C1    C93   A    
N4    N32   A    
C62   C93   S    
C55   H3    S    
C14   C82   A    
C54   H2    S    
N8    N28   A    
C3    C95   A    
C86   Cl26  S    
N21   Ni1   S    
N30   Ni5   S    
N16   N24   A    
C89   N29   A    
C85   Cl25  S    
N20   Ni4   S    
C82   N22   A    
C16   C36   S    
N18   Ni3   S    
N11   Ni6   S    
C25   C33   S    
N28   Ni8   S    
N16   Ni8   S    
C43   Cl7   S    
