data_mof_unit_10020.cif
_audit_creation_date              2012-12-10T17:50:45-0500
_audit_creation_method            fapswitch 2.2
_symmetry_space_group_name_H-M    P1
_symmetry_Int_Tables_number       1
_space_group_crystal_system       triclinic
_cell_length_a                    14.705112
_cell_length_b                    14.598111
_cell_length_c                    15.853601
_cell_angle_alpha                 77.002228
_cell_angle_beta                  102.520949
_cell_angle_gamma                 114.535516
_cell_volume                      2987.24651842

loop_
_atom_site_label
_atom_site_type_symbol
_atom_type_description
_atom_site_fract_x
_atom_site_fract_y
_atom_site_fract_z
_atom_type_partial_charge
C1    C     C_R   0.880811 0.311834 0.511171 0.810994
C2    C     C_R   0.119189 0.688167 0.488828 0.810985
C3    C     C_R   0.778741 0.026013 0.508238 -0.225899
C4    C     C_R   0.221260 0.973994 0.491735 -0.225895
C5    C     C_R   0.848083 0.126819 0.506723 -0.017249
C6    C     C_R   0.151917 0.873188 0.493254 -0.017247
C7    C     C_R   0.711611 0.176500 0.514397 -0.255362
C8    C     C_R   0.288391 0.823498 0.485602 -0.255361
C9    C     C_R   0.639950 0.077220 0.507988 0.095680
C10   C     C_R   0.360052 0.922780 0.491999 0.095676
C11   C     C_R   0.675776 0.001165 0.507449 0.133339
C12   C     C_R   0.324226 0.998838 0.492529 0.133342
C13   C     C_R   0.534091 0.051540 0.501953 0.070707
C14   C     C_R   0.465911 0.948461 0.498032 0.070706
C15   C     C_R   0.506036 0.874359 0.501728 -0.218595
C16   C     C_R   0.493967 0.125644 0.498249 -0.218598
C17   C     C_R   0.608612 0.900730 0.505247 -0.212594
C18   C     C_R   0.391391 0.099274 0.494726 -0.212594
C19   C     C_R   0.718813 0.674215 0.360096 -0.317524
C20   C     C_R   0.281186 0.325784 0.639903 -0.317516
C21   C     C_R   0.798967 0.642294 0.380935 0.115787
C22   C     C_R   0.201033 0.357705 0.619065 0.115780
C23   C     C_R   0.999493 0.500105 0.659996 0.832617
C24   C     C_R   0.000507 0.499895 0.340004 0.832625
C25   C     C_R   0.713874 0.507603 0.486802 0.020771
C26   C     C_R   0.286126 0.492397 0.513197 0.020771
C27   C     C_R   0.628875 0.535406 0.467932 -0.021066
C28   C     C_R   0.371125 0.464593 0.532067 -0.021068
C29   C     C_R   0.633899 0.621568 0.403609 0.158341
C30   C     C_R   0.366101 0.378431 0.596390 0.158336
C31   C     C_R   0.540523 0.482265 0.510824 0.082050
C32   C     C_R   0.459476 0.517734 0.489175 0.082053
C33   C     C_R   0.469727 0.605252 0.425722 -0.240561
C34   C     C_R   0.530272 0.394746 0.574276 -0.240562
C35   C     C_R   0.554857 0.655430 0.383669 -0.204151
C36   C     C_R   0.445142 0.344568 0.616330 -0.204144
C37   C     C_3   0.014200 0.416077 0.047608 -0.292754
C38   C     C_3   0.985800 0.583921 0.952392 -0.292757
C39   C     C_3   0.923950 0.414439 0.974726 -0.304546
C40   C     C_3   0.076050 0.585559 0.025274 -0.304548
C41   C     C_1   0.998481 0.500362 0.749448 -0.154018
C42   C     C_1   0.001519 0.499638 0.250552 -0.154011
C43   C     C_3   0.086772 0.501809 0.988560 0.540818
C44   C     C_3   0.913228 0.498190 0.011440 0.540819
C45   C     C_3   0.998213 0.500206 0.916673 0.066291
C46   C     C_3   0.001787 0.499793 0.083327 0.066290
C47   C     C_1   0.998132 0.500382 0.824943 0.012636
C48   C     C_1   0.001868 0.499617 0.175057 0.012639
C49   C     C_R   0.814146 0.203166 0.511477 -0.132736
C50   C     C_R   0.185855 0.796835 0.488516 -0.132741
Cu1   Cu    Cu3+1 0.081740 0.475690 0.522610 0.976061
Cu2   Cu    Cu3+1 0.918260 0.524310 0.477390 0.976062
H1    H     H_    0.861437 0.345503 0.952544 0.151962
H2    H     H_    0.138563 0.654496 0.047456 0.151962
H3    H     H_    0.281785 0.554528 0.463309 0.117156
H4    H     H_    0.718215 0.445472 0.536691 0.117156
H5    H     H_    0.134861 0.316278 0.651750 0.131816
H6    H     H_    0.865139 0.683721 0.348250 0.131818
H7    H     H_    0.723567 0.740257 0.310760 0.145280
H8    H     H_    0.276433 0.259743 0.689239 0.145282
H9    H     H_    0.413149 0.637575 0.406979 0.127854
H10   H     H_    0.586850 0.362423 0.593019 0.127855
H11   H     H_    0.026881 0.348503 0.087777 0.159672
H12   H     H_    0.973119 0.651496 0.912223 0.159670
H13   H     H_    0.635569 0.841622 0.506285 0.155473
H14   H     H_    0.364433 0.158384 0.493680 0.155472
H15   H     H_    0.310252 0.764528 0.477911 0.148478
H16   H     H_    0.689751 0.235464 0.522105 0.148470
H17   H     H_    0.804534 0.967059 0.505845 0.156890
H18   H     H_    0.195467 0.032950 0.494117 0.156882
H19   H     H_    0.460788 0.794442 0.502483 0.142709
H20   H     H_    0.539216 0.205562 0.497486 0.142715
H21   H     H_    0.559074 0.722099 0.335194 0.145175
H22   H     H_    0.440925 0.277899 0.664804 0.145176
N1    N     N_R   0.795440 0.560790 0.443380 -0.175585
N2    N     N_R   0.204560 0.439210 0.556620 -0.175586
O1    O     O_R   0.977900 0.338120 0.529810 -0.565678
O2    O     O_R   0.022100 0.661880 0.470190 -0.565676
O3    O     O_R   0.839850 0.379180 0.491620 -0.595303
O4    O     O_R   0.160150 0.620820 0.508380 -0.595305
O5    O     O_R   0.069010 0.479460 0.640020 -0.578439
O6    O     O_R   0.930990 0.520540 0.359980 -0.578442
O7    O     O_R   0.930960 0.520530 0.601820 -0.561809
O8    O     O_R   0.069040 0.479470 0.398180 -0.561803
O9    O     O_3   0.822973 0.496282 0.030374 -0.570276
C51   C     C_3   0.754500 0.495049 0.952673 0.064842
H23   H     H_    0.735399 0.425988 0.922911 0.138395
H24   H     H_    0.785978 0.564492 0.904563 0.143695
C52   C     C_3   0.657502 0.493069 0.973670 -0.758520
H25   H     H_    0.673645 0.561771 0.002562 0.250319
H26   H     H_    0.602904 0.492066 0.912930 0.199061
H27   H     H_    0.623300 0.423882 0.020841 0.250641
O10   O     O_3   0.177027 0.503717 0.969627 -0.570276
C53   C     C_3   0.245501 0.504952 0.047328 0.064846
H28   H     H_    0.214026 0.435506 0.095436 0.143697
H29   H     H_    0.264597 0.574010 0.077092 0.138393
C54   C     C_3   0.342503 0.506941 0.026330 -0.758519
H30   H     H_    0.376700 0.576128 0.979158 0.250642
H31   H     H_    0.397103 0.507951 0.087070 0.199060
H32   H     H_    0.326366 0.438239 0.997440 0.250317
C55   C     C_2   0.047071 0.851804 0.503983 0.859752
O11   O     O_2   0.005572 0.784117 0.560735 -0.577245
O12   O     O_R   0.997582 0.912878 0.451847 -0.760191
H33   H     H_    0.926816 0.891765 0.465676 0.334844
C56   C     C_2   0.952926 0.148211 0.495977 0.859742
O13   O     O_2   0.994417 0.215910 0.439230 -0.577253
O14   O     O_R   0.002420 0.087130 0.548092 -0.760186
H34   H     H_    0.073181 0.108248 0.534250 0.334847

loop_
_geom_bond_atom_site_label_1
_geom_bond_atom_site_label_2
_ccdc_geom_bond_type
C55   O11   D    
C27   C29   A    
C1    O1    A    
C16   H20   S    
C25   H4    S    
C22   N2    A    
Cu2   N1    S    
C26   H3    S    
C22   H5    S    
C4    H18   S    
C54   H30   S    
C5    C56   S    
O9    C51   S    
C36   H22   S    
C40   C46   S    
C56   O14   S    
O10   C53   S    
C23   O7    A    
C3    H17   S    
C33   C35   A    
C51   H24   S    
C34   H10   S    
C24   C42   S    
C7    C9    A    
C6    C55   S    
C24   O6    A    
Cu1   O4    S    
C38   C45   S    
C9    C13   A    
C2    C50   S    
C37   H11   S    
C7    H16   S    
C40   C43   S    
C35   H21   S    
C26   N2    A    
O14   H34   S    
C4    C12   A    
Cu2   O3    S    
Cu1   O5    S    
C39   C45   S    
C55   O12   S    
C13   C14   A    
C5    C49   A    
Cu2   O2    S    
C54   H31   S    
C44   C46   S    
C38   H12   S    
C45   C47   S    
C46   C48   S    
C27   C31   A    
Cu1   Cu2   S    
C28   C32   A    
C3    C11   A    
Cu1   N2    S    
C7    C49   A    
C4    C6    A    
C10   C14   A    
C52   H25   S    
C51   H23   S    
C20   C30   A    
C53   C54   S    
C19   H7    S    
C25   N1    A    
C37   C43   S    
Cu2   O7    S    
C53   H29   S    
Cu1   O1    S    
C38   C44   S    
C2    O2    A    
C9    C11   A    
C31   C32   A    
C41   C47   T    
C31   C34   A    
C42   C48   T    
C6    C50   A    
C52   H27   S    
Cu2   O6    S    
C43   C45   S    
C10   C12   A    
C8    C10   A    
C20   C22   A    
C40   H2    S    
C1    O3    A    
C20   H8    S    
C44   O9    S    
C19   C29   A    
C8    C50   A    
C54   H32   S    
C15   C17   A    
C21   N1    A    
C18   H14   S    
C11   C17   A    
C23   O5    A    
C19   C21   A    
C17   H13   S    
C3    C5    A    
C51   C52   S    
C39   C44   S    
C25   C27   A    
C15   H19   S    
C56   O13   D    
C29   C35   A    
C26   C28   A    
C23   C41   S    
C30   C36   A    
C32   C33   A    
C28   C30   A    
C24   O8    A    
C21   H6    S    
C37   C39   S    
C38   C40   S    
C39   H1    S    
C33   H9    S    
C43   O10   S    
C34   C36   A    
C53   H28   S    
C2    O4    A    
C8    H15   S    
C16   C18   A    
C52   H26   S    
C13   C16   A    
C12   C18   A    
O12   H33   S    
C14   C15   A    
C37   C46   S    
C1    C49   S    
Cu1   O8    S    
