data_mof_unit_64955.cif
_audit_creation_date              2012-12-10T18:53:52-0500
_audit_creation_method            fapswitch 2.2
_symmetry_space_group_name_H-M    P1
_symmetry_Int_Tables_number       1
_space_group_crystal_system       triclinic
_cell_length_a                    19.478168
_cell_length_b                    19.422898
_cell_length_c                    19.423095
_cell_angle_alpha                 85.056246
_cell_angle_beta                  95.288689
_cell_angle_gamma                 89.900844
_cell_volume                      7289.34423914

loop_
_atom_site_label
_atom_site_type_symbol
_atom_type_description
_atom_site_fract_x
_atom_site_fract_y
_atom_site_fract_z
_atom_type_partial_charge
C1    C     C_R   0.311814 0.492467 0.492014 0.511358
C2    C     C_2   0.479865 0.981395 0.498806 -0.126060
C3    C     C_2   0.533423 0.018138 0.523403 -0.129441
C4    C     C_R   0.688187 0.507189 0.508028 0.501557
C5    C     C_R   0.515509 0.236755 0.514988 0.041343
C6    C     C_R   0.763621 0.506070 0.514219 0.037251
C7    C     C_R   0.798303 0.465124 0.472204 -0.123777
C8    C     C_R   0.869667 0.461394 0.479105 -0.111567
C9    C     C_R   0.907650 0.499140 0.527687 0.040387
C10   C     C_R   0.873334 0.539024 0.570728 -0.114408
C11   C     C_R   0.801539 0.542912 0.563757 -0.123689
C12   C     C_R   0.483562 0.906385 0.493954 0.020128
C13   C     C_R   0.131880 0.457383 0.539534 -0.108666
C14   C     C_R   0.203460 0.456862 0.542434 -0.123412
C15   C     C_R   0.197436 0.523149 0.430163 -0.109323
C16   C     C_R   0.508355 0.492500 0.688897 0.506013
C17   C     C_R   0.125905 0.522882 0.426911 -0.110413
C18   C     C_R   0.092887 0.491249 0.482059 0.040695
C19   C     C_2   0.983158 0.497233 0.533762 -0.133285
C20   C     C_2   0.017570 0.493150 0.477650 -0.133021
C21   C     C_R   0.236636 0.490472 0.488129 0.042626
C22   C     C_R   0.481977 0.503437 0.235719 0.013257
C23   C     C_R   0.421893 0.869370 0.489865 -0.089824
C24   C     C_R   0.515328 0.450640 0.206261 -0.098587
C25   C     C_R   0.505297 0.444048 0.135417 0.100905
C26   C     C_R   0.462263 0.491771 0.092863 0.041399
C27   C     C_R   0.427437 0.543389 0.122232 -0.137185
C28   C     C_R   0.490875 0.506956 0.311009 0.503399
C29   C     C_R   0.437280 0.549343 0.193401 -0.131431
C30   C     C_R   0.461177 0.456031 0.871669 -0.097946
C31   C     C_R   0.461056 0.454327 0.800258 -0.122580
C32   C     C_R   0.560775 0.529100 0.801259 -0.117888
C33   C     C_R   0.561191 0.530319 0.872752 -0.113171
C34   C     C_R   0.422784 0.797802 0.487970 0.086210
C35   C     C_R   0.510719 0.494953 0.908102 0.045662
C36   C     C_2   0.456059 0.490928 0.017468 -0.114199
C37   C     C_2   0.512640 0.497386 0.983396 -0.102271
C38   C     C_R   0.510387 0.491473 0.764465 0.038559
C39   C     C_R   0.508873 0.311928 0.508854 0.501758
C40   C     C_R   0.490848 0.687979 0.492238 0.523953
C41   C     C_R   0.486513 0.762890 0.489946 0.052552
C42   C     C_R   0.547964 0.800073 0.492113 -0.143148
C43   C     C_R   0.546627 0.871345 0.493201 -0.110578
C44   C     C_R   0.468844 0.124028 0.544705 -0.108859
C45   C     C_R   0.462873 0.195631 0.540558 -0.122432
C46   C     C_R   0.575215 0.205606 0.495970 -0.117252
C47   C     C_R   0.581665 0.134030 0.501304 -0.111924
C48   C     C_R   0.527877 0.093087 0.524011 0.039238
H1    H     H_    0.597178 0.773806 0.492641 0.123851
H2    H     H_    0.894999 0.428365 0.446858 0.111557
H3    H     H_    0.096310 0.548482 0.381925 0.112069
H4    H     H_    0.548337 0.413394 0.238393 0.162367
H5    H     H_    0.421964 0.424552 0.773074 0.135632
H6    H     H_    0.599766 0.557722 0.774853 0.136486
H7    H     H_    0.562131 0.506084 0.011990 0.148201
H8    H     H_    0.393968 0.580040 0.089795 0.118703
H9    H     H_    0.423109 0.426235 0.898229 0.120766
H10   H     H_    0.410292 0.589906 0.215176 0.144035
H11   H     H_    0.616927 0.236541 0.477145 0.134543
H12   H     H_    0.627633 0.110564 0.485669 0.110832
H13   H     H_    0.600337 0.559710 0.900386 0.110031
H14   H     H_    0.583296 0.994395 0.539830 0.118757
H15   H     H_    0.372964 0.895975 0.489953 0.130511
H16   H     H_    0.427432 0.092872 0.563832 0.113517
H17   H     H_    0.595112 0.898254 0.493019 0.110953
H18   H     H_    0.107168 0.430833 0.581797 0.110409
H19   H     H_    0.416700 0.218760 0.556071 0.132712
H20   H     H_    0.405000 0.489826 0.989976 0.119918
H21   H     H_    0.430857 0.007335 0.482220 0.124289
H22   H     H_    0.770380 0.435422 0.434229 0.139691
H23   H     H_    0.232757 0.431009 0.587436 0.132662
H24   H     H_    0.222006 0.548834 0.387314 0.142085
H25   H     H_    0.989851 0.495434 0.426294 0.121889
H26   H     H_    0.902114 0.567891 0.608878 0.110589
H27   H     H_    0.775832 0.574225 0.597311 0.134483
H28   H     H_    0.010718 0.503089 0.584132 0.122873
I1    I     I_    0.553423 0.358278 0.097663 -0.396848
I2    I     I_    0.326564 0.746350 0.488490 -0.357230
O1    O     O_3   0.500000 0.500000 0.500000 -0.446631
O2    O     O_R   0.467830 0.341070 0.546160 -0.546863
O3    O     O_R   0.450560 0.655630 0.450550 -0.511074
O4    O     O_R   0.545840 0.347670 0.467560 -0.546434
O5    O     O_R   0.535760 0.655640 0.535740 -0.545812
O6    O     O_R   0.545870 0.536170 0.656040 -0.546347
O7    O     O_R   0.450550 0.545430 0.340370 -0.545895
O8    O     O_R   0.347960 0.451240 0.536460 -0.549791
O9    O     O_R   0.655630 0.467150 0.467130 -0.549371
O10   O     O_R   0.340780 0.536140 0.450970 -0.531792
O11   O     O_R   0.655640 0.545460 0.545430 -0.550809
O12   O     O_R   0.467850 0.451260 0.656340 -0.546331
O13   O     O_R   0.535740 0.467130 0.347260 -0.546633
Zn1   Zn    Zn3+2 0.558310 0.558310 0.558290 0.940340
Zn2   Zn    Zn3+2 0.446830 0.436990 0.558720 0.939130
Zn3   Zn    Zn3+2 0.558290 0.446420 0.446420 0.935514
Zn4   Zn    Zn3+2 0.436570 0.558290 0.436570 0.966553

loop_
_geom_bond_atom_site_label_1
_geom_bond_atom_site_label_2
_ccdc_geom_bond_type
C24   H4    S    
C30   H9    S    
C1    C21   S    
O4    Zn3   S    
C22   C29   A    
C46   H11   S    
C27   C29   A    
C10   H26   S    
C14   H23   S    
C19   C20   D    
C2    C12   S    
C17   H3    S    
C7    H22   S    
C7    C8    A    
C4    O9    A    
C44   H16   S    
C16   O12   A    
O5    Zn1   S    
C12   C23   A    
C26   C27   A    
C30   C35   A    
C25   I1    S    
C14   C21   A    
C36   C37   D    
C35   C37   S    
O1    Zn2   S    
C12   C43   A    
C30   C31   A    
O3    Zn4   S    
O9    Zn3   S    
C3    C48   S    
C16   O6    A    
C41   C42   A    
C47   H12   S    
C9    C19   S    
C8    C9    A    
C45   H19   S    
C32   C38   A    
C2    H21   S    
C9    C10   A    
C1    O10   A    
C23   H15   S    
O10   Zn4   S    
C22   C28   S    
C13   C14   A    
C40   O5    A    
C34   C41   A    
C32   H6    S    
C13   H18   S    
C24   C25   A    
O1    Zn3   S    
C4    C6    S    
C6    C11   A    
C27   H8    S    
C25   C26   A    
C5    C45   A    
O1    Zn4   S    
C15   H24   S    
O8    Zn2   S    
C47   C48   A    
C43   H17   S    
C23   C34   A    
C17   C18   A    
C31   H5    S    
O11   Zn1   S    
O1    Zn1   S    
C13   C18   A    
C26   C36   S    
C40   C41   S    
C5    C39   S    
C22   C24   A    
C42   C43   A    
C8    H2    S    
C44   C45   A    
O12   Zn2   S    
C4    O11   A    
C3    H14   S    
C1    O8    A    
C15   C17   A    
C46   C47   A    
C19   H28   S    
C40   O3    A    
C39   O4    A    
C36   H20   S    
C6    C7    A    
C5    C46   A    
C31   C38   A    
C32   C33   A    
C2    C3    D    
C11   H27   S    
C39   O2    A    
O13   Zn3   S    
O7    Zn4   S    
C33   C35   A    
C20   H25   S    
C28   O13   A    
C18   C20   S    
C10   C11   A    
C42   H1    S    
C37   H7    S    
C15   C21   A    
C29   H10   S    
C33   H13   S    
C28   O7    A    
O6    Zn1   S    
O2    Zn2   S    
C34   I2    S    
C44   C48   A    
C16   C38   S    
