data_mof_unit_43696.cif
_audit_creation_date              2013-03-05T16:05:39-0500
_audit_creation_method            fapswitch 2.2
_symmetry_space_group_name_H-M    P1
_symmetry_Int_Tables_number       1
_space_group_crystal_system       triclinic
_cell_length_a                    15.870092
_cell_length_b                    10.769906
_cell_length_c                    9.561224
_cell_angle_alpha                 90.392633
_cell_angle_beta                  90.774101
_cell_angle_gamma                 91.10092
_cell_volume                      1633.70652825

loop_
_atom_site_label
_atom_site_type_symbol
_atom_site_description
_atom_site_fract_x
_atom_site_fract_y
_atom_site_fract_z
_atom_type_partial_charge
O1    O     O_R   0.500000 0.319660 0.618740 -0.565533
O2    O     O_R   0.500000 0.680340 0.381260 -0.567969
O3    O     O_R   0.499990 0.319630 0.381170 -0.536447
O4    O     O_R   0.500010 0.680370 0.618830 -0.534596
C1    C     C_R   0.496538 0.262633 0.499479 0.955769
C2    C     C_R   0.503159 0.737472 0.500393 0.967782
O5    O     O_R   0.379080 0.500000 0.618760 -0.592818
O6    O     O_R   0.620920 0.500000 0.381240 -0.571356
O7    O     O_R   0.379080 0.499970 0.381190 -0.532443
O8    O     O_R   0.620920 0.500030 0.618810 -0.538324
C3    C     C_R   0.340002 0.500611 0.499210 0.880753
C4    C     C_R   0.660056 0.498660 0.500817 0.887142
Cu1   Cu    Cu3+1 0.500000 0.500020 0.640660 1.101883
Cu2   Cu    Cu3+1 0.500000 0.499980 0.359340 1.112322
C5    C     C_3   0.971582 0.383075 0.524187 0.333115
C6    C     C_3   0.028929 0.612661 0.477220 0.274358
C7    C     C_3   0.025451 0.422629 0.399156 0.342594
C8    C     C_3   0.975144 0.573166 0.602326 0.361546
H1    H     H_    0.945143 0.570242 0.273670 0.228701
H2    H     H_    0.055509 0.425295 0.727474 0.240625
C9    C     C_1   0.250509 0.499993 0.497646 0.008387
C10   C     C_1   0.749664 0.497431 0.502588 -0.010878
C11   C     C_3   0.030459 0.458005 0.625485 -0.314282
C12   C     C_3   0.970078 0.537717 0.375807 -0.370236
C13   C     C_3   0.083634 0.498249 0.498570 -0.155374
C14   C     C_3   0.916752 0.497636 0.502954 -0.163635
C15   C     C_1   0.175115 0.499118 0.497501 0.179496
C16   C     C_1   0.825142 0.497299 0.503409 0.164637
C17   C     C_R   0.573762 0.070419 0.475270 0.207169
C18   C     C_R   0.425597 0.929957 0.524108 0.203886
C19   C     C_R   0.577410 0.940615 0.475355 0.319824
C20   C     C_R   0.421588 0.059712 0.520541 0.312620
C21   C     C_R   0.502651 0.871687 0.500448 -0.321721
C22   C     C_R   0.496692 0.128561 0.498386 -0.321813
C23   C     C_R   0.446273 0.423078 0.071329 0.420318
C24   C     C_R   0.553652 0.576953 0.928731 0.422942
C25   C     C_R   0.446568 0.423682 0.923068 -0.085909
C26   C     C_R   0.553406 0.576315 0.076950 -0.081333
H3    H     H_    0.403832 0.362588 0.865234 0.209372
H4    H     H_    0.596181 0.637402 0.134754 0.213798
N1    N     N_R   0.500020 0.500030 0.852070 -0.253315
N2    N     N_R   0.499980 0.499970 0.147930 -0.255226
S1    S     S_3+6 0.060979 0.324518 0.262023 0.139822
O9    O     O_2   0.111141 0.400616 0.160377 -0.183528
O10   O     O_2   0.116071 0.225730 0.322443 -0.169389
O11   O     O_3   0.977522 0.258832 0.177788 -0.441149
H5    H     H_    0.977197 0.170331 0.205318 0.405925
S2    S     S_3+6 0.943222 0.671649 0.741673 0.097871
O12   O     O_2   0.904033 0.786406 0.683240 -0.226386
O13   O     O_2   0.880395 0.602950 0.829977 -0.214197
O14   O     O_3   0.028177 0.711820 0.839946 -0.449645
H6    H     H_    0.006062 0.764049 0.916290 0.398003
S3    S     S_3+6 0.932620 0.230263 0.559210 0.127919
O15   O     O_2   0.883481 0.232400 0.692442 -0.195040
O16   O     O_2   0.876203 0.186486 0.440719 -0.181219
O17   O     O_3   0.014214 0.134078 0.576714 -0.430842
H7    H     H_    0.989261 0.055659 0.612359 0.428641
S4    S     S_3+6 0.067974 0.765710 0.442838 0.143289
O18   O     O_2   0.118205 0.812752 0.567194 -0.122835
O19   O     O_2   0.123618 0.763313 0.316977 -0.197269
O20   O     O_3   0.987035 0.860780 0.412715 -0.435868
H8    H     H_    0.954519 0.821295 0.334660 0.358458
N3    N     N_R   0.648060 0.144967 0.453394 0.161561
O21   O     O_R   0.687458 0.196263 0.559786 -0.286263
O22   O     O_R   0.669429 0.175006 0.326952 -0.262643
N4    N     N_R   0.351765 0.855801 0.551013 0.159561
O23   O     O_R   0.325378 0.843146 0.678447 -0.247647
O24   O     O_R   0.315050 0.793037 0.449895 -0.302800
S5    S     S_3+6 0.674853 0.863529 0.452216 0.084770
O25   O     O_2   0.668078 0.780043 0.325991 -0.312359
O26   O     O_2   0.748203 0.952025 0.434065 -0.145945
O27   O     O_3   0.693063 0.776900 0.594201 -0.482161
H9    H     H_    0.751899 0.749631 0.584819 0.392521
S6    S     S_3+6 0.323439 0.136473 0.537293 0.108373
O28   O     O_2   0.314052 0.227022 0.419743 -0.258653
O29   O     O_2   0.249092 0.047950 0.532739 -0.108056
O30   O     O_3   0.323734 0.214249 0.690175 -0.531932
H10   H     H_    0.271319 0.262736 0.688250 0.370621
N5    N     N_R   0.389213 0.340291 0.139397 0.154443
O31   O     O_R   0.310475 0.370460 0.147914 -0.256910
O32   O     O_R   0.408622 0.223870 0.149482 -0.278092
N6    N     N_R   0.610724 0.659688 0.860803 0.156485
O33   O     O_R   0.689527 0.629705 0.853407 -0.268487
O34   O     O_R   0.591273 0.776088 0.850774 -0.274778

loop_
_geom_bond_atom_site_label_1
_geom_bond_atom_site_label_2
_geom_bond_distance
_ccdc_geom_bond_type
N4    O24   1.300711 A    
N3    O22   1.301319 A    
C8    C14   1.536167 S    
O7    Cu2   1.933152 S    
Cu1   N1    2.021333 S    
O30   H10   0.990655 S    
O5    C3    1.293173 A    
S6    O29   1.502589 D    
O1    C1    1.291464 A    
C5    S3    1.782429 S    
C23   C25   1.417686 A    
C12   C14   1.549635 S    
C26   N2    1.360860 A    
S5    O25   1.501477 D    
C20   S6    1.785977 S    
S4    O19   1.502598 D    
C4    C10   1.422284 S    
O17   H7    0.990457 S    
O4    Cu1   1.954952 S    
S5    O26   1.502882 D    
C23   N2    1.377084 A    
S2    O14   1.680954 S    
C24   N6    1.424412 S    
S6    O30   1.679650 S    
C19   C21   1.411583 A    
C18   C20   1.400750 A    
Cu2   N2    2.021333 S    
C5    C11   1.548619 S    
S4    O20   1.681027 S    
S2    O13   1.502448 D    
N4    O23   1.300915 A    
C9    C15   1.196356 T    
C6    C12   1.549130 S    
C10   C16   1.197786 T    
Cu1   Cu2   2.689761 S    
C24   N1    1.376872 A    
O2    C2    1.290826 A    
S3    O16   1.502162 D    
C25   H3    1.080003 S    
C7    C12   1.548794 S    
S6    O28   1.500829 D    
C8    C11   1.548646 S    
N5    O31   1.300633 A    
O4    C2    1.293417 A    
N5    O32   1.300767 A    
C5    C14   1.536421 S    
S4    O18   1.502156 D    
S3    O15   1.502842 D    
C17   C22   1.404198 A    
C3    C9    1.420021 S    
O14   H6    0.990594 S    
C20   C22   1.410806 A    
S5    O27   1.677511 S    
S1    O9    1.502228 D    
C7    S1    1.782534 S    
O7    C3    1.294972 A    
H2    C11   1.110251 S    
C19   S5    1.784849 S    
O6    C4    1.294020 A    
C1    C22   1.443951 S    
C6    S4    1.784009 S    
S1    O10   1.503537 D    
C18   N4    1.432455 S    
O3    Cu2   1.954955 S    
O8    C4    1.295285 A    
S2    O12   1.502010 D    
N6    O34   1.300672 A    
O1    Cu1   1.952305 S    
S3    O17   1.681072 S    
C6    C13   1.534107 S    
C5    C7    1.536891 S    
O11   H5    0.990503 S    
O6    Cu2   1.927583 S    
C18   C21   1.405492 A    
O27   H9    0.989234 S    
O3    C1    1.292011 A    
O8    Cu1   1.933152 S    
C8    S2    1.782206 S    
C13   C15   1.451838 S    
C14   C16   1.453858 S    
C2    C21   1.445657 S    
C7    C13   1.534976 S    
C24   C26   1.417273 A    
H1    C12   1.110196 S    
C17   C19   1.400301 A    
C26   H4    1.080197 S    
C23   N5    1.425271 S    
C17   N3    1.432224 S    
C11   C13   1.547036 S    
C25   N1    1.361220 A    
O20   H8    0.990404 S    
O2    Cu2   1.952304 S    
S1    O11   1.682459 S    
N3    O21   1.301054 A    
O5    Cu1   1.927584 S    
C6    C8    1.536536 S    
N6    O33   1.300350 A    
