data_mof_unit_49847.cif
_audit_creation_date              2012-12-11T15:41:15-0500
_audit_creation_method            fapswitch 2.2
_symmetry_space_group_name_H-M    P1
_symmetry_Int_Tables_number       1
_space_group_crystal_system       triclinic
_cell_length_a                    14.863354
_cell_length_b                    14.911005
_cell_length_c                    15.182246
_cell_angle_alpha                 109.338192
_cell_angle_beta                  109.96809
_cell_angle_gamma                 108.921068
_cell_volume                      2596.00093488

loop_
_atom_site_label
_atom_site_type_symbol
_atom_type_description
_atom_site_fract_x
_atom_site_fract_y
_atom_site_fract_z
_atom_type_partial_charge
C1    C     C_R   0.249247 0.064739 0.971051 -0.141081
C2    C     C_R   0.851791 0.796089 0.221262 0.460853
C3    C     C_R   0.243701 0.185440 0.686080 0.473116
C4    C     C_R   0.747325 0.703501 0.143257 0.434622
C5    C     C_R   0.283712 0.287541 0.775230 -0.129020
C6    C     C_R   0.718219 0.656394 0.033742 -0.108735
C7    C     C_R   0.216200 0.303292 0.817618 -0.232045
C8    C     C_R   0.797478 0.692212 0.004811 -0.224408
C9    C     C_R   0.112847 0.217734 0.776681 -0.158869
C10   C     C_R   0.904109 0.777255 0.084085 -0.187822
C11   C     C_R   0.076290 0.114782 0.694709 -0.398848
C12   C     C_R   0.806229 0.006662 0.095572 -0.142696
C13   C     C_R   0.931153 0.829033 0.191944 -0.308196
C14   C     C_R   0.409204 0.477646 0.840086 -0.308254
C15   C     C_R   0.595980 0.461689 0.924651 -0.229822
C16   C     C_R   0.801147 0.211086 0.301535 -0.147412
C17   C     C_R   0.251130 0.778209 0.687309 -0.125930
C18   C     C_R   0.510226 0.573418 0.915015 0.081503
C19   C     C_R   0.493792 0.373482 0.884898 0.129570
C20   C     C_R   0.606817 0.564343 0.950802 0.127215
C21   C     C_R   0.397659 0.377643 0.829738 0.130789
C22   C     C_R   0.028369 0.481828 0.382716 -0.173407
C23   C     C_R   0.863379 0.305180 0.304469 0.046569
C24   C     C_R   0.119032 0.473493 0.571939 -0.172862
C25   C     C_R   0.118332 0.574422 0.475477 -0.181426
C26   C     C_R   0.028307 0.381304 0.479615 -0.181258
C27   C     C_R   0.156067 0.573088 0.572970 0.148265
C28   C     C_R   0.976571 0.388019 0.387512 0.149265
C29   C     C_R   0.557646 0.138462 0.599628 0.663402
C30   C     C_R   0.439467 0.924180 0.419828 0.660584
C31   C     C_R   0.557693 0.122161 0.504292 -0.458495
C32   C     C_R   0.439703 0.940770 0.514467 -0.437522
C33   C     C_R   0.500520 0.015914 0.417168 -0.106997
C34   C     C_R   0.217355 0.674786 0.675076 0.047386
C35   C     C_R   0.496452 0.046596 0.601595 -0.085929
C36   C     C_R   0.131405 0.065043 0.156017 -0.183104
C37   C     C_R   0.031745 0.157915 0.052515 -0.171466
C38   C     C_R   0.042170 0.070496 0.161699 -0.172879
C39   C     C_R   0.120930 0.152871 0.047096 -0.168875
C40   C     C_R   0.408338 0.939999 0.220340 -0.088313
C41   C     C_R   0.591889 0.088446 0.789620 -0.133495
C42   C     C_R   0.984394 0.105005 0.099100 0.144807
C43   C     C_R   0.162237 0.094523 0.087863 0.148084
C44   C     C_R   0.588589 0.297094 0.991543 -0.142469
C45   C     C_R   0.500698 0.001836 0.321037 0.163790
C46   C     C_R   0.413253 0.684747 0.949125 -0.118610
C47   C     C_R   0.593204 0.039869 0.313219 -0.158491
C48   C     C_R   0.407989 0.000142 0.700234 -0.150807
C49   C     C_R   0.406496 0.206625 0.904116 -0.103054
C50   C     C_R   0.595355 0.780464 0.027851 -0.111368
C51   C     C_R   0.801067 0.302343 0.210760 -0.131780
C52   C     C_R   0.238878 0.684755 0.775419 -0.134132
C53   C     C_R   0.243974 0.969689 0.058259 -0.134556
C54   C     C_R   0.802655 0.094686 0.002397 -0.125549
C55   C     C_R   0.219976 0.048139 0.044116 0.050739
C56   C     C_R   0.499358 0.055120 0.697437 0.222052
C57   C     C_R   0.868754 0.068738 0.065999 0.052089
C58   C     C_3   0.038173 0.902889 0.564874 0.255278
C59   C     C_3   0.084753 0.897448 0.669185 -0.411581
C60   C     C_3   0.018290 0.784460 0.651693 -0.952780
C61   C     C_3   0.812101 0.908277 0.327138 0.278499
C62   C     C_3   0.881796 0.023687 0.423633 -0.315665
C63   C     C_3   0.981464 0.092859 0.421135 -0.854074
C64   C     C_3   0.307378 0.204284 0.573454 -0.155436
C65   C     C_3   0.694709 0.604373 0.219509 -0.217720
C66   C     C_3   0.719031 0.301912 0.720428 -0.292575
C67   C     C_R   0.495225 0.296320 0.925967 0.084801
C68   C     C_3   0.280251 0.757525 0.302017 -0.282820
C69   C     C_R   0.507221 0.675758 0.961358 0.102544
C70   C     C_R   0.142229 0.096154 0.649629 0.513783
H1    H     H_    0.239958 0.118179 0.939665 0.099366
H2    H     H_    0.152160 0.468151 0.644289 0.106065
H3    H     H_    0.150042 0.648451 0.471701 0.104831
H4    H     H_    0.993814 0.308955 0.484951 0.118771
H5    H     H_    0.599631 0.191119 0.496571 0.171856
H6    H     H_    0.399466 0.871082 0.522105 0.165359
H7    H     H_    0.168139 0.027946 0.196254 0.106014
H8    H     H_    0.994069 0.192683 0.009788 0.102655
H9    H     H_    0.827872 0.180394 0.354452 0.099152
H10   H     H_    0.243968 0.800806 0.625877 0.092111
H11   H     H_    0.012847 0.037825 0.206143 0.117947
H12   H     H_    0.836109 0.983908 0.155290 0.094513
H13   H     H_    0.148173 0.184062 0.000657 0.113715
H14   H     H_    0.325188 0.889483 0.199212 0.105109
H15   H     H_    0.676925 0.138217 0.814591 0.100471
H16   H     H_    0.672993 0.347547 0.015843 0.086285
H17   H     H_    0.331562 0.618615 0.912512 0.085128
H18   H     H_    0.678150 0.085026 0.376601 0.095194
H19   H     H_    0.323269 0.970811 0.643612 0.149156
H20   H     H_    0.321098 0.171977 0.850143 0.092958
H21   H     H_    0.680020 0.807905 0.050896 0.099875
H22   H     H_    0.827762 0.355261 0.179969 0.081956
H23   H     H_    0.245273 0.381389 0.885134 0.153345
H24   H     H_    0.210563 0.619618 0.792006 0.085234
H25   H     H_    0.223313 0.931516 0.102550 0.081785
H26   H     H_    0.827217 0.153342 0.976744 0.080216
H27   H     H_    0.997014 0.050678 0.669103 0.139978
H28   H     H_    0.012995 0.896979 0.252490 0.159927
H29   H     H_    0.023296 0.829466 0.497837 0.146394
H30   H     H_    0.956340 0.897089 0.541460 0.101077
H31   H     H_    0.171633 0.918253 0.697040 0.218208
H32   H     H_    0.083297 0.957823 0.734392 0.202781
H33   H     H_    0.931734 0.764908 0.626588 0.259181
H34   H     H_    0.776703 0.653948 0.921118 0.154310
H35   H     H_    0.054459 0.783173 0.728199 0.278238
H36   H     H_    0.019462 0.721115 0.588557 0.263327
H37   H     H_    0.743110 0.861652 0.335446 0.111527
H38   H     H_    0.775806 0.914524 0.253352 0.049012
H39   H     H_    0.830953 0.063708 0.425335 0.133390
H40   H     H_    0.908989 0.018516 0.497971 0.198359
H41   H     H_    0.030328 0.051268 0.413351 0.292187
H42   H     H_    0.035165 0.172326 0.497542 0.229591
H43   H     H_    0.954854 0.107927 0.352276 0.227183
H44   H     H_    0.334977 0.293190 0.610998 0.126339
H45   H     H_    0.062008 0.230434 0.810882 0.141451
H46   H     H_    0.223410 0.157132 0.501731 0.121385
H47   H     H_    0.363854 0.191289 0.544798 0.173951
H48   H     H_    0.773151 0.656878 0.298234 0.148747
H49   H     H_    0.698338 0.535942 0.164735 0.120969
H50   H     H_    0.628296 0.567951 0.235433 0.173879
H51   H     H_    0.728329 0.336810 0.667779 0.153033
H52   H     H_    0.760976 0.252177 0.722995 0.120780
H53   H     H_    0.761276 0.371414 0.803525 0.170907
H54   H     H_    0.236569 0.805780 0.300764 0.123909
H55   H     H_    0.273087 0.721652 0.354424 0.152925
H56   H     H_    0.965346 0.804439 0.061684 0.152617
H57   H     H_    0.237917 0.688660 0.218566 0.172791
H58   H     H_    0.335810 0.481563 0.800318 0.132945
H59   H     H_    0.670525 0.457059 0.955091 0.122280
H60   H     H_    0.994442 0.488137 0.311184 0.103922
N1    N     N_R   0.293810 0.002730 0.945950 -0.041970
N2    N     N_R   0.443210 0.997250 0.791090 -0.053432
N3    N     N_R   0.443180 0.152110 0.945950 -0.046666
N4    N     N_R   0.556820 0.847890 0.054050 -0.048695
N5    N     N_R   0.706170 0.208950 0.152090 -0.036950
N6    N     N_R   0.293830 0.791050 0.847910 -0.039447
N7    N     N_R   0.293800 0.945910 0.002760 -0.040941
N8    N     N_R   0.706200 0.054090 0.997240 -0.037588
N9    N     N_R   0.706190 0.997270 0.054050 -0.042501
N10   N     N_R   0.706160 0.152130 0.208910 -0.036615
N11   N     N_R   0.293840 0.847870 0.791090 -0.042106
N12   N     N_R   0.443140 0.945920 0.152090 -0.048823
N13   N     N_R   0.556860 0.054080 0.847910 -0.047007
N14   N     N_R   0.556830 0.208940 0.002760 -0.040255
N15   N     N_R   0.443170 0.791060 0.997240 -0.040194
N16   N     N_R   0.556790 0.002750 0.208910 -0.044960
Ni1   Ni    Ni4+2 0.369690 0.999990 0.869700 0.211541
Ni2   Ni    Ni4+2 0.630310 0.000010 0.130300 0.206632
Ni3   Ni    Ni4+2 0.369670 0.869670 0.000000 0.217925
Ni4   Ni    Ni4+2 0.630330 0.130330 0.000000 0.209294
O1    O     O_3   0.112945 0.994714 0.569459 -0.644728
O2    O     O_3   0.876958 0.856375 0.326033 -0.651519
O3    O     O_3   0.311826 0.166906 0.647942 -0.605778
O4    O     O_3   0.669627 0.665896 0.171631 -0.619018
O5    O     O_3   0.607015 0.241857 0.687459 -0.607123
O6    O     O_3   0.391776 0.819689 0.334091 -0.612613

loop_
_geom_bond_atom_site_label_1
_geom_bond_atom_site_label_2
_ccdc_geom_bond_type
C4    O4    S    
C64   H46   S    
C40   N12   A    
C53   H25   S    
C33   C45   S    
C14   C18   A    
C24   C27   A    
C49   H20   S    
N7    Ni3   S    
N10   Ni2   S    
N6    Ni3   S    
C11   C70   A    
C54   N8    A    
C31   H5    S    
N8    Ni4   S    
C15   C19   A    
N6    N11   A    
C53   N7    A    
N12   Ni3   S    
C19   C21   A    
C50   C69   A    
C24   C26   A    
C41   N13   A    
C36   H7    S    
N12   N16   A    
C66   O5    S    
C46   N15   A    
C3    O3    S    
C14   H58   S    
C18   C20   A    
C17   N11   A    
C45   C47   A    
C37   C42   A    
C2    C13   A    
C61   H38   S    
C40   H14   S    
C46   C69   A    
N14   Ni4   S    
C51   N5    A    
N13   Ni4   S    
C22   C25   A    
C15   H59   S    
C65   H48   S    
C66   H52   S    
C19   C67   S    
N3    Ni1   S    
C60   H33   S    
C54   H26   S    
C29   O5    S    
C18   C69   S    
C30   O6    S    
C47   N16   A    
C59   C60   S    
C22   C28   A    
C22   H60   S    
N2    Ni1   S    
C68   H54   S    
C16   N10   A    
C44   H16   S    
C42   C57   S    
N16   Ni2   S    
C53   C55   A    
C27   C34   S    
C2    O2    S    
N5    N10   A    
C7    H23   S    
N9    Ni2   S    
C12   N9    A    
C64   H44   S    
C70   O1    S    
C9    H45   S    
C32   C35   A    
C3    C70   A    
C58   H30   S    
C4    C6    A    
C50   N4    A    
C5    C7    A    
C39   C43   A    
C3    C5    A    
C58   C59   S    
C64   O3    S    
C17   H10   S    
C64   H47   S    
C15   C20   A    
C59   H31   S    
C2    C4    A    
C41   C56   A    
C62   C63   S    
N1    N7    A    
C51   H22   S    
C8    H34   S    
C23   C51   A    
C62   H40   S    
C44   N14   A    
C31   C33   A    
C65   H49   S    
C66   H51   S    
C12   H12   S    
C1    H1    S    
C23   C28   S    
C52   H24   S    
C9    C11   A    
C68   H57   S    
C12   C57   A    
C43   C55   S    
C16   C23   A    
C48   H19   S    
C38   H11   S    
C52   N6    A    
C17   C34   A    
C60   H36   S    
C58   O1    S    
C24   H2    S    
C46   H17   S    
C48   C56   A    
N4    N15   A    
C49   N3    A    
N3    N14   A    
C49   C67   A    
C30   C33   A    
C35   C56   S    
C63   H42   S    
C59   H32   S    
C34   C52   A    
C8    C10   A    
C58   H29   S    
C1    N1    A    
C10   C13   A    
C32   H6    S    
C6    C8    A    
C38   C42   A    
C25   C27   A    
N5    Ni4   S    
C41   H15   S    
C37   H8    S    
C29   C35   A    
C26   C28   A    
C11   H27   S    
C16   H9    S    
C47   H18   S    
C36   C38   A    
C1    C55   A    
N4    Ni2   S    
C39   H13   S    
C29   C31   A    
C30   C32   A    
C13   H28   S    
C62   H39   S    
C6    C20   S    
N2    N13   A    
C26   H4    S    
C65   H50   S    
C25   H3    S    
C63   H41   S    
C61   C62   S    
C61   H37   S    
C61   O2    S    
C36   C43   A    
N8    N9    A    
N11   Ni1   S    
C14   C21   A    
C63   H43   S    
C7    C9    A    
C50   H21   S    
C5    C21   S    
C40   C45   A    
C37   C39   A    
C66   H53   S    
C48   N2    A    
C44   C67   A    
N1    Ni1   S    
C65   O4    S    
C10   H56   S    
C68   O6    S    
C68   H55   S    
N15   Ni3   S    
C60   H35   S    
C54   C57   A    
