data_mof_unit_6513.cif
_audit_creation_date              2012-12-10T17:31:10-0500
_audit_creation_method            fapswitch 2.2
_symmetry_space_group_name_H-M    P1
_symmetry_Int_Tables_number       1
_space_group_crystal_system       triclinic
_cell_length_a                    11.98917
_cell_length_b                    12.900989
_cell_length_c                    15.46255
_cell_angle_alpha                 87.214745
_cell_angle_beta                  115.367464
_cell_angle_gamma                 93.33802
_cell_volume                      2156.61441552

loop_
_atom_site_label
_atom_site_type_symbol
_atom_type_description
_atom_site_fract_x
_atom_site_fract_y
_atom_site_fract_z
_atom_type_partial_charge
C1    C     C_R   0.477616 0.299425 0.499042 0.892798
C2    C     C_R   0.522395 0.700571 0.500983 0.890779
C3    C     C_R   0.657243 0.585494 0.109644 -0.228753
C4    C     C_R   0.363083 0.593024 0.888767 -0.232075
C5    C     C_R   0.743728 0.579477 0.072527 -0.236974
C6    C     C_R   0.276209 0.596135 0.925769 -0.238729
C7    C     C_R   0.535623 0.811857 0.501731 -0.055437
C8    C     C_R   0.464425 0.188122 0.498382 -0.058435
C9    C     C_R   0.341367 0.030106 0.482131 -0.219392
C10   C     C_R   0.658718 0.969860 0.518071 -0.219459
C11   C     C_R   0.351930 0.137405 0.484848 -0.203881
C12   C     C_R   0.648132 0.862565 0.515299 -0.203825
C13   C     C_R   0.566575 0.132188 0.510168 -0.277721
C14   C     C_R   0.433497 0.867785 0.490006 -0.277534
C15   C     C_R   0.556793 0.025662 0.507230 0.186670
C16   C     C_R   0.443294 0.974306 0.492978 0.186402
C17   C     C_R   0.000123 0.593449 0.405491 -0.338416
C18   C     C_R   0.999763 0.406428 0.594307 -0.336181
C19   C     C_R   0.121668 0.585267 0.415533 0.015231
C20   C     C_R   0.878273 0.414623 0.584339 0.013949
C21   C     C_R   0.162658 0.460609 0.541991 -0.056852
C22   C     C_R   0.837294 0.539410 0.457969 -0.053707
C23   C     C_R   0.576352 0.497161 0.680495 0.875518
C24   C     C_R   0.424343 0.507624 0.319595 0.878473
C25   C     C_R   0.041108 0.466297 0.534572 0.092432
C26   C     C_R   0.958816 0.533695 0.465320 0.095333
C27   C     C_R   0.624323 0.512682 0.783354 -0.061784
C28   C     C_R   0.381258 0.528976 0.216978 -0.060274
C29   C     C_R   0.791122 0.544171 0.939449 -0.202590
C30   C     C_R   0.222171 0.569592 0.059615 -0.203418
C31   C     C_R   0.751113 0.520943 0.843200 -0.198505
C32   C     C_R   0.256971 0.545193 0.156389 -0.201026
C33   C     C_R   0.538937 0.529307 0.819742 -0.260199
C34   C     C_R   0.470095 0.540489 0.181122 -0.264099
C35   C     C_R   0.576622 0.558412 0.913937 0.092480
C36   C     C_R   0.438339 0.568626 0.085690 0.092211
C37   C     C_R   0.704578 0.561440 0.975568 0.179038
C38   C     C_R   0.311701 0.579128 0.023450 0.179331
C39   C     C_R   0.489080 0.577055 0.949536 0.067722
C40   C     C_R   0.528806 0.577886 0.049515 0.070429
H1    H     H_    0.847256 0.368572 0.630851 0.126758
H2    H     H_    0.152659 0.631215 0.368947 0.124642
H3    H     H_    0.939008 0.645876 0.351262 0.140386
H4    H     H_    0.060803 0.353847 0.648389 0.145785
H5    H     H_    0.564179 0.523227 0.228105 0.160177
H6    H     H_    0.442067 0.516439 0.773951 0.158325
H7    H     H_    0.187109 0.538248 0.183470 0.151515
H8    H     H_    0.818747 0.509591 0.815791 0.153453
H9    H     H_    0.889289 0.548051 0.985667 0.128834
H10   H     H_    0.125379 0.579281 0.012829 0.129032
H11   H     H_    0.693177 0.598326 0.185490 0.140209
H12   H     H_    0.329813 0.605312 0.812342 0.152172
H13   H     H_    0.345953 0.828747 0.478915 0.160797
H14   H     H_    0.654115 0.171228 0.521250 0.161263
H15   H     H_    0.727539 0.819556 0.524368 0.162293
H16   H     H_    0.272510 0.180411 0.475749 0.163127
H17   H     H_    0.254073 0.990957 0.471325 0.139074
H18   H     H_    0.746016 0.009005 0.528885 0.139196
H19   H     H_    0.773287 0.591363 0.405324 0.119700
H20   H     H_    0.226648 0.408660 0.594639 0.124797
N1    N     N_R   0.799120 0.480200 0.517090 -0.095696
N2    N     N_R   0.200880 0.519800 0.482910 -0.095792
O1    O     O_R   0.580150 0.341050 0.504560 -0.622857
O2    O     O_R   0.419850 0.658950 0.495440 -0.624742
O3    O     O_R   0.388090 0.353760 0.493600 -0.622352
O4    O     O_R   0.611910 0.646240 0.506400 -0.624490
O5    O     O_R   0.650890 0.490020 0.640860 -0.620734
O6    O     O_R   0.349110 0.509980 0.359140 -0.620204
O7    O     O_R   0.458830 0.502730 0.629890 -0.621704
O8    O     O_R   0.541170 0.497270 0.370110 -0.620526
Zn1   Zn    Zn3+2 0.628240 0.491510 0.507320 0.939157
Zn2   Zn    Zn3+2 0.371760 0.508490 0.492680 0.938664
H21   H     H_    0.841294 0.584542 0.120528 0.142855
H22   H     H_    0.180240 0.607004 0.877264 0.147354

loop_
_geom_bond_atom_site_label_1
_geom_bond_atom_site_label_2
_ccdc_geom_bond_type
C8    C13   A    
C5    C37   A    
C1    C8    S    
C23   O7    A    
C2    C7    S    
C20   H1    S    
C24   O8    A    
C29   H9    S    
C27   C33   A    
C4    H12   S    
C17   C26   A    
C10   H18   S    
C9    C16   A    
C10   C15   A    
O5    Zn1   S    
C19   N2    A    
C15   C16   A    
C30   C38   A    
C23   O5    A    
C20   N1    A    
C17   C19   A    
C7    C14   A    
C1    O3    A    
C6    C38   A    
O8    Zn1   S    
C23   C27   S    
C34   C36   A    
C19   H2    S    
N1    Zn1   S    
C30   H10   S    
C28   C34   A    
C33   H6    S    
C18   C25   A    
C1    O1    A    
C2    O2    A    
C6    H22   S    
C7    C12   A    
C27   C31   A    
C36   C40   A    
C9    H17   S    
C4    C6    A    
C22   H19   S    
C3    H11   S    
C3    C5    A    
C25   C26   A    
O7    Zn2   S    
C35   C39   A    
C17   H3    S    
C18   H4    S    
O4    Zn1   S    
C4    C39   A    
C28   C32   A    
O6    Zn2   S    
N2    Zn2   S    
C34   H5    S    
C9    C11   A    
C21   N2    A    
C10   C12   A    
C21   H20   S    
O1    Zn1   S    
C3    C40   A    
C31   H8    S    
C13   C15   A    
C32   H7    S    
C14   C16   A    
C39   C40   A    
C13   H14   S    
C21   C25   A    
C35   C37   A    
C24   C28   S    
C2    O4    A    
O3    Zn2   S    
C36   C38   A    
C29   C31   A    
C22   N1    A    
C30   C32   A    
C8    C11   A    
C33   C35   A    
C18   C20   A    
O2    Zn2   S    
C5    H21   S    
C12   H15   S    
C24   O6    A    
C14   H13   S    
C22   C26   A    
C29   C37   A    
C11   H16   S    
