data_mof_unit_11108.cif
_audit_creation_date              2012-12-11T14:08:20-0500
_audit_creation_method            fapswitch 2.2
_symmetry_space_group_name_H-M    P1
_symmetry_Int_Tables_number       1
_space_group_crystal_system       triclinic
_cell_length_a                    10.949052
_cell_length_b                    10.961905
_cell_length_c                    18.706924
_cell_angle_alpha                 90.225059
_cell_angle_beta                  89.70985
_cell_angle_gamma                 59.981838
_cell_volume                      1944.00954907

loop_
_atom_site_label
_atom_site_type_symbol
_atom_type_description
_atom_site_fract_x
_atom_site_fract_y
_atom_site_fract_z
_atom_type_partial_charge
C1    C     C_R   0.237701 0.645127 0.609103 0.543218
C2    C     C_3   0.678784 0.549494 0.799282 -0.132266
C3    C     C_3   0.702550 0.676051 0.811756 0.052441
C4    C     C_3   0.675242 0.649199 0.675394 0.062830
C5    C     C_3   0.825610 0.628695 0.690050 -0.127239
C6    C     C_3   0.649016 0.543685 0.719643 -0.193366
C7    C     C_2   0.677132 0.155833 0.670016 -0.150095
C8    C     C_2   0.690539 0.163247 0.826485 -0.095230
C9    C     C_2   0.801028 0.134455 0.783037 0.117210
C10   C     C_2   0.779549 0.162469 0.706013 -0.148007
C11   C     C_2   0.185698 0.660548 0.682257 -0.122868
C12   C     C_R   0.655829 0.624232 0.600224 0.534151
C13   C     C_2   0.195059 0.664470 0.839691 -0.111335
C14   C     C_2   0.203007 0.558136 0.800889 -0.187350
C15   C     C_2   0.236271 0.546332 0.724437 -0.188696
C16   C     C_2   0.679911 0.683799 0.333612 -0.079302
C17   C     C_2   0.705222 0.715186 0.179619 -0.140207
C18   C     C_2   0.815286 0.650355 0.223447 -0.134182
C19   C     C_2   0.802493 0.612379 0.296652 0.139146
C20   C     C_2   0.673095 0.139210 0.333066 -0.107524
C21   C     C_2   0.651361 0.147799 0.178826 -0.096063
C22   C     C_2   0.602892 0.082494 0.221364 -0.155063
C23   C     C_R   0.628576 0.227164 0.601619 0.539698
C24   C     C_2   0.588946 0.104933 0.297795 -0.159678
C25   C     C_2   0.125240 0.680420 0.344173 -0.096542
C26   C     C_2   0.115980 0.690832 0.190218 -0.104422
C27   C     C_2   0.044880 0.804098 0.233668 -0.150290
C28   C     C_2   0.076543 0.800103 0.308864 -0.164024
C29   C     C_R   0.704311 0.100605 0.896977 0.564753
C30   C     C_R   0.725842 0.689813 0.887646 0.554508
C31   C     C_R   0.119177 0.706412 0.907537 0.564906
C32   C     C_R   0.675419 0.105418 0.105021 0.540555
C33   C     C_R   0.733371 0.719666 0.104477 0.567214
C34   C     C_R   0.215980 0.651436 0.404494 0.562511
C35   C     C_R   0.087312 0.712973 0.115060 0.538341
C36   C     C_R   0.646853 0.626654 0.396233 0.572853
C37   C     C_R   0.621199 0.222989 0.397361 0.557890
C38   C     C_3   0.578209 0.815248 0.781090 -0.232952
C39   C     C_3   0.563491 0.799941 0.700447 -0.258632
C40   C     C_3   0.838587 0.647844 0.770863 -0.216610
Cr1   Cr    Cr6+3 0.393010 0.398050 0.501480 1.041086
Cr2   Cr    Cr6+3 0.398820 0.707980 0.501630 1.029566
Cr3   Cr    Cr6+3 0.708140 0.393940 0.496850 1.052699
Cr4   Cr    Cr6+3 0.937950 0.938450 0.008940 1.072088
Cr5   Cr    Cr6+3 0.626180 0.937030 0.994750 1.029527
Cr6   Cr    Cr6+3 0.937790 0.625760 0.001410 1.032541
H1    H     H_    0.598151 0.904312 0.789979 0.137780
H2    H     H_    0.716647 0.434371 0.700236 0.132055
H3    H     H_    0.931461 0.552960 0.793109 0.150205
H4    H     H_    0.847462 0.193862 0.679042 0.166688
H5    H     H_    0.584702 0.215033 0.804641 0.069560
H6    H     H_    0.614742 0.115952 0.695397 0.095650
H7    H     H_    0.179055 0.481926 0.824281 0.154841
H8    H     H_    0.300576 0.440925 0.702364 0.159654
H9    H     H_    0.225359 0.735956 0.816088 0.142586
H10   H     H_    0.477301 0.843818 0.808814 0.147026
H11   H     H_    0.120303 0.766007 0.704051 0.140609
H12   H     H_    0.921312 0.604938 0.201649 0.172583
H13   H     H_    0.596814 0.758817 0.197525 0.103821
H14   H     H_    0.595496 0.783330 0.313920 0.066100
H15   H     H_    0.565758 0.015112 0.199367 0.153280
H16   H     H_    0.497721 0.108578 0.323248 0.170418
H17   H     H_    0.688683 0.215988 0.199368 0.109153
H18   H     H_    0.769243 0.126529 0.308808 0.111964
H19   H     H_    0.971246 0.907197 0.212255 0.162025
H20   H     H_    0.454551 0.821181 0.690024 0.159242
H21   H     H_    0.076428 0.891168 0.332118 0.164318
H22   H     H_    0.190726 0.586304 0.209255 0.107648
H23   H     H_    0.117649 0.593153 0.321811 0.159850
H24   H     H_    0.577590 0.879885 0.670728 0.112768
H25   H     H_    0.858163 0.737301 0.779436 0.118055
H26   H     H_    0.833758 0.713469 0.661566 0.129752
H27   H     H_    0.778050 0.450576 0.812474 0.175012
H28   H     H_    0.538167 0.568151 0.711619 0.130143
O1    O     O_R   0.507110 0.256280 0.580300 -0.520137
O2    O     O_R   0.524640 0.695370 0.425100 -0.506220
O3    O     O_R   0.735890 0.504390 0.415980 -0.445847
O4    O     O_R   0.690560 0.277820 0.422350 -0.487011
O5    O     O_3   0.499990 0.499990 0.499980 -0.258835
O6    O     O_R   0.089190 0.825870 0.932320 -0.463723
O7    O     O_R   0.819070 0.053960 0.931440 -0.437210
O8    O     O_R   0.607070 0.076440 0.916460 -0.528627
O9    O     O_R   0.647110 0.806550 0.917690 -0.503041
O10   O     O_R   0.837080 0.593860 0.915300 -0.519255
O11   O     O_R   0.064770 0.636080 0.932550 -0.505920
O12   O     O_R   0.280830 0.527190 0.577940 -0.502266
O13   O     O_R   0.068250 0.829200 0.092940 -0.505423
O14   O     O_R   0.799650 0.057040 0.080330 -0.503183
O15   O     O_R   0.586130 0.079760 0.077080 -0.514243
O16   O     O_R   0.627700 0.809630 0.066580 -0.494364
O17   O     O_R   0.816140 0.597180 0.075920 -0.487092
O18   O     O_R   0.045360 0.639170 0.081440 -0.518810
O19   O     O_3   0.833980 0.833750 0.001700 -0.291637
O20   O     O_R   0.261360 0.738990 0.584270 -0.511572
O21   O     O_R   0.532590 0.694780 0.574370 -0.512888
O22   O     O_R   0.744470 0.503750 0.577000 -0.529869
O23   O     O_R   0.698520 0.277230 0.571620 -0.505013
O24   O     O_R   0.498530 0.256920 0.419280 -0.505506
O25   O     O_R   0.272880 0.527780 0.428680 -0.481925
O26   O     O_R   0.252780 0.739630 0.423250 -0.509845
C41   C     C_3   0.952015 0.487612 0.663733 -0.383302
H29   H     H_    0.965203 0.487815 0.604897 0.171418
H30   H     H_    0.051788 0.471930 0.686426 0.131868
H31   H     H_    0.940885 0.396371 0.679838 0.158675
Br1   Br    Br    0.990397 0.066494 0.815349 -0.550607
Br2   Br    Br    0.968506 0.444356 0.329321 -0.524277
C42   C     C_3   0.562073 0.552305 0.846759 -0.412916
H32   H     H_    0.543195 0.465289 0.831351 0.137045
H33   H     H_    0.593734 0.537902 0.903761 0.160808
H34   H     H_    0.462091 0.653136 0.841341 0.140182

loop_
_geom_bond_atom_site_label_1
_geom_bond_atom_site_label_2
_ccdc_geom_bond_type
C7    C10   D    
C41   H29   S    
C31   O11   A    
C40   H25   S    
Cr5   O8    S    
C1    C11   S    
Cr5   O19   S    
C31   O6    A    
C35   O13   A    
C2    C6    S    
C25   C28   D    
Cr1   O12   S    
C26   C27   D    
C6    H2    S    
C8    C29   S    
C7    H6    S    
C5    H26   S    
C36   O3    A    
C33   O17   A    
C38   C39   S    
Cr6   O18   S    
C9    Br1   S    
C40   H3    S    
C32   O14   A    
C2    C42   S    
C18   C19   S    
C16   H14   S    
C30   O9    A    
Cr4   O19   S    
C36   O2    A    
C11   C15   D    
C18   H12   S    
C20   C24   D    
C3    C38   S    
C8    C9    D    
C34   O26   A    
C42   H32   S    
Cr1   O25   S    
C12   O21   A    
C6    H28   S    
C4    C12   S    
Cr4   O13   S    
Cr5   O15   S    
C9    C10   S    
C25   C34   S    
Cr6   O11   S    
C35   O18   A    
Cr2   O5    S    
C41   H30   S    
C13   C14   D    
C42   H33   S    
Cr5   O9    S    
C17   C33   S    
C37   O24   A    
Cr3   O22   S    
C21   C32   S    
C5    C41   S    
Cr2   O21   S    
C15   H8    S    
Cr4   O6    S    
C28   H21   S    
C4    C6    S    
Cr4   O7    S    
C1    O20   A    
Cr6   O17   S    
Cr3   O4    S    
C20   H18   S    
C3    C30   S    
C29   O7    A    
C27   H19   S    
Cr2   O26   S    
Cr1   O1    S    
C32   O15   A    
C14   C15   S    
C4    C39   S    
C17   C18   D    
Cr5   O16   S    
C8    H5    S    
C38   H1    S    
C2    H27   S    
C17   H13   S    
Cr6   O10   S    
C23   O23   A    
C3    C40   S    
C41   H31   S    
C39   H20   S    
C22   C24   S    
C25   H23   S    
C10   H4    S    
C1    O12   A    
C24   H16   S    
Cr2   O20   S    
C13   C31   S    
Cr3   O23   S    
C23   O1    A    
C4    C5    S    
Cr1   O5    S    
Cr3   O3    S    
C34   O25   A    
C37   O4    A    
Cr2   O2    S    
C26   H22   S    
C2    C3    S    
C29   O8    A    
C11   H11   S    
C33   O16   A    
C16   C36   S    
C22   H15   S    
C20   C37   S    
Cr6   O19   S    
C16   C19   D    
C7    C23   S    
C42   H34   S    
C39   H24   S    
Cr4   O14   S    
C30   O10   A    
C21   H17   S    
C19   Br2   S    
C26   C35   S    
C14   H7    S    
C38   H10   S    
C5    C40   S    
C27   C28   S    
Cr1   O24   S    
C12   O22   A    
C21   C22   D    
Cr3   O5    S    
C13   H9    S    
