data_mof_unit_51115.cif
_audit_creation_date              2012-12-10T16:59:18-0500
_audit_creation_method            fapswitch 2.2
_symmetry_space_group_name_H-M    P1
_symmetry_Int_Tables_number       1
_space_group_crystal_system       triclinic
_cell_length_a                    7.737817
_cell_length_b                    8.537948
_cell_length_c                    27.480981
_cell_angle_alpha                 90.891419
_cell_angle_beta                  85.749819
_cell_angle_gamma                 94.125007
_cell_volume                      1805.75469677

loop_
_atom_site_label
_atom_site_type_symbol
_atom_type_description
_atom_site_fract_x
_atom_site_fract_y
_atom_site_fract_z
_atom_type_partial_charge
C1    C     C_R   0.546224 0.794952 0.498608 0.969223
C2    C     C_R   0.453778 0.205049 0.501406 0.969242
C3    C     C_R   0.521191 0.448679 0.897968 -0.049100
C4    C     C_R   0.478729 0.551246 0.102030 -0.049103
C5    C     C_R   0.679784 0.477811 0.870098 -0.020056
C6    C     C_R   0.320137 0.522112 0.129900 -0.020051
C7    C     C_R   0.827237 0.533465 0.892927 -0.156859
C8    C     C_R   0.172674 0.466481 0.107072 -0.156858
C9    C     C_R   0.371914 0.398134 0.874300 -0.024874
C10   C     C_R   0.628009 0.601785 0.125697 -0.024872
C11   C     C_R   0.506848 0.483926 0.645968 -0.072492
C12   C     C_R   0.493142 0.516050 0.354030 -0.072536
C13   C     C_R   0.649563 0.561450 0.023180 0.042685
C14   C     C_R   0.350352 0.438484 0.976817 0.042674
C15   C     C_R   0.338841 0.466958 0.027892 0.043516
C16   C     C_R   0.661069 0.532988 0.972106 0.043508
C17   C     C_R   0.488912 0.526984 0.050766 0.073978
C18   C     C_R   0.511004 0.472951 0.949231 0.073980
C19   C     C_R   0.793439 0.624144 0.047942 -0.235276
C20   C     C_R   0.206483 0.375769 0.952055 -0.235261
C21   C     C_R   0.783085 0.641633 0.098246 -0.154129
C22   C     C_R   0.216839 0.358280 0.901750 -0.154117
C23   C     C_R   0.502313 0.499721 0.593777 0.872450
C24   C     C_R   0.497686 0.500278 0.406223 0.872443
C25   C     C_R   0.818289 0.561616 0.942820 -0.237033
C26   C     C_R   0.181612 0.438353 0.057179 -0.237045
C27   C     C_2   0.570412 0.958688 0.497451 -0.400077
C28   C     C_2   0.429595 0.041315 0.502588 -0.400081
C29   C     C_R   0.686045 0.455118 0.819492 0.479482
C30   C     C_R   0.313881 0.544798 0.180506 0.479473
C31   C     C_R   0.380022 0.392945 0.823328 0.500740
C32   C     C_R   0.619906 0.606974 0.176668 0.500727
C33   C     C_R   0.465190 0.309930 0.715651 0.083197
C34   C     C_R   0.534736 0.690032 0.284341 0.083177
C35   C     C_R   0.443035 0.340846 0.666777 -0.282223
C36   C     C_R   0.556916 0.659134 0.333216 -0.282136
C37   C     C_R   0.593508 0.599769 0.673820 -0.040460
C38   C     C_R   0.406503 0.400179 0.326182 -0.040417
C39   C     C_R   0.605392 0.573596 0.723198 -0.167017
C40   C     C_R   0.394584 0.426342 0.276804 -0.167001
C41   C     C_R   0.539704 0.431489 0.744695 0.226044
C42   C     C_R   0.460231 0.568454 0.255303 0.226053
H1    H     H_    0.013820 0.382512 0.463355 0.199523
H2    H     H_    0.986180 0.617488 0.536645 0.199535
H3    H     H_    0.664315 0.665620 0.745391 0.157331
H4    H     H_    0.335687 0.334299 0.254612 0.157311
H5    H     H_    0.950091 0.559378 0.872075 0.198553
H6    H     H_    0.049816 0.440578 0.127925 0.198553
H7    H     H_    0.616801 0.749390 0.355911 0.123460
H8    H     H_    0.383157 0.250600 0.644077 0.123460
H9    H     H_    0.897781 0.687234 0.115595 0.197136
H10   H     H_    0.102145 0.312668 0.884401 0.197136
H11   H     H_    0.917609 0.660043 0.029847 0.151141
H12   H     H_    0.082321 0.339848 0.970150 0.151153
H13   H     H_    0.938297 0.605715 0.957028 0.151254
H14   H     H_    0.061582 0.394299 0.042971 0.151256
H15   H     H_    0.703014 0.010628 0.492529 0.183235
H16   H     H_    0.296994 0.989374 0.507512 0.183226
N1    N     N_R   0.536184 0.419729 0.796843 -0.353462
N2    N     N_R   0.463747 0.580192 0.203154 -0.353464
N3    N     N_2   0.950320 0.457960 0.486880 -0.179086
N4    N     N_2   0.049680 0.542040 0.513120 -0.179093
O1    O     O_R   0.389250 0.738570 0.503220 -0.617914
O2    O     O_R   0.610750 0.261430 0.496780 -0.617916
O3    O     O_R   0.678390 0.711630 0.494810 -0.626244
O4    O     O_R   0.321610 0.288370 0.505190 -0.626258
O5    O     O_R   0.355440 0.513440 0.575450 -0.617587
O6    O     O_R   0.644560 0.486560 0.424550 -0.617573
O7    O     O_R   0.644590 0.486500 0.567040 -0.618532
O8    O     O_R   0.355410 0.513500 0.432960 -0.618524
O9    O     O_2   0.840063 0.471498 0.792922 -0.545927
O10   O     O_2   0.159861 0.528410 0.207078 -0.545922
O11   O     O_2   0.767982 0.633009 0.199510 -0.539828
O12   O     O_2   0.231949 0.366910 0.800486 -0.539819
Zn1   Zn    Zn3+2 0.306940 0.517990 0.505620 0.937537
Zn2   Zn    Zn3+2 0.693060 0.482010 0.494380 0.937554
C43   C     C_R   0.672775 0.748406 0.652471 0.119080
C44   C     C_R   0.568953 0.857526 0.633483 -0.150213
C45   C     C_R   0.645250 0.998815 0.614210 -0.126790
C46   C     C_R   0.824973 0.031594 0.613412 -0.090418
C47   C     C_R   0.929034 0.923281 0.632153 -0.171765
C48   C     C_R   0.853277 0.782482 0.651904 -0.150267
H17   H     H_    0.429421 0.833734 0.633945 0.126390
H18   H     H_    0.565334 0.082484 0.599472 0.131302
H19   H     H_    0.883514 0.140721 0.598176 0.141248
H20   H     H_    0.068358 0.948317 0.631352 0.125029
H21   H     H_    0.935198 0.699428 0.666374 0.146963
C49   C     C_R   0.327362 0.251486 0.347527 0.119100
C50   C     C_R   0.146899 0.217169 0.348034 -0.150330
C51   C     C_R   0.071278 0.076297 0.367772 -0.171628
C52   C     C_R   0.175439 0.968145 0.386558 -0.090309
C53   C     C_R   0.355123 0.001165 0.385820 -0.126865
C54   C     C_R   0.431281 0.142528 0.366561 -0.150191
H22   H     H_    0.064901 0.300092 0.333528 0.146905
H23   H     H_    0.931982 0.051081 0.368531 0.124968
H24   H     H_    0.117006 0.858959 0.401781 0.141292
H25   H     H_    0.435121 0.917623 0.400592 0.131253
H26   H     H_    0.570788 0.166500 0.366145 0.126406
C55   C     C_R   0.584960 0.849852 0.264866 0.153549
C56   C     C_R   0.472499 0.925441 0.236464 -0.145559
C57   C     C_R   0.521023 0.074462 0.217509 -0.159918
C58   C     C_R   0.680539 0.150830 0.227400 -0.092544
C59   C     C_R   0.792373 0.077806 0.256037 -0.137452
C60   C     C_R   0.745218 0.928063 0.274698 -0.111339
H27   H     H_    0.347047 0.869360 0.229070 0.153660
H28   H     H_    0.434519 0.131042 0.195259 0.136087
H29   H     H_    0.717427 0.266556 0.212869 0.163926
H30   H     H_    0.916287 0.136769 0.263458 0.146646
H31   H     H_    0.834964 0.872177 0.296088 0.139994
C61   C     C_R   0.414957 0.150102 0.735118 0.153512
C62   C     C_R   0.254702 0.071892 0.725278 -0.111370
C63   C     C_R   0.207545 0.922140 0.743932 -0.137495
C64   C     C_R   0.319375 0.849104 0.772568 -0.092573
C65   C     C_R   0.478888 0.925468 0.782465 -0.159885
C66   C     C_R   0.527412 0.074499 0.763518 -0.145570
H32   H     H_    0.164962 0.127780 0.703886 0.140051
H33   H     H_    0.083633 0.863178 0.736507 0.146707
H34   H     H_    0.282486 0.733370 0.787092 0.163942
H35   H     H_    0.565389 0.868878 0.804714 0.136078
H36   H     H_    0.652863 0.130576 0.770917 0.153667

loop_
_geom_bond_atom_site_label_1
_geom_bond_atom_site_label_2
_ccdc_geom_bond_type
C57   C58   A    
C8    C26   A    
C14   C18   A    
C62   C63   A    
C34   C42   A    
C65   C66   A    
C24   O8    A    
C51   H23   S    
C39   C41   A    
C43   C44   A    
C40   H4    S    
C56   H27   S    
O3    Zn2   S    
C3    C18   A    
C19   C21   A    
C60   H31   S    
C9    C22   A    
C31   N1    A    
C48   H21   S    
C16   C25   A    
O7    Zn2   S    
C23   O5    A    
C50   H22   S    
C11   C37   A    
C23   O7    A    
C61   C62   A    
C15   C26   A    
C52   H24   S    
C44   H17   S    
C29   N1    A    
C30   N2    A    
C1    O3    A    
C59   H30   S    
C12   C36   A    
C47   H20   S    
C39   H3    S    
C19   H11   S    
C40   C42   A    
C55   C60   A    
N3    Zn2   S    
C45   H18   S    
N3    N4    D    
C1    O1    A    
C63   C64   A    
C2    O2    A    
C53   H25   S    
C47   C48   A    
C5    C29   A    
C10   C21   A    
C13   C19   A    
C14   C20   A    
C41   N1    S    
C4    C6    A    
C27   H15   S    
C42   N2    S    
C52   C53   A    
C5    C7    A    
C9    C31   A    
C44   C45   A    
C31   O12   S    
C6    C8    A    
C2    O4    A    
C37   C43   S    
C45   C46   A    
C38   C49   S    
C7    H5    S    
C8    H6    S    
C46   H19   S    
C3    C9    A    
C55   C56   A    
C35   H8    S    
C34   C55   S    
O2    Zn2   S    
C58   H29   S    
C62   H32   S    
C4    C17   A    
C20   H12   S    
C6    C30   A    
C20   C22   A    
N4    Zn1   S    
O5    Zn1   S    
C32   N2    A    
C4    C10   A    
C21   H9    S    
H1    N3    S    
C22   H10   S    
C64   C65   A    
C57   H28   S    
C15   C17   A    
C49   C54   A    
C25   H13   S    
C46   C47   A    
C3    C5    A    
C26   H14   S    
C30   O10   S    
C28   H16   S    
O6    Zn2   S    
C12   C24   S    
C7    C25   A    
C13   C17   A    
H2    N4    S    
C11   C35   A    
C33   C41   A    
C37   C39   A    
C38   C40   A    
C51   C52   A    
C63   H33   S    
C65   H35   S    
O1    Zn1   S    
C43   C48   A    
O4    Zn1   S    
C54   H26   S    
C11   C23   S    
C53   C54   A    
C33   C35   A    
C34   C36   A    
C12   C38   A    
C58   C59   A    
C2    C28   S    
C24   O6    A    
C64   H34   S    
C10   C32   A    
C49   C50   A    
O8    Zn1   S    
C16   C18   A    
C66   H36   S    
C13   C16   A    
C59   C60   A    
C1    C27   S    
C14   C15   A    
C56   C57   A    
C33   C61   S    
C29   O9    S    
C50   C51   A    
C61   C66   A    
C32   O11   S    
C36   H7    S    
C27   C28   D    
