data_mof_unit_14437.cif
_audit_creation_date              2012-12-10T20:53:06-0500
_audit_creation_method            fapswitch 2.2
_symmetry_space_group_name_H-M    P1
_symmetry_Int_Tables_number       1
_space_group_crystal_system       triclinic
_cell_length_a                    18.280578
_cell_length_b                    18.273464
_cell_length_c                    18.388221
_cell_angle_alpha                 60.210753
_cell_angle_beta                  60.185449
_cell_angle_gamma                 60.496375
_cell_volume                      4372.62206323

loop_
_atom_site_label
_atom_site_type_symbol
_atom_type_description
_atom_site_fract_x
_atom_site_fract_y
_atom_site_fract_z
_atom_type_partial_charge
C1    C     C_R   0.389508 0.109097 0.111004 0.483250
C2    C     C_R   0.371315 0.804365 0.788243 -0.091494
C3    C     C_R   0.023857 0.572699 0.923665 -0.011782
C4    C     C_R   0.428426 0.975214 0.077327 -0.012759
C5    C     C_R   0.571572 0.024791 0.922664 -0.012754
C6    C     C_R   0.945710 0.946094 0.554125 0.031627
C7    C     C_R   0.054291 0.053905 0.445870 0.031628
C8    C     C_R   0.945753 0.555708 0.946378 0.012375
C9    C     C_R   0.054237 0.444295 0.053630 0.012375
C10   C     C_R   0.555560 0.945862 0.946241 0.011646
C11   C     C_R   0.444441 0.054141 0.053755 0.011643
C12   C     C_R   0.192122 0.212875 0.621106 -0.099028
C13   C     C_R   0.807859 0.787182 0.378870 -0.099040
C14   C     C_R   0.182199 0.573439 0.287946 -0.050724
C15   C     C_R   0.817816 0.426520 0.712060 -0.050760
C16   C     C_R   0.586598 0.285439 0.170954 -0.070500
C17   C     C_R   0.413424 0.714568 0.829052 -0.070476
C18   C     C_R   0.282419 0.172435 0.579921 -0.063030
C19   C     C_R   0.717565 0.827623 0.420051 -0.063047
C20   C     C_R   0.091467 0.584897 0.316504 0.057912
C21   C     C_R   0.610493 0.890904 0.888995 0.483247
C22   C     C_R   0.908540 0.415098 0.683500 0.057897
C23   C     C_R   0.586042 0.314646 0.084735 0.054680
C24   C     C_R   0.413961 0.685355 0.915277 0.054668
C25   C     C_R   0.313930 0.082948 0.586150 0.052102
C26   C     C_R   0.686066 0.917099 0.413852 0.052105
C27   C     C_R   0.045028 0.639235 0.255642 -0.081398
C28   C     C_R   0.954979 0.360797 0.744365 -0.081385
C29   C     C_R   0.628158 0.253409 0.039665 -0.077190
C30   C     C_R   0.371847 0.746590 0.960345 -0.077206
C31   C     C_R   0.254429 0.034287 0.634370 -0.080919
C32   C     C_R   0.110534 0.109912 0.389629 0.482395
C33   C     C_R   0.745576 0.965748 0.365670 -0.080902
C34   C     C_R   0.088986 0.681335 0.167052 -0.100054
C35   C     C_R   0.911027 0.318703 0.832961 -0.100046
C36   C     C_R   0.670235 0.163700 0.080665 -0.097159
C37   C     C_R   0.329793 0.836303 0.919340 -0.097149
C38   C     C_R   0.164256 0.074894 0.675636 -0.091969
C39   C     C_R   0.835747 0.925140 0.324409 -0.091960
C40   C     C_R   0.179329 0.669572 0.138859 -0.094184
C41   C     C_R   0.820691 0.330431 0.861156 -0.094184
C42   C     C_R   0.670579 0.134835 0.166626 -0.096138
C43   C     C_R   0.889466 0.890088 0.610370 0.482392
C44   C     C_R   0.329468 0.865174 0.833373 -0.096127
C45   C     C_R   0.133094 0.164138 0.668916 -0.098563
C46   C     C_R   0.866897 0.835907 0.331095 -0.098560
C47   C     C_R   0.988958 0.590826 0.465315 -0.148069
C48   C     C_R   0.011037 0.409173 0.534685 -0.148080
C49   C     C_R   0.591173 0.464981 0.987058 -0.163822
C50   C     C_R   0.408827 0.535020 0.012950 -0.163828
C51   C     C_R   0.464109 0.985156 0.591321 -0.157480
C52   C     C_R   0.535892 0.014884 0.408677 -0.157479
C53   C     C_R   0.944155 0.552431 0.555070 0.020518
C54   C     C_R   0.109065 0.389489 0.111006 0.487974
C55   C     C_R   0.055841 0.447568 0.444931 0.020512
C56   C     C_R   0.552338 0.555308 0.944892 0.019112
C57   C     C_R   0.447662 0.444692 0.055114 0.019110
C58   C     C_R   0.555010 0.944388 0.552475 0.020144
C59   C     C_R   0.444990 0.055643 0.447524 0.020147
C60   C     C_R   0.955048 0.460362 0.590117 -0.032949
C61   C     C_R   0.044950 0.539637 0.409884 -0.032942
C62   C     C_R   0.459891 0.590913 0.958014 -0.036468
C63   C     C_R   0.540108 0.409087 0.041996 -0.036467
C64   C     C_R   0.591303 0.959243 0.459815 -0.033896
C65   C     C_R   0.890930 0.610512 0.888998 0.487961
C66   C     C_R   0.408697 0.040800 0.540184 -0.033887
C67   C     C_R   0.111024 0.390463 0.389676 0.505534
C68   C     C_R   0.888975 0.609537 0.610324 0.505544
C69   C     C_R   0.390382 0.389635 0.110758 0.495937
C70   C     C_R   0.609618 0.610365 0.889244 0.495939
C71   C     C_R   0.389809 0.110891 0.390346 0.501010
C72   C     C_R   0.610190 0.889116 0.609654 0.501008
C73   C     C_R   0.920356 0.188091 0.445576 -0.049458
C74   C     C_R   0.079643 0.811913 0.554411 -0.049456
C75   C     C_R   0.950961 0.354538 0.151198 -0.063062
C76   C     C_R   0.225947 0.615726 0.199213 -0.085282
C77   C     C_R   0.049042 0.645444 0.848792 -0.063050
C78   C     C_R   0.357086 0.948916 0.153548 -0.077076
C79   C     C_R   0.642907 0.051093 0.846432 -0.077067
C80   C     C_R   0.827826 0.226885 0.470860 0.144789
C81   C     C_R   0.172171 0.773117 0.529103 0.144778
C82   C     C_R   0.876077 0.337261 0.169645 0.115420
C83   C     C_R   0.123920 0.662730 0.830344 0.115423
C84   C     C_R   0.341033 0.872784 0.173396 0.099981
C85   C     C_R   0.658949 0.127234 0.826576 0.099994
C86   C     C_R   0.773877 0.173150 0.521263 -0.051998
C87   C     C_R   0.774075 0.384236 0.800798 -0.085293
C88   C     C_R   0.226123 0.826846 0.478683 -0.052002
C89   C     C_R   0.819271 0.396839 0.120701 -0.092222
C90   C     C_R   0.180704 0.603180 0.879310 -0.092245
C91   C     C_R   0.400001 0.816588 0.123642 -0.102558
C92   C     C_R   0.599982 0.183430 0.876338 -0.102552
C93   C     C_R   0.812105 0.080553 0.548841 -0.091834
C94   C     C_R   0.187896 0.919444 0.451118 -0.091829
C95   C     C_R   0.839470 0.471176 0.050374 -0.111282
C96   C     C_R   0.160503 0.528849 0.949646 -0.111299
C97   C     C_R   0.472776 0.838216 0.051548 -0.115010
C98   C     C_R   0.628729 0.195645 0.211756 -0.091505
C99   C     C_R   0.527217 0.161790 0.948444 -0.115013
C100  C     C_R   0.905864 0.039761 0.525349 0.022876
C101  C     C_R   0.094137 0.960238 0.474634 0.022876
C102  C     C_R   0.920651 0.484820 0.023412 0.007685
C103  C     C_R   0.079333 0.515190 0.976601 0.007685
C104  C     C_R   0.485643 0.919961 0.024082 0.008312
C105  C     C_R   0.514355 0.080044 0.975911 0.008311
C106  C     C_R   0.960673 0.094194 0.471711 0.005954
C107  C     C_R   0.039327 0.905807 0.528280 0.005951
C108  C     C_R   0.976136 0.427299 0.076341 -0.011781
H1    H     H_    0.297945 0.796887 0.459601 0.147614
H2    H     H_    0.338316 0.562418 0.021688 0.140127
H3    H     H_    0.435949 0.975150 0.661902 0.142473
H4    H     H_    0.564055 0.024891 0.338096 0.142490
H5    H     H_    0.959903 0.232253 0.405395 0.126622
H6    H     H_    0.040096 0.767752 0.594603 0.126624
H7    H     H_    0.988298 0.309164 0.196139 0.165708
H8    H     H_    0.011719 0.690789 0.803837 0.165682
H9    H     H_    0.312168 0.986232 0.198647 0.159156
H10   H     H_    0.687822 0.013778 0.801328 0.159145
H11   H     H_    0.767458 0.041500 0.589099 0.111552
H12   H     H_    0.702054 0.203107 0.540324 0.147610
H13   H     H_    0.232544 0.958493 0.410846 0.111551
H14   H     H_    0.790125 0.517191 0.017993 0.137350
H15   H     H_    0.209841 0.482850 0.982035 0.137389
H16   H     H_    0.518362 0.789387 0.018403 0.138770
H17   H     H_    0.481634 0.210617 0.981591 0.138765
H18   H     H_    0.213069 0.702084 0.070197 0.113219
H19   H     H_    0.786954 0.297923 0.929822 0.113223
H20   H     H_    0.703105 0.065345 0.198254 0.111494
H21   H     H_    0.296960 0.934666 0.801739 0.111475
H22   H     H_    0.063188 0.195492 0.700542 0.118136
H23   H     H_    0.240809 0.614421 0.862998 0.133529
H24   H     H_    0.936799 0.804554 0.299469 0.118139
H25   H     H_    0.295971 0.606584 0.177187 0.106110
H26   H     H_    0.704055 0.393350 0.822827 0.106110
H27   H     H_    0.628615 0.173250 0.278430 0.113323
H28   H     H_    0.371451 0.826763 0.721563 0.113308
H29   H     H_    0.167906 0.282078 0.615554 0.106522
H30   H     H_    0.832065 0.717987 0.384397 0.106518
H31   H     H_    0.218841 0.531597 0.334214 0.108401
H32   H     H_    0.781175 0.468331 0.665790 0.108427
H33   H     H_    0.554050 0.332021 0.206503 0.104245
H34   H     H_    0.759158 0.385607 0.137016 0.133523
H35   H     H_    0.445976 0.667988 0.793502 0.104245
H36   H     H_    0.327548 0.210858 0.542498 0.103369
H37   H     H_    0.672428 0.789211 0.457446 0.103378
H38   H     H_    0.975184 0.648252 0.276656 0.103684
H39   H     H_    0.024818 0.351807 0.723349 0.103696
H40   H     H_    0.627865 0.275138 0.973224 0.095211
H41   H     H_    0.372128 0.724858 0.026789 0.095211
H42   H     H_    0.277645 0.965513 0.638930 0.117179
H43   H     H_    0.722368 0.034513 0.361133 0.117189
H44   H     H_    0.053069 0.722913 0.120197 0.119806
H45   H     H_    0.610342 0.244343 0.859062 0.127820
H46   H     H_    0.946942 0.277159 0.879818 0.119812
H47   H     H_    0.702411 0.116573 0.045862 0.124480
H48   H     H_    0.297624 0.883430 0.954143 0.124488
H49   H     H_    0.118463 0.037314 0.712413 0.142429
H50   H     H_    0.881549 0.962709 0.287658 0.142459
H51   H     H_    0.389633 0.755684 0.140914 0.127828
H52   H     H_    0.981938 0.661015 0.438184 0.149759
H53   H     H_    0.018056 0.338984 0.561816 0.149760
H54   H     H_    0.661684 0.437583 0.978318 0.140128
I1    I     I_    0.769891 0.367020 0.431607 -0.356887
I2    I     I_    0.230104 0.632984 0.568337 -0.356895
I3    I     I_    0.849627 0.219404 0.269225 -0.420785
I4    I     I_    0.150390 0.780565 0.730740 -0.420719
I5    I     I_    0.226356 0.842875 0.277046 -0.404163
I6    I     I_    0.773604 0.157166 0.722891 -0.404160
O1    O     O_3   0.250000 0.250000 0.250000 -0.444976
O2    O     O_R   0.865800 0.694910 0.573470 -0.544240
O3    O     O_R   0.305090 0.426530 0.134200 -0.553818
O4    O     O_R   0.694910 0.573470 0.865800 -0.553810
O5    O     O_R   0.426530 0.134200 0.305090 -0.546254
O6    O     O_R   0.573470 0.865800 0.694910 -0.546254
O7    O     O_R   0.134190 0.426530 0.134200 -0.542780
O8    O     O_R   0.865810 0.573470 0.865800 -0.542772
O9    O     O_R   0.426530 0.134200 0.134190 -0.546323
O10   O     O_R   0.573470 0.865800 0.865810 -0.546329
O11   O     O_R   0.134200 0.134190 0.426530 -0.535436
O12   O     O_3   0.750000 0.750000 0.750000 -0.444977
O13   O     O_R   0.865800 0.865810 0.573470 -0.535452
O14   O     O_R   0.426530 0.305080 0.134210 -0.535978
O15   O     O_R   0.573470 0.694920 0.865790 -0.535974
O16   O     O_R   0.305080 0.134210 0.426530 -0.530593
O17   O     O_R   0.694920 0.865790 0.573470 -0.530594
O18   O     O_R   0.134210 0.426530 0.305080 -0.529521
O19   O     O_R   0.865790 0.573470 0.694920 -0.529518
O20   O     O_R   0.305080 0.134200 0.134200 -0.546180
O21   O     O_R   0.694920 0.865800 0.865800 -0.546176
O22   O     O_R   0.134200 0.134200 0.305080 -0.535701
O23   O     O_R   0.865800 0.865800 0.694920 -0.535689
O24   O     O_R   0.134200 0.305080 0.134200 -0.547965
O25   O     O_R   0.865800 0.694920 0.865800 -0.547960
O26   O     O_R   0.134200 0.305090 0.426530 -0.544244
Zn1   Zn    Zn3+2 0.206620 0.206630 0.380140 0.943026
Zn2   Zn    Zn3+2 0.793380 0.793370 0.619860 0.943017
Zn3   Zn    Zn3+2 0.206630 0.380140 0.206620 0.932899
Zn4   Zn    Zn3+2 0.793370 0.619860 0.793380 0.932905
Zn5   Zn    Zn3+2 0.380140 0.206620 0.206630 0.927179
Zn6   Zn    Zn3+2 0.619860 0.793380 0.793370 0.927173
Zn7   Zn    Zn3+2 0.206620 0.206620 0.206620 0.938483
Zn8   Zn    Zn3+2 0.793380 0.793380 0.793380 0.938487

loop_
_geom_bond_atom_site_label_1
_geom_bond_atom_site_label_2
_ccdc_geom_bond_type
C25   C31   A    
C48   C55   A    
O2    Zn2   S    
C101  C107  A    
C49   C63   A    
O5    Zn5   S    
C41   H19   S    
C36   C42   A    
C1    C11   S    
C35   H46   S    
C58   C72   S    
C29   H40   S    
O1    Zn1   S    
O11   Zn1   S    
C9    C108  A    
C29   C36   A    
C33   C39   A    
C82   C89   A    
C54   O24   A    
C34   C40   A    
C23   C29   A    
O1    Zn3   S    
C86   C93   A    
C97   H16   S    
O12   Zn8   S    
C42   C98   A    
C59   C66   A    
C22   C60   S    
C13   C46   A    
C52   H4    S    
C89   H34   S    
C74   H6    S    
C79   H10   S    
C4    C104  A    
O20   Zn7   S    
C50   H2    S    
C73   H5    S    
C69   O3    A    
C20   C61   S    
C19   C26   A    
C53   C68   S    
C70   O4    A    
O7    Zn3   S    
C38   C45   A    
C80   C86   A    
C74   C107  A    
C25   C66   S    
C68   O2    A    
C85   C92   A    
C15   C22   A    
C75   C82   A    
C94   C101  A    
C2    C44   A    
C11   C105  A    
C51   H3    S    
O24   Zn7   S    
O18   Zn3   S    
O4    Zn4   S    
C92   H45   S    
O23   Zn8   S    
C72   O6    A    
C5    C79   A    
C77   H8    S    
C91   H51   S    
O12   Zn2   S    
C67   O18   A    
C42   H20   S    
C69   O14   A    
O1    Zn5   S    
C48   C60   A    
C23   C63   S    
O26   Zn1   S    
C6    C107  A    
C43   O23   A    
C8    C65   S    
C27   C34   A    
C22   C28   A    
C71   O5    A    
C2    C17   A    
C85   I6    S    
C87   H26   S    
C18   C25   A    
C1    O9    A    
C41   C87   A    
C53   C60   A    
C57   C63   A    
C65   O25   A    
C47   H52   S    
C10   C21   S    
C58   C64   A    
C99   C105  A    
C83   I4    S    
C88   C94   A    
C17   C24   A    
C13   C19   A    
O19   Zn4   S    
C97   C104  A    
C14   C20   A    
C78   H9    S    
C28   C35   A    
C99   H17   S    
C3    C8    A    
C52   C64   A    
C31   H42   S    
C34   H44   S    
C30   H41   S    
C5    C105  A    
C48   H53   S    
C44   H21   S    
C98   H27   S    
C43   O13   A    
O16   Zn1   S    
C2    H28   S    
O25   Zn8   S    
C40   C76   A    
C30   C37   A    
C51   C66   A    
C6    C100  A    
C54   O7    A    
C89   C95   A    
C80   I1    S    
C4    C78   A    
O12   Zn6   S    
C52   C59   A    
C26   C33   A    
C21   O21   A    
C9    C103  A    
C40   H18   S    
C7    C106  A    
C32   O22   A    
C32   O11   A    
C51   C58   A    
C19   H37   S    
C91   C97   A    
C4    C11   A    
C102  C108  A    
C93   C100  A    
C49   H54   S    
C39   C46   A    
C90   H23   S    
C95   H14   S    
C21   O10   A    
C84   C91   A    
C37   H48   S    
C16   C23   A    
C56   C70   S    
C6    C43   S    
C39   H50   S    
C33   H43   S    
C50   C62   A    
C81   I2    S    
C56   C62   A    
C75   H7    S    
C88   H1    S    
C74   C81   A    
C67   O26   A    
C79   C85   A    
C15   C87   A    
C15   H32   S    
C75   C108  A    
C1    O20   A    
C3    C103  A    
C83   C90   A    
O10   Zn6   S    
C28   H39   S    
C24   C62   S    
C7    C32   S    
C96   H15   S    
C14   C76   A    
C50   C57   A    
C100  C106  A    
C71   O16   A    
O14   Zn5   S    
C38   H49   S    
O8    Zn4   S    
C12   C45   A    
C47   C61   A    
C55   C67   S    
C76   H25   S    
C95   C102  A    
O22   Zn7   S    
C90   C96   A    
C20   C27   A    
C26   C64   S    
O21   Zn8   S    
O13   Zn2   S    
C49   C56   A    
C93   H11   S    
O6    Zn6   S    
O15   Zn6   S    
C31   C38   A    
C47   C53   A    
C17   H35   S    
C13   H30   S    
C37   C44   A    
C18   H36   S    
C16   H33   S    
C5    C10   A    
C65   O8    A    
C84   I5    S    
C46   H24   S    
C16   C98   A    
C73   C106  A    
C27   H38   S    
C55   C61   A    
C10   C104  A    
C73   C80   A    
C35   C41   A    
C24   C30   A    
C72   O17   A    
C81   C88   A    
O12   Zn4   S    
O9    Zn5   S    
O1    Zn7   S    
C68   O19   A    
C94   H13   S    
C78   C84   A    
C70   O15   A    
C45   H22   S    
C14   H31   S    
C36   H47   S    
O3    Zn3   S    
C7    C101  A    
C96   C103  A    
C12   C18   A    
C77   C83   A    
C12   H29   S    
C86   H12   S    
C9    C54   S    
O17   Zn2   S    
C57   C69   S    
C8    C102  A    
C92   C99   A    
C59   C71   S    
C82   I3    S    
C3    C77   A    
