data_mof_unit_11579.cif
_audit_creation_date              2013-03-05T16:17:52-0500
_audit_creation_method            fapswitch 2.2
_symmetry_space_group_name_H-M    P1
_symmetry_Int_Tables_number       1
_space_group_crystal_system       triclinic
_cell_length_a                    8.313955
_cell_length_b                    22.86298
_cell_length_c                    26.892098
_cell_angle_alpha                 95.848905
_cell_angle_beta                  92.926733
_cell_angle_gamma                 89.777669
_cell_volume                      5078.4497276

loop_
_atom_site_label
_atom_site_type_symbol
_atom_site_description
_atom_site_fract_x
_atom_site_fract_y
_atom_site_fract_z
_atom_type_partial_charge
P1    P     P_3+3 0.092730 0.547450 0.611370 0.497988
O1    O     O_2   0.919820 0.530450 0.618560 -0.364106
O2    O     O_3   0.151800 0.530410 0.558380 -0.390315
O3    O     O_3   0.654050 0.426350 0.586890 -0.389585
O4    O     O_2   0.824654 0.448603 0.669349 -0.366989
O5    O     O_3   0.098619 0.623541 0.626841 -0.551172
O6    O     O_3   0.631649 0.357492 0.667462 -0.562234
H1    H     H_    0.720965 0.328711 0.597745 0.152517
C1    C     C_3   0.681100 0.252865 0.634884 -0.449862
H2    H     H_    0.666387 0.225288 0.598476 0.169524
H3    H     H_    0.810229 0.249606 0.645337 0.237953
P2    P     P_3+3 0.606840 0.368620 0.459370 0.483109
P3    P     P_3+3 0.072512 0.320915 0.563295 0.402895
O7    O     O_2   0.782760 0.360070 0.473730 -0.366926
O8    O     O_3   0.056430 0.397060 0.562000 -0.395204
O9    O     O_2   0.929674 0.293011 0.530170 -0.403739
O10   O     O_3   0.592066 0.351988 0.394360 -0.554315
O11   O     O_3   0.042201 0.298647 0.623008 -0.579295
C2    C     C_3   0.084442 0.342309 0.662657 0.626957
H4    H     H_    0.046049 0.386364 0.653439 0.136444
C3    C     C_3   0.997147 0.328124 0.709184 -0.888227
H5    H     H_    0.868324 0.323384 0.701253 0.287606
H6    H     H_    0.042804 0.286419 0.722507 0.237243
C4    C     C_3   0.157746 0.349113 0.415749 0.411992
H7    H     H_    0.283351 0.363634 0.424370 0.101663
H8    H     H_    0.084545 0.359520 0.448906 0.132962
C5    C     C_3   0.155379 0.282922 0.401817 -0.921729
H9    H     H_    0.229138 0.271460 0.368932 0.272257
H10   H     H_    0.205232 0.259820 0.433333 0.227038
H11   H     H_    0.029683 0.267699 0.392540 0.262426
Ba1   Ba    Ba6+2 0.848110 0.472730 0.522970 1.546952
C6    C     C_3   0.023884 0.652264 0.588724 0.403958
H12   H     H_    0.908057 0.631078 0.575617 0.110758
H13   H     H_    0.104977 0.651871 0.557211 0.096627
C7    C     C_3   0.992229 0.715460 0.609769 -0.906588
H14   H     H_    0.922330 0.715839 0.643925 0.285877
H15   H     H_    0.921824 0.739387 0.582310 0.227413
H16   H     H_    0.108299 0.738757 0.619577 0.249743
C8    C     C_3   0.658944 0.397214 0.370983 0.439394
H17   H     H_    0.784170 0.405753 0.385569 0.103213
H18   H     H_    0.585636 0.437805 0.376891 0.112934
C9    C     C_3   0.660056 0.377532 0.315170 -0.966945
H19   H     H_    0.727348 0.335572 0.308965 0.271601
H20   H     H_    0.719131 0.410753 0.295078 0.216928
H21   H     H_    0.534611 0.370889 0.299389 0.269551
P4    P     P_3+3 0.096970 0.452510 0.388620 0.479633
O12   O     O_2   0.269870 0.469530 0.381410 -0.355988
O13   O     O_3   0.037890 0.469550 0.441610 -0.392306
O14   O     O_3   0.535640 0.573600 0.413100 -0.384411
O15   O     O_3   0.094422 0.376046 0.374809 -0.568725
P5    P     P_3+3 0.120460 0.679537 0.439746 0.433798
O16   O     O_3   0.647280 0.568810 0.525990 -0.376226
O17   O     O_3   0.133260 0.602900 0.438000 -0.386967
O18   O     O_2   0.292490 0.704227 0.452587 -0.422270
O19   O     O_3   0.069960 0.698129 0.379078 -0.571577
Ba2   Ba    Ba6+2 0.341700 0.527220 0.477020 1.548831
P6    P     P_3+3 0.650967 0.430511 0.651548 0.474328
C10   C     C_3   0.632552 0.316281 0.624297 0.377527
H22   H     H_    0.512046 0.314690 0.605182 0.029177
O20   O     O_3   0.542410 0.431140 0.474010 -0.390253
C11   C     C_3   0.539138 0.621165 0.629833 0.407206
H23   H     H_    0.416892 0.609277 0.613462 0.114724
H24   H     H_    0.616117 0.581350 0.629017 0.091454
C12   C     C_3   0.521850 0.646507 0.683826 -0.925668
H25   H     H_    0.460911 0.689906 0.684887 0.278432
H26   H     H_    0.447594 0.616963 0.703469 0.225736
H27   H     H_    0.642379 0.651975 0.703524 0.261745
P7    P     P_3+3 0.592907 0.642633 0.539888 0.454391
O21   O     O_2   0.406930 0.639920 0.526240 -0.370298
O22   O     O_3   0.611964 0.663578 0.604295 -0.554853
H28   H     H_    0.008172 0.364272 0.739912 0.237260
C13   C     C_3   0.119179 0.652483 0.344239 0.446970
H29   H     H_    0.250549 0.646042 0.348655 0.159465
H30   H     H_    0.057017 0.611159 0.349923 0.051515
C14   C     C_3   0.073148 0.665319 0.290488 -0.503342
H31   H     H_    0.084173 0.623529 0.265998 0.174126
H32   H     H_    0.945344 0.678790 0.287211 0.209265
P8    P     P_3+3 0.543518 0.571111 0.348073 0.443928
C15   C     C_3   0.610565 0.681321 0.369118 0.303227
H33   H     H_    0.741938 0.672355 0.372950 0.074741
O23   O     O_2   0.381466 0.544236 0.325970 -0.345086
O24   O     O_3   0.537183 0.642915 0.330528 -0.566074
H34   H     H_    0.555397 0.676385 0.405111 0.124811
C16   C     C_3   0.580336 0.745316 0.358943 -0.402895
H35   H     H_    0.599890 0.773362 0.394896 0.171274
H36   H     H_    0.452725 0.751376 0.346611 0.210071
C17   C     C_R   0.117805 0.512614 0.191065 0.513154
O25   O     O_2   0.224046 0.509235 0.223666 -0.570200
N1    N     N_R   0.957629 0.519826 0.203627 -0.159800
C18   C     C_R   0.842327 0.527673 0.165153 0.517990
C19   C     C_2   0.775140 0.543991 0.273670 -0.209402
C20   C     C_3   0.713949 0.526735 0.322080 0.206327
C21   C     C_1   0.977506 0.489642 0.341853 0.281029
C22   C     C_2   0.009676 0.483935 0.293267 -0.177187
C23   C     C_2   0.910581 0.516958 0.255852 0.072355
C24   C     C_R   0.047103 0.523864 0.103295 -0.070853
C25   C     C_R   0.161136 0.509800 0.140538 -0.080087
C26   C     C_R   0.316224 0.492978 0.126393 -0.036522
C27   C     C_R   0.887604 0.534648 0.116068 -0.036942
C28   C     C_2   0.853514 0.520515 0.358725 -0.502815
H37   H     H_    0.095193 0.450686 0.280046 0.178080
H38   H     H_    0.406479 0.481014 0.153996 0.204742
C29   C     C_2   0.348262 0.483828 0.640349 -0.466627
C30   C     C_R   0.276817 0.497935 0.986563 0.064202
C31   C     C_R   0.034182 0.556040 0.968366 -0.053181
C32   C     C_R   0.174467 0.525601 0.951947 0.065032
C33   C     C_R   0.407155 0.464105 0.967928 -0.229282
C34   C     C_R   0.435459 0.457643 0.917016 -0.095024
C35   C     C_R   0.340192 0.487077 0.882865 -0.031406
C36   C     C_R   0.213431 0.522885 0.900650 -0.072867
C37   C     C_R   0.126182 0.555927 0.867237 -0.104045
C38   C     C_R   0.169101 0.553723 0.816570 0.613444
N2    N     N_R   0.287669 0.515418 0.798251 -0.153542
C39   C     C_R   0.368911 0.480854 0.831232 0.540331
C40   C     C_2   0.477045 0.504237 0.728448 -0.201573
C41   C     C_3   0.503275 0.490175 0.672309 0.141162
C42   C     C_1   0.216786 0.509288 0.656971 0.296309
C43   C     C_2   0.186248 0.509008 0.704948 -0.222453
C44   C     C_2   0.322677 0.510299 0.744584 0.061991
O26   O     O_2   0.466094 0.444097 0.815750 -0.618605
C45   C     C_R   0.243743 0.504161 0.038359 0.031546
C46   C     C_R   0.091676 0.525736 0.052875 0.098850
C47   C     C_R   0.981675 0.547323 0.017037 0.048298
C48   C     C_R   0.355072 0.488216 0.076164 -0.233390
H39   H     H_    0.534689 0.429974 0.904560 0.170513
H40   H     H_    0.485012 0.439792 0.991697 0.136105
H41   H     H_    0.475124 0.473445 0.068043 0.139229
O27   O     O_2   0.699078 0.526910 0.172863 -0.619205
C49   C     C_R   0.774492 0.549211 0.078711 -0.121561
H42   H     H_    0.704334 0.574180 0.253059 0.198568
H43   H     H_    0.649751 0.556982 0.086988 0.166145
C50   C     C_R   0.956826 0.594305 0.935498 0.196028
C51   C     C_R   0.002945 0.592852 0.885698 -0.142903
O28   O     O_2   0.101412 0.586439 0.789014 -0.579677
C52   C     C_R   0.820452 0.555124 0.030254 -0.234132
H44   H     H_    0.944466 0.622490 0.861505 0.171484
H45   H     H_    0.062738 0.506763 0.715606 0.213820
H46   H     H_    0.726449 0.563515 0.002884 0.166284
H47   H     H_    0.865830 0.549817 0.393066 0.169471
H48   H     H_    0.347964 0.461326 0.602776 0.171364
H49   H     H_    0.659687 0.058685 0.380560 0.169084
H50   H     H_    0.751008 0.957411 0.377165 0.162472
C53   C     C_R   0.362511 0.334363 0.518385 -0.536852
C54   C     C_R   0.625479 0.941877 0.540052 -0.056123
C55   C     C_R   0.674685 0.882530 0.537110 0.524980
O29   O     O_2   0.666808 0.855297 0.573748 -0.581464
N3    N     N_R   0.733248 0.855145 0.493333 -0.164861
C56   C     C_R   0.748052 0.886410 0.452233 0.502922
O30   O     O_2   0.804277 0.862584 0.414259 -0.621390
C57   C     C_R   0.697180 0.945612 0.453681 -0.037737
C58   C     C_R   0.635727 0.973410 0.497929 -0.018499
C59   C     C_R   0.565714 0.970365 0.584164 -0.118985
C60   C     C_R   0.516839 0.029002 0.586434 -0.133637
C61   C     C_R   0.525315 0.060956 0.544574 -0.031715
C62   C     C_R   0.584524 0.033033 0.500131 -0.020237
C63   C     C_R   0.704966 0.977553 0.411795 -0.131951
C64   C     C_R   0.652154 0.035854 0.413737 -0.117040
C65   C     C_R   0.591804 0.064362 0.457833 -0.054734
C66   C     C_R   0.538487 0.123403 0.460525 0.529343
N4    N     N_R   0.485816 0.151613 0.505015 -0.159977
C67   C     C_R   0.476909 0.120325 0.546489 0.501217
C68   C     C_2   0.926200 0.774128 0.480353 -0.161733
C69   C     C_3   0.971646 0.710268 0.484798 0.189393
C70   C     C_1   0.694804 0.693068 0.503553 0.273122
C71   C     C_2   0.652167 0.748684 0.501824 -0.226768
C72   C     C_2   0.775003 0.793037 0.490683 0.116363
C73   C     C_R   0.298508 0.233809 0.530859 -0.215017
C74   C     C_R   0.260461 0.293822 0.536200 0.230278
C75   C     C_R   0.499055 0.315595 0.493282 0.292524
C76   C     C_R   0.541159 0.255745 0.489550 -0.227494
C77   C     C_R   0.441827 0.213867 0.508527 0.110670
O31   O     O_2   0.536898 0.149367 0.422973 -0.588422
O32   O     O_2   0.427779 0.144254 0.585445 -0.639526
C78   C     C_2   0.823118 0.671922 0.481374 -0.494669
H51   H     H_    0.472046 0.049245 0.621213 0.164238
H52   H     H_    0.215542 0.202806 0.543518 0.182661
H53   H     H_    0.556550 0.947384 0.617200 0.170500
H54   H     H_    0.529988 0.762513 0.509269 0.173013
H55   H     H_    0.019014 0.805398 0.473996 0.154837
H56   H     H_    0.650139 0.241895 0.471410 0.188104
H57   H     H_    0.330382 0.380438 0.521503 0.178698
H58   H     H_    0.826067 0.626616 0.464810 0.165690
C79   C     C_3   0.587115 0.222553 0.672846 -0.172212
C80   C     C_3   0.629543 0.244974 0.727339 -0.863407
H59   H     H_    0.758628 0.236648 0.736754 0.252775
H60   H     H_    0.604866 0.292422 0.734918 0.301674
H61   H     H_    0.556106 0.221134 0.752132 0.239645
H62   H     H_    0.456314 0.223841 0.664319 0.215281
H63   H     H_    0.619517 0.175132 0.668497 0.208041
C81   C     C_3   0.182851 0.710252 0.270291 -0.248840
C82   C     C_3   0.151703 0.773560 0.291572 -0.819125
H64   H     H_    0.026885 0.786689 0.281187 0.253362
H65   H     H_    0.171482 0.779135 0.332848 0.289812
H66   H     H_    0.235941 0.803338 0.275596 0.226948
H67   H     H_    0.310584 0.698494 0.277723 0.228173
H68   H     H_    0.161579 0.707567 0.228971 0.192070
C83   C     C_3   0.692857 0.767526 0.321462 -0.202165
C84   C     C_3   0.653607 0.742048 0.267479 -0.892426
H69   H     H_    0.663781 0.693462 0.263336 0.284228
H70   H     H_    0.530345 0.755016 0.255178 0.258146
H71   H     H_    0.739884 0.759763 0.242609 0.237760
H72   H     H_    0.681145 0.816107 0.323023 0.217476
H73   H     H_    0.819480 0.757861 0.332777 0.231452
C85   C     C_2   0.617105 0.524999 0.762170 1.101230
O33   O     O_2   0.750009 0.503230 0.756510 -0.608654
O34   O     O_R   0.597112 0.570420 0.800218 -0.821229
H74   H     H_    0.701085 0.580454 0.820440 0.321414
C86   C     C_3   0.847923 0.644958 0.953205 -0.403652
C87   C     C_3   0.676718 0.638023 0.929504 -0.861054
H75   H     H_    0.673091 0.651074 0.890852 0.267677
H76   H     H_    0.633173 0.592001 0.928098 0.262265
H77   H     H_    0.593549 0.667238 0.951530 0.254009
H78   H     H_    0.845212 0.652051 0.994479 0.201731
H79   H     H_    0.899298 0.686537 0.942659 0.198153
C88   C     C_3   0.267429 0.343047 0.673513 -0.402035
C89   C     C_3   0.322306 0.363159 0.727929 -0.776180
H80   H     H_    0.250650 0.400970 0.742844 0.246534
H81   H     H_    0.309121 0.326835 0.751866 0.252328
H82   H     H_    0.449316 0.377123 0.731141 0.309026
H83   H     H_    0.312598 0.298461 0.664067 0.214163
H84   H     H_    0.321243 0.371654 0.648174 0.168775

loop_
_geom_bond_atom_site_label_1
_geom_bond_atom_site_label_2
_geom_bond_distance
_ccdc_geom_bond_type
C11   O22   1.400467 S    
C52   H46   1.076202 S    
O5    C6    1.391759 S    
C82   H65   1.108165 S    
C86   H78   1.106619 S    
C5    H10   1.105797 S    
C75   C76   1.406001 A    
C61   C67   1.410896 A    
C2    H4    1.103687 S    
C89   H82   1.100955 S    
Ba1   O16   2.751158 S    
C14   H31   1.110070 S    
C78   H58   1.085762 S    
C30   C32   1.423280 A    
C55   O29   1.222560 D    
C85   O34   1.397293 S    
C8    H18   1.110585 S    
C19   H42   1.082437 S    
C34   C35   1.403983 A    
C26   C48   1.398224 A    
C21   C22   1.340290 D    
P3    O11   1.763612 S    
C3    H28   1.108119 S    
C53   H57   1.081756 S    
C5    H9    1.110701 S    
C70   C71   1.323447 D    
C28   H47   1.084877 S    
C89   H81   1.110388 S    
O11   C2    1.415713 S    
C54   C58   1.409606 A    
C15   C16   1.533136 S    
C76   C77   1.417022 A    
C40   C41   1.537611 S    
C24   C27   1.401412 A    
C88   H84   1.102966 S    
P1    Ba1   3.378087 S    
C87   H77   1.110272 S    
O14   P8    1.748400 S    
C31   C47   1.433755 A    
P1    O1    1.517592 D    
O10   C8    1.395044 S    
C59   H53   1.083266 S    
C11   H24   1.109754 S    
C8    C9    1.522869 S    
C43   C44   1.514575 S    
C45   C48   1.414204 A    
H1    C10   1.107944 S    
C68   C72   1.360583 D    
C64   C65   1.408338 A    
N3    C56   1.386832 Am   
C22   H37   1.084587 S    
P7    O21   1.570812 D    
P2    O10   1.749020 S    
C51   H44   1.083417 S    
C79   H62   1.100777 S    
C33   C34   1.393966 A    
C4    C5    1.521450 S    
P5    C69   1.861463 S    
C84   H69   1.108366 S    
C58   C62   1.422866 A    
Ba1   Ba2   4.559654 S    
P6    C41   1.892615 S    
C43   H45   1.082899 S    
C1    H2    1.110705 S    
O7    Ba1   2.815194 S    
O6    C10   1.418850 S    
C2    C88   1.534226 S    
O19   C13   1.403865 S    
O16   P7    1.753720 S    
C81   H68   1.111689 S    
C1    H3    1.099982 S    
C11   H23   1.110277 S    
C73   C74   1.401561 A    
C57   C63   1.407738 A    
C3    H5    1.084989 S    
C40   C85   1.487404 S    
C5    H11   1.110835 S    
C71   H54   1.085016 S    
C29   C42   1.313549 D    
C9    H20   1.106201 S    
C7    H14   1.110998 S    
C13   C14   1.533326 S    
C79   H63   1.112115 S    
C38   N2    1.391535 Am   
C55   N3    1.385987 Am   
C25   C26   1.404116 A    
C31   C50   1.433681 A    
P7    C70   1.823146 S    
C4    O15   1.394613 S    
P4    O13   1.542900 S    
C45   C46   1.414357 A    
C66   O31   1.221939 D    
C27   C49   1.404902 A    
C82   H64   1.109080 S    
C12   H27   1.110710 S    
C7    H16   1.110799 S    
C4    H7    1.103068 S    
C53   C75   1.394276 A    
C13   H30   1.106527 S    
C35   C36   1.405213 A    
C38   O28   1.221652 D    
C19   C20   1.510990 S    
O34   H74   1.011788 S    
C50   C51   1.408866 A    
P3    C74   1.836595 S    
C73   C77   1.414700 A    
C30   C45   1.426344 A    
P8    C20   1.863112 S    
C10   H22   1.101461 S    
C26   H38   1.082510 S    
C70   C78   1.315189 D    
C56   C57   1.413848 A    
C36   C37   1.404213 A    
C17   C25   1.418530 A    
C76   H56   1.081936 S    
O1    Ba1   2.804139 S    
P1    O2    1.542874 S    
C9    H21   1.110762 S    
C6    H13   1.108850 S    
Ba1   O20   2.918762 S    
N1    C23   1.484871 S    
C11   C12   1.521114 S    
C88   C89   1.535340 S    
C6    C7    1.524054 S    
C81   C82   1.527424 S    
C2    C3    1.541009 S    
C1    C79   1.537165 S    
N3    C72   1.456014 S    
C67   O32   1.220159 D    
O2    Ba2   2.757610 S    
P8    O24   1.753574 S    
C66   N4    1.390402 Am   
C89   H80   1.101296 S    
C49   C52   1.396274 A    
C14   C81   1.534203 S    
C84   H71   1.110100 S    
C87   H75   1.109192 S    
C61   C62   1.407280 A    
C79   C80   1.526490 S    
C83   H72   1.111291 S    
N2    C44   1.479697 S    
C16   H35   1.109417 S    
O2    Ba1   2.923211 S    
C14   H32   1.106837 S    
C21   C28   1.320443 D    
C86   C87   1.531641 S    
C68   H55   1.085569 S    
C81   H67   1.107717 S    
C48   H41   1.078231 S    
C35   C39   1.413703 A    
H49   C64   1.083193 S    
P2    O7    1.510629 D    
C50   C86   1.520259 S    
C22   C23   1.525295 S    
C40   C44   1.377625 D    
Ba1   O13   2.757012 S    
P3    O8    1.749245 S    
P2    Ba1   3.386969 S    
C65   C66   1.415102 A    
C34   H39   1.083498 S    
C15   H33   1.112066 S    
C9    H19   1.110795 S    
P4    Ba2   3.378503 S    
N1    C18   1.398859 Am   
C18   C27   1.415492 A    
C8    H17   1.104618 S    
C24   C25   1.404139 A    
C20   C28   1.499424 S    
N2    C39   1.394597 Am   
C32   C36   1.428222 A    
O17   Ba2   2.694281 S    
O13   Ba2   2.923961 S    
C60   H51   1.083355 S    
P4    O12   1.517746 D    
C63   C64   1.398514 A    
C86   H79   1.112198 S    
C37   C38   1.421922 A    
C7    H15   1.105846 S    
C37   C51   1.403127 A    
C4    H8    1.110453 S    
C33   H40   1.078855 S    
C16   H36   1.107746 S    
C13   H29   1.103529 S    
C15   O24   1.404976 S    
C84   H70   1.109300 S    
O8    Ba1   2.693623 S    
P2    C75   1.849772 S    
C24   C46   1.428587 A    
C16   C83   1.534029 S    
C68   C69   1.521649 S    
O14   Ba2   2.710505 S    
C31   C32   1.422402 A    
P4    O15   1.749784 S    
C42   C43   1.328243 D    
C80   H61   1.110242 S    
O4    P6    1.542440 D    
C54   C55   1.411305 A    
P5    O18   1.549066 D    
C6    H12   1.104690 S    
C3    H6    1.111098 S    
C29   C41   1.511160 S    
C46   C47   1.418537 A    
C82   H66   1.110247 S    
C54   C59   1.406601 A    
C88   H83   1.094830 S    
C12   H25   1.110788 S    
C15   H34   1.108150 S    
P8    O23   1.547991 D    
P4    C21   1.836417 S    
C62   C65   1.408545 A    
C87   H76   1.110425 S    
N4    C77   1.463068 S    
C80   H60   1.103577 S    
C83   H73   1.108540 S    
P5    O19   1.757480 S    
C56   O30   1.221253 D    
C83   C84   1.527752 S    
N4    C67   1.390166 Am   
C53   C74   1.395205 A    
O3    Ba1   2.711135 S    
P5    O17   1.750958 S    
C19   C23   1.367087 D    
C29   H48   1.086002 S    
P2    O20   1.544669 S    
Ba2   O20   2.750558 S    
C71   C72   1.504065 S    
C85   O33   1.220356 D    
C1    C10   1.553702 S    
C17   O25   1.220224 D    
P7    O22   1.748667 S    
Ba2   O21   2.815621 S    
P3    O9    1.546876 D    
C47   C52   1.410206 A    
P1    O5    1.747294 S    
C17   N1    1.395564 Am   
C18   O27   1.219760 D    
C57   C58   1.409364 A    
C73   H52   1.082152 S    
C80   H59   1.110227 S    
C59   C60   1.395608 A    
H50   C63   1.083296 S    
C60   C61   1.407859 A    
P1    C42   1.846841 S    
C69   C78   1.510716 S    
O6    P6    1.775010 S    
C30   C33   1.411940 A    
C39   O26   1.220721 D    
O16   Ba2   2.918017 S    
O3    P6    1.733182 S    
C12   H26   1.107113 S    
O12   Ba2   2.804510 S    
C49   H43   1.082010 S    
