data_mof_unit_18074.cif
_audit_creation_date              2012-12-10T20:39:10-0500
_audit_creation_method            fapswitch 2.2
_symmetry_space_group_name_H-M    P1
_symmetry_Int_Tables_number       1
_space_group_crystal_system       triclinic
_cell_length_a                    19.189199
_cell_length_b                    10.77913
_cell_length_c                    9.893359
_cell_angle_alpha                 90.006169
_cell_angle_beta                  87.135206
_cell_angle_gamma                 89.532362
_cell_volume                      2043.74498939

loop_
_atom_site_label
_atom_site_type_symbol
_atom_type_description
_atom_site_fract_x
_atom_site_fract_y
_atom_site_fract_z
_atom_type_partial_charge
C1    C     C_R   0.504754 0.260336 0.498363 0.900528
C2    C     C_R   0.854385 0.505876 0.504421 -0.028381
C3    C     C_R   0.526476 0.061155 0.608513 -0.029066
C4    C     C_R   0.365784 0.500629 0.503086 0.879833
C5    C     C_R   0.518128 0.129166 0.490686 -0.279690
C6    C     C_R   0.518821 0.062647 0.365220 -0.127739
C7    C     C_R   0.521065 0.933104 0.368090 0.436342
C8    C     C_R   0.507746 0.871435 0.493493 -0.231073
C9    C     C_R   0.506439 0.941950 0.610649 -0.113007
C10   C     C_3   0.484373 0.941431 0.758840 0.336062
C11   C     C_3   0.513479 0.074036 0.759201 0.269611
C12   C     C_R   0.290440 0.501177 0.510422 -0.036942
C13   C     C_R   0.438736 0.499471 0.077911 0.250478
C14   C     C_R   0.560779 0.505961 0.062984 0.007714
C15   C     C_R   0.559948 0.512215 0.920637 -0.216042
C16   C     C_R   0.500692 0.739855 0.499139 0.866045
C17   C     C_R   0.438476 0.498401 0.935054 0.166781
C18   C     C_3   0.385082 0.397439 0.938935 -0.277547
C19   C     C_3   0.385372 0.400624 0.092330 -0.549609
C20   C     C_R   0.634305 0.500946 0.497557 0.882487
C21   C     C_R   0.254123 0.575258 0.606444 -0.285756
C22   C     C_R   0.181142 0.575525 0.615443 0.499922
C23   C     C_R   0.929596 0.501971 0.515441 0.283017
C24   C     C_R   0.145380 0.497592 0.528337 0.004440
C25   C     C_R   0.182592 0.423151 0.432816 -0.221389
C26   C     C_R   0.254744 0.425338 0.423650 -0.177203
C27   C     C_3   0.597465 0.829632 0.220776 0.130963
C28   C     C_3   0.642444 0.931121 0.152842 -0.394948
C29   C     C_3   0.713112 0.880212 0.100285 -0.889535
C30   C     C_3   0.368451 0.879843 0.713277 0.123130
C31   C     C_3   0.337588 0.963643 0.605163 -0.379022
C32   C     C_3   0.314506 0.889621 0.483997 -0.920361
C33   C     C_3   0.609080 0.191598 0.814199 0.132256
C34   C     C_R   0.069367 0.496822 0.530717 0.317332
C35   C     C_3   0.683619 0.179624 0.860764 -0.330914
C36   C     C_3   0.727444 0.292506 0.820495 -0.926410
C37   C     C_2   0.629512 0.484485 0.116079 0.920600
C38   C     C_2   0.315770 0.437071 0.888463 0.991795
C39   C     C_3   0.155119 0.769072 0.701170 0.057342
C40   C     C_3   0.101384 0.839430 0.791520 -0.302200
C41   C     C_3   0.111510 0.979426 0.779926 -0.920594
C42   C     C_3   0.881245 0.457850 0.196537 0.076762
C43   C     C_3   0.871741 0.393940 0.060979 -0.334064
C44   C     C_3   0.891489 0.479064 0.941998 -0.939703
C45   C     C_R   0.813626 0.575576 0.598598 -0.228575
C46   C     C_2   0.513203 0.119856 0.229563 0.982483
C47   C     C_R   0.741618 0.575979 0.593714 -0.200466
C48   C     C_R   0.709705 0.506099 0.495204 -0.105862
C49   C     C_R   0.750062 0.436551 0.401306 -0.290527
C50   C     C_R   0.822377 0.439197 0.402079 0.497005
H1    H     H_    0.282726 0.631778 0.674684 0.145947
H2    H     H_    0.837326 0.627749 0.677599 0.174212
H3    H     H_    0.710743 0.629459 0.668029 0.165405
H4    H     H_    0.726043 0.377942 0.329225 0.219942
H5    H     H_    0.595664 0.750572 0.149786 0.212993
H6    H     H_    0.622062 0.794501 0.313382 0.121754
H7    H     H_    0.614926 0.970983 0.066575 0.281466
H8    H     H_    0.651432 0.005827 0.227132 0.229366
H9    H     H_    0.740796 0.835317 0.183537 0.270520
H10   H     H_    0.745587 0.957325 0.058496 0.255889
H11   H     H_    0.706140 0.811700 0.018318 0.290945
H12   H     H_    0.512913 0.873113 0.820184 0.146054
H13   H     H_    0.324748 0.843664 0.779114 0.157807
H14   H     H_    0.394481 0.796415 0.669705 0.150924
H15   H     H_    0.292138 0.015893 0.650996 0.228758
H16   H     H_    0.376449 0.032929 0.567972 0.243931
H17   H     H_    0.274161 0.821513 0.516102 0.238806
H18   H     H_    0.359616 0.839773 0.433986 0.278316
H19   H     H_    0.292202 0.953735 0.409378 0.282037
H20   H     H_    0.579968 0.261491 0.877778 0.166068
H21   H     H_    0.612101 0.222947 0.706937 0.160843
H22   H     H_    0.682476 0.168076 0.972477 0.257522
H23   H     H_    0.474966 0.147015 0.792167 0.118447
H24   H     H_    0.708796 0.095885 0.813554 0.232560
H25   H     H_    0.727306 0.308245 0.709580 0.271768
H26   H     H_    0.782151 0.275880 0.847312 0.264578
H27   H     H_    0.707156 0.376508 0.874417 0.274044
H28   H     H_    0.726981 0.547572 0.137078 0.333135
H29   H     H_    0.235968 0.560387 0.900917 0.360468
H30   H     H_    0.148754 0.798209 0.594181 0.143265
H31   H     H_    0.207883 0.794257 0.732627 0.140904
H32   H     H_    0.047988 0.815953 0.761627 0.237666
H33   H     H_    0.106543 0.810953 0.898583 0.231917
H34   H     H_    0.608525 0.517324 0.860915 0.172721
H35   H     H_    0.164205 0.005194 0.811684 0.271761
H36   H     H_    0.071772 0.027946 0.846570 0.269341
H37   H     H_    0.105451 0.010317 0.674000 0.270157
H38   H     H_    0.937258 0.480595 0.204971 0.168818
H39   H     H_    0.851150 0.547236 0.197632 0.115463
H40   H     H_    0.904666 0.308640 0.053952 0.238070
H41   H     H_    0.816244 0.366732 0.055494 0.237293
H42   H     H_    0.857145 0.562588 0.944128 0.265098
H43   H     H_    0.885127 0.429006 0.845352 0.272704
H44   H     H_    0.946737 0.508228 0.945975 0.277895
H45   H     H_    0.405522 0.308842 0.894503 0.150741
H46   H     H_    0.463031 0.123521 0.055252 0.336334
H47   H     H_    0.336429 0.435988 0.143918 0.224422
H48   H     H_    0.406144 0.314532 0.137379 0.221130
H49   H     H_    0.155900 0.363928 0.364013 0.173402
H50   H     H_    0.282697 0.365751 0.351055 0.150362
N1    N     N_R   0.035607 0.397813 0.481813 -0.182882
N2    N     N_R   0.966801 0.400192 0.474765 -0.119877
N3    N     N_R   0.963115 0.600265 0.566352 -0.190381
N4    N     N_R   0.031952 0.597864 0.573276 -0.138720
N5    N     N_R   0.499530 0.499140 0.142800 -0.140541
N6    N     N_R   0.499530 0.499180 0.857150 -0.135967
O1    O     O_R   0.500010 0.316790 0.614690 -0.649800
O2    O     O_3   0.411633 0.949679 0.795711 -0.641358
O3    O     O_3   0.576333 0.075233 0.828164 -0.670839
O4    O     O_2   0.644232 0.381448 0.157198 -0.595568
O5    O     O_R   0.680515 0.575940 0.103355 -0.878004
O6    O     O_2   0.285582 0.369111 0.812091 -0.621804
O7    O     O_R   0.284779 0.548566 0.933488 -0.821427
O8    O     O_3   0.144574 0.640315 0.717678 -0.645306
O9    O     O_3   0.860850 0.375231 0.302479 -0.632773
O10   O     O_2   0.557965 0.190868 0.185388 -0.607122
O11   O     O_R   0.459313 0.084019 0.148275 -0.764683
O12   O     O_R   0.500000 0.316760 0.385350 -0.585381
O13   O     O_R   0.398140 0.500000 0.614710 -0.612851
O14   O     O_R   0.398130 0.499970 0.385370 -0.623510
O15   O     O_R   0.500000 0.683240 0.614650 -0.636352
O16   O     O_R   0.499990 0.683210 0.385310 -0.579159
O17   O     O_R   0.601870 0.500030 0.614630 -0.640958
O18   O     O_R   0.601860 0.500000 0.385290 -0.599991
O19   O     O_3   0.527543 0.869785 0.245921 -0.603189
Zn1   Zn    Zn3+2 0.500000 0.500020 0.653130 0.931492
Zn2   Zn    Zn3+2 0.500000 0.499980 0.346870 1.006675

loop_
_geom_bond_atom_site_label_1
_geom_bond_atom_site_label_2
_ccdc_geom_bond_type
C31   H16   S    
C35   H24   S    
N1    N2    A    
C30   H14   S    
C11   O3    S    
C10   O2    S    
C35   C36   S    
C43   C44   S    
C19   H47   S    
O14   Zn2   S    
C7    C8    A    
C28   H7    S    
C41   H36   S    
C1    C5    S    
C15   N6    A    
C28   C29   S    
C18   C19   S    
C36   H27   S    
C30   C31   S    
C27   H5    S    
C23   N2    A    
C49   H4    S    
C50   O9    S    
O16   Zn2   S    
C16   O16   A    
C20   O17   A    
C44   H43   S    
C36   H26   S    
C25   H49   S    
C14   N5    A    
C23   N3    A    
C29   H9    S    
C8    C9    A    
C4    O13   A    
H28   O5    S    
C4    C12   S    
C2    C50   A    
C9    C10   S    
C44   H42   S    
C47   H3    S    
C8    C16   S    
C21   C22   A    
C18   H45   S    
C40   H33   S    
C10   H12   S    
C19   H48   S    
C6    C7    A    
C45   C47   A    
C2    C45   A    
C41   H37   S    
C29   H11   S    
C43   H40   S    
C20   O18   A    
N5    Zn2   S    
C34   N1    A    
C40   H32   S    
H46   O11   S    
C3    C11   S    
C24   C25   A    
C39   H31   S    
C13   N5    A    
C11   H23   S    
C39   C40   S    
C38   O7    S    
C13   C19   S    
C27   H6    S    
O17   Zn1   S    
C45   H2    S    
C25   C26   A    
C12   C21   A    
C43   H41   S    
C46   O11   S    
C12   C26   A    
C16   O15   A    
C3    C9    A    
C36   H25   S    
C47   C48   A    
C29   H10   S    
C39   O8    S    
C2    C23   S    
C17   C18   S    
C7    O19   S    
C34   N4    A    
C37   O4    D    
C20   C48   S    
C33   H20   S    
C1    O1    A    
C32   H17   S    
C48   C49   A    
C35   H22   S    
H29   O7    S    
C22   C24   A    
C42   H38   S    
C42   C43   S    
C38   O6    D    
C21   H1    S    
C31   H15   S    
C40   C41   S    
C6    C46   S    
C30   O2    S    
C32   H19   S    
C31   C32   S    
O1    Zn1   S    
C3    C5    A    
C15   H34   S    
C28   H8    S    
C41   H35   S    
N6    Zn1   S    
C46   O10   D    
C42   H39   S    
C39   H30   S    
C18   C38   S    
O15   Zn1   S    
C17   N6    A    
C14   C37   S    
C27   O19   S    
C5    C6    A    
C33   C35   S    
C1    O12   A    
C32   H18   S    
C24   C34   S    
C37   O5    S    
C44   H44   S    
C10   C11   S    
C33   H21   S    
C13   C17   A    
O13   Zn1   S    
C42   O9    S    
C22   O8    S    
C33   O3    S    
C49   C50   A    
O12   Zn2   S    
O18   Zn2   S    
N3    N4    A    
C14   C15   A    
C4    O14   A    
C30   H13   S    
C26   H50   S    
C27   C28   S    
