data_mof_unit_13207.cif
_audit_creation_date              2012-12-11T14:21:09-0500
_audit_creation_method            fapswitch 2.2
_symmetry_space_group_name_H-M    P1
_symmetry_Int_Tables_number       1
_space_group_crystal_system       triclinic
_cell_length_a                    11.526509
_cell_length_b                    11.645888
_cell_length_c                    19.538083
_cell_angle_alpha                 89.69684
_cell_angle_beta                  89.394248
_cell_angle_gamma                 59.472259
_cell_volume                      2259.04321391

loop_
_atom_site_label
_atom_site_type_symbol
_atom_type_description
_atom_site_fract_x
_atom_site_fract_y
_atom_site_fract_z
_atom_type_partial_charge
C1    C     C_R   0.640417 0.116611 0.599401 0.561512
C2    C     C_1   0.653090 0.148549 0.668711 0.005844
C3    C     C_R   0.692994 0.565339 0.206090 0.007360
C4    C     C_R   0.612785 0.745416 0.598502 0.553037
C5    C     C_R   0.560874 0.626676 0.235333 -0.028587
C6    C     C_R   0.535024 0.711068 0.290213 0.010297
C7    C     C_R   0.776378 0.600462 0.312007 -0.120168
C8    C     C_R   0.800923 0.546561 0.246515 0.331141
C9    C     C_R   0.450446 0.619385 0.208114 -0.063993
C10   C     C_R   0.318795 0.708226 0.227541 -0.121471
C11   C     C_R   0.293568 0.806711 0.273521 -0.127580
C12   C     C_1   0.641281 0.703148 0.667876 0.008738
C13   C     C_R   0.400170 0.813535 0.301593 -0.058234
C14   C     C_R   0.643900 0.688736 0.332470 -0.058078
C15   C     C_R   0.142231 0.191041 0.193345 -0.016679
C16   C     C_R   0.240994 0.144993 0.598090 0.552207
C17   C     C_R   0.208601 0.251357 0.222076 -0.071627
C18   C     C_R   0.195756 0.274719 0.292820 0.000971
C19   C     C_R   0.109482 0.124602 0.307307 0.310933
C20   C     C_R   0.090607 0.129520 0.236634 -0.109483
C21   C     C_R   0.263720 0.310783 0.180561 -0.038004
C22   C     C_R   0.266894 0.420722 0.203989 0.320788
C23   C     C_1   0.126900 0.200207 0.859362 0.008038
C24   C     C_R   0.229759 0.463066 0.271382 -0.070588
C25   C     C_R   0.194826 0.391001 0.316029 0.381030
C26   C     C_R   0.172689 0.187547 0.335464 0.046624
C27   C     C_R   0.655864 0.168238 0.184987 0.004702
C28   C     C_R   0.620296 0.079546 0.394508 0.532633
C29   C     C_R   0.717048 0.032579 0.204469 0.029892
C30   C     C_R   0.718777 0.000003 0.274670 0.023110
C31   C     C_R   0.562032 0.235182 0.298367 -0.149919
C32   C     C_R   0.576849 0.266373 0.232121 -0.149777
C33   C     C_R   0.783772 0.928794 0.155978 -0.095727
C34   C     C_1   0.171344 0.170073 0.727780 -0.027771
C35   C     C_R   0.871634 0.799016 0.177066 -0.088693
C36   C     C_R   0.888675 0.769898 0.246328 -0.111832
C37   C     C_R   0.807895 0.866343 0.294450 -0.108724
C38   C     C_R   0.635517 0.103657 0.321797 0.007178
C39   C     C_R   0.081429 0.231883 0.928637 0.540093
C40   C     C_R   0.613612 0.745080 0.400556 0.531413
C41   C     C_R   0.683577 0.605035 0.929597 0.549018
C42   C     C_R   0.708029 0.207374 0.930052 0.542879
C43   C     C_R   0.083459 0.233980 0.125140 0.564306
C44   C     C_R   0.710983 0.542212 0.132222 0.588527
C45   C     C_1   0.150324 0.183151 0.799011 -0.028477
C46   C     C_R   0.703468 0.207112 0.123974 0.532664
C47   C     C_R   0.239018 0.146082 0.402725 0.568740
C48   C     C_1   0.670543 0.647011 0.860148 0.004948
C49   C     C_1   0.654904 0.683206 0.728350 -0.028186
C50   C     C_1   0.663684 0.666831 0.799622 -0.029511
C51   C     C_1   0.195013 0.160126 0.667361 0.009469
C52   C     C_1   0.677898 0.192614 0.860734 0.006075
C53   C     C_1   0.658462 0.166708 0.729023 -0.027633
C54   C     C_1   0.665215 0.181612 0.800340 -0.027487
Cr1   Cr    Cr6+3 0.404720 0.198220 0.499960 1.086505
Cr2   Cr    Cr6+3 0.698290 0.897110 0.500380 1.057889
Cr3   Cr    Cr6+3 0.396970 0.904720 0.499610 1.069039
Cr4   Cr    Cr6+3 0.926180 0.151990 0.028120 1.027185
Cr5   Cr    Cr6+3 0.921330 0.451820 0.027470 1.068038
Cr6   Cr    Cr6+3 0.626260 0.446870 0.028710 1.053522
F1    F     F_    0.294003 0.491955 0.158628 -0.694107
F2    F     F_    0.139398 0.448418 0.377243 -0.622353
F3    F     F_    0.928602 0.479740 0.222097 -0.650616
F4    F     F_    0.057835 0.067490 0.348916 -0.631578
H1    H     H_    0.859849 0.580267 0.344804 0.184296
H2    H     H_    0.377535 0.898104 0.332210 0.151051
H3    H     H_    0.289117 0.282567 0.127346 0.150026
H4    H     H_    0.031403 0.089462 0.216204 0.162282
H5    H     H_    0.224445 0.553462 0.288957 0.135180
H6    H     H_    0.462152 0.549124 0.169594 0.217869
H7    H     H_    0.499187 0.317105 0.332449 0.157392
H8    H     H_    0.771804 0.948169 0.101503 0.134075
H9    H     H_    0.531916 0.368693 0.219311 0.151653
H10   H     H_    0.928379 0.721472 0.139725 0.170553
H11   H     H_    0.961529 0.670502 0.262914 0.181622
H12   H     H_    0.821202 0.832863 0.346480 0.175342
H13   H     H_    0.235234 0.705567 0.204675 0.184356
H14   H     H_    0.190957 0.875295 0.287181 0.195373
O1    O     O_R   0.267740 0.231960 0.575440 -0.490676
O2    O     O_R   0.596130 0.579390 0.952730 -0.497055
O3    O     O_R   0.639060 0.321160 0.958670 -0.489003
O4    O     O_R   0.527280 0.186640 0.570530 -0.487422
O5    O     O_R   0.821240 0.124200 0.104370 -0.522670
O6    O     O_R   0.036890 0.167040 0.097840 -0.516464
O7    O     O_R   0.056180 0.349610 0.102880 -0.455518
O8    O     O_R   0.797660 0.564870 0.097950 -0.455661
O9    O     O_R   0.595880 0.584250 0.104270 -0.542901
O10   O     O_R   0.638830 0.325670 0.099150 -0.510373
O11   O     O_3   0.824590 0.350230 0.028100 -0.288106
O12   O     O_R   0.685970 0.784660 0.430010 -0.530308
O13   O     O_R   0.728090 0.003450 0.576380 -0.491328
O14   O     O_R   0.682970 0.789190 0.570490 -0.489179
O15   O     O_R   0.499290 0.771880 0.575530 -0.496608
O16   O     O_R   0.285330 0.030870 0.569730 -0.487246
O17   O     O_R   0.270980 0.227080 0.423890 -0.458580
O18   O     O_R   0.530280 0.182120 0.430050 -0.492225
O19   O     O_R   0.731330 0.998570 0.424830 -0.489050
O20   O     O_R   0.502530 0.767000 0.423990 -0.502620
O21   O     O_R   0.288330 0.026350 0.429250 -0.488567
O22   O     O_3   0.499990 0.000020 0.499980 -0.304723
O23   O     O_R   0.821500 0.119340 0.952830 -0.508061
O24   O     O_R   0.037130 0.162530 0.957360 -0.492952
O25   O     O_R   0.056440 0.344740 0.951340 -0.506969
O26   O     O_R   0.797900 0.560360 0.957470 -0.496270

loop_
_geom_bond_atom_site_label_1
_geom_bond_atom_site_label_2
_ccdc_geom_bond_type
C28   O19   A    
C35   H10   S    
C23   C45   T    
C27   C29   A    
C19   C20   A    
C18   C26   A    
C16   C51   S    
C41   O2    A    
C12   C49   T    
Cr6   O10   S    
C7    C8    A    
C53   C54   S    
C42   O3    A    
C34   C51   T    
Cr5   O26   S    
C36   C37   A    
C11   H14   S    
C40   O20   A    
C5    C6    A    
C7    H1    S    
Cr3   O21   S    
C29   C33   A    
C47   O21   A    
C30   C38   A    
C1    C2    S    
Cr5   O11   S    
C19   C26   A    
C33   H8    S    
Cr6   O9    S    
Cr2   O13   S    
C35   C36   A    
Cr1   O22   S    
Cr4   O24   S    
C4    C12   S    
C44   O9    A    
C9    C10   A    
C4    O14   A    
Cr2   O12   S    
C1    O13   A    
Cr3   O15   S    
C21   C22   A    
C21   H3    S    
C43   O6    A    
C18   C25   A    
Cr2   O19   S    
C44   O8    A    
C10   H13   S    
C52   C54   T    
C24   H5    S    
C46   O10   A    
C13   H2    S    
C7    C14   A    
C15   C20   A    
C3    C44   S    
C43   O7    A    
C24   C25   A    
Cr1   O17   S    
C3    C8    A    
C32   H9    S    
Cr4   O23   S    
C1    O4    A    
Cr6   O11   S    
Cr3   O22   S    
C17   C21   A    
C46   O5    A    
C30   C37   A    
Cr5   O7    S    
C5    C9    A    
C29   C30   A    
C36   H11   S    
Cr4   O6    S    
C6    C14   A    
Cr1   O1    S    
Cr6   O3    S    
C31   C32   A    
C28   C38   S    
C19   F4    S    
C17   C18   A    
C34   C45   S    
C9    H6    S    
Cr1   O4    S    
C26   C47   S    
C27   C46   S    
C37   H12   S    
Cr3   O16   S    
C22   C24   A    
Cr2   O22   S    
C42   O23   A    
C39   O24   A    
C15   C17   A    
Cr6   O2    S    
C27   C32   A    
C20   H4    S    
Cr1   O18   S    
C3    C5    A    
C2    C53   T    
C31   C38   A    
C39   O25   A    
C16   O16   A    
C41   O26   A    
C28   O18   A    
C16   O1    A    
Cr5   O25   S    
Cr5   O8    S    
C15   C43   S    
Cr4   O5    S    
C6    C13   A    
C11   C13   A    
C23   C39   S    
Cr3   O20   S    
C48   C50   T    
C33   C35   A    
C41   C48   S    
C25   F2    S    
Cr4   O11   S    
C10   C11   A    
C8    F3    S    
C14   C40   S    
C4    O15   A    
Cr2   O14   S    
C49   C50   S    
C47   O17   A    
C40   O12   A    
C42   C52   S    
C31   H7    S    
C22   F1    S    
