data_mof_unit_16302.cif
_audit_creation_date              2012-12-10T16:44:14-0500
_audit_creation_method            fapswitch 2.2
_symmetry_space_group_name_H-M    P1
_symmetry_Int_Tables_number       1
_space_group_crystal_system       triclinic
_cell_length_a                    7.448032
_cell_length_b                    8.731969
_cell_length_c                    13.434484
_cell_angle_alpha                 94.092717
_cell_angle_beta                  78.215618
_cell_angle_gamma                 103.023748
_cell_volume                      833.013804857

loop_
_atom_site_label
_atom_site_type_symbol
_atom_type_description
_atom_site_fract_x
_atom_site_fract_y
_atom_site_fract_z
_atom_type_partial_charge
C1    C     C_R   0.545753 0.799834 0.500106 0.923277
C2    C     C_R   0.424421 0.423858 0.968599 0.046574
C3    C     C_R   0.483666 0.426022 0.861458 0.062759
C4    C     C_R   0.562580 0.477134 0.030344 0.066514
C5    C     C_R   0.751733 0.537605 0.983300 0.054351
C6    C     C_R   0.807042 0.520434 0.878742 -0.303679
C7    C     C_R   0.677781 0.439875 0.821857 0.260704
C8    C     C_R   0.520348 0.471868 0.136598 -0.235496
C9    C     C_R   0.843977 0.594434 0.147149 0.354344
C10   C     C_R   0.347475 0.410984 0.798251 -0.105433
C11   C     C_2   0.567875 0.966920 0.499616 -0.445546
C12   C     C_R   0.400021 0.466269 0.691524 0.791808
C13   C     C_2   0.433623 0.033720 0.480493 0.200691
C14   C     C_R   0.456755 0.200421 0.492850 0.792088
C15   C     C_R   0.600882 0.513936 0.306242 0.842903
C16   C     C_R   0.888189 0.600057 0.041611 -0.211189
C17   C     C_R   0.659080 0.526533 0.195349 -0.136096
C18   C     C_R   0.161329 0.342754 0.839132 -0.240034
C19   C     C_R   0.104308 0.317428 0.943012 -0.135274
C20   C     C_R   0.231306 0.365980 0.008149 -0.137473
Cu1   Cu    Cu3+1 0.321300 0.483160 0.488710 1.020164
Cu2   Cu    Cu3+1 0.678700 0.516840 0.511290 1.020246
H1    H     H_    0.012015 0.618955 0.578511 0.233571
H2    H     H_    0.988073 0.381298 0.421346 0.240332
H3    H     H_    0.953965 0.552984 0.843402 0.155621
H4    H     H_    0.031823 0.648073 0.004768 0.178661
H5    H     H_    0.380324 0.421511 0.175423 0.183783
H6    H     H_    0.059976 0.309564 0.790645 0.164480
H7    H     H_    0.174131 0.354073 0.088273 0.154343
H8    H     H_    0.958450 0.267046 0.973896 0.159572
H9    H     H_    0.696493 0.037502 0.519075 0.164597
N1    N     N_2   0.947230 0.542220 0.528320 -0.187427
N2    N     N_2   0.052770 0.457780 0.471680 -0.186155
O1    O     O_R   0.383920 0.714220 0.492660 -0.525296
O2    O     O_R   0.685730 0.742660 0.511730 -0.554731
O3    O     O_R   0.275440 0.478800 0.636790 -0.620975
O4    O     O_R   0.577250 0.507240 0.655860 -0.562870
O5    O     O_R   0.314270 0.257340 0.488270 -0.552311
O6    O     O_R   0.616080 0.285780 0.507340 -0.610796
O7    O     O_R   0.422750 0.492760 0.344140 -0.568279
O8    O     O_R   0.724560 0.521200 0.363210 -0.537225
Cl1   Cl    Cl    0.025755 0.674878 0.213966 -0.558284
Cl2   Cl    Cl    0.227392 0.933000 0.436044 -0.520855
N3    N     N_2   0.742017 0.347996 0.735395 -0.388211
H10   H     H_    0.880567 0.385833 0.701174 0.253603
C21   C     C_3   0.685970 0.179694 0.748267 -0.677473
H11   H     H_    0.754282 0.118656 0.680853 0.225551
H12   H     H_    0.531313 0.140156 0.756182 0.231841
H13   H     H_    0.730004 0.146629 0.816545 0.218730

loop_
_geom_bond_atom_site_label_1
_geom_bond_atom_site_label_2
_ccdc_geom_bond_type
C2    C4    A    
C18   H6    S    
C6    C7    A    
Cu2   O4    S    
H2    N2    S    
C13   C14   S    
C14   O5    A    
C8    C17   A    
C1    C11   S    
C4    C8    A    
H1    N1    S    
C2    C3    A    
C11   H9    S    
C3    C10   A    
C7    N3    S    
N1    N2    D    
Cu2   O2    S    
C11   C13   D    
C21   H13   S    
C15   O8    A    
C9    Cl1   S    
Cu1   O7    S    
Cu2   N1    S    
C10   C18   A    
Cu2   O6    S    
C10   C12   S    
C9    C17   A    
C9    C16   A    
N3    C21   S    
C1    O1    A    
C3    C7    A    
C20   H7    S    
C16   H4    S    
C5    C6    A    
C21   H12   S    
C15   O7    A    
C6    H3    S    
C12   O3    A    
C2    C20   A    
Cu2   O8    S    
C13   Cl2   S    
Cu1   N2    S    
N3    H10   S    
C1    O2    A    
C15   C17   S    
C18   C19   A    
C12   O4    A    
Cu1   O3    S    
C8    H5    S    
C21   H11   S    
C5    C16   A    
Cu1   O1    S    
C14   O6    A    
Cu1   Cu2   S    
C19   H8    S    
Cu1   O5    S    
C19   C20   A    
C4    C5    A    
