data_mof_unit_21242.cif
_audit_creation_date              2012-12-10T19:27:45-0500
_audit_creation_method            fapswitch 2.2
_symmetry_space_group_name_H-M    P1
_symmetry_Int_Tables_number       1
_space_group_crystal_system       triclinic
_cell_length_a                    17.752206
_cell_length_b                    16.486941
_cell_length_c                    11.469937
_cell_angle_alpha                 90.069278
_cell_angle_beta                  88.252669
_cell_angle_gamma                 87.002362
_cell_volume                      3350.85077489

loop_
_atom_site_label
_atom_site_type_symbol
_atom_type_description
_atom_site_fract_x
_atom_site_fract_y
_atom_site_fract_z
_atom_type_partial_charge
C1    C     C_R   0.354475 0.501885 0.500606 0.952615
C2    C     C_3   0.580157 0.507295 0.929318 0.336259
C3    C     C_R   0.839447 0.584742 0.495182 0.298257
C4    C     C_R   0.845645 0.454385 0.595732 0.319363
C5    C     C_R   0.766347 0.569382 0.457843 0.297930
C6    C     C_R   0.774879 0.436771 0.552973 0.294202
C7    C     C_R   0.730436 0.499053 0.498392 -0.331676
C8    C     C_R   0.880050 0.524656 0.557875 -0.249440
C9    C     C_1   0.961405 0.524732 0.557222 0.275571
C10   C     C_1   0.029290 0.521308 0.548758 0.223613
C11   C     C_R   0.153097 0.573226 0.591775 0.361398
C12   C     C_R   0.147798 0.454798 0.465711 0.368399
C13   C     C_R   0.231645 0.566671 0.580933 -0.090768
C14   C     C_R   0.226827 0.450309 0.456104 -0.211856
C15   C     C_R   0.270047 0.506372 0.512226 -0.171487
C16   C     C_R   0.489739 0.499850 0.259768 1.063684
C17   C     C_R   0.110477 0.516197 0.535452 -0.162109
C18   C     C_R   0.576608 0.813248 0.568865 0.148651
C19   C     C_R   0.581938 0.175212 0.461591 0.226947
C20   C     C_R   0.559724 0.729887 0.560849 0.766995
C21   C     C_R   0.565145 0.260791 0.453912 0.739997
C22   C     C_R   0.454016 0.763533 0.448315 0.383734
C23   C     C_R   0.447547 0.246439 0.549115 0.463929
C24   C     C_R   0.481201 0.844300 0.431257 0.174573
C25   C     C_R   0.471869 0.166428 0.586053 0.236039
C26   C     C_R   0.536004 0.872107 0.505241 -0.273491
C27   C     C_R   0.535048 0.126778 0.530205 -0.266528
C28   C     C_1   0.543869 0.961302 0.521884 0.292896
C29   C     C_1   0.543521 0.036084 0.529036 0.329047
C30   C     C_R   0.645651 0.498427 0.496954 0.978450
C31   C     C_R   0.501792 0.499457 0.740827 1.028323
C32   C     C_3   0.418979 0.573313 0.071998 0.347300
C33   C     C_3   0.456072 0.404190 0.073767 0.336964
C34   C     C_3   0.437424 0.582046 0.926359 0.370835
C35   C     C_3   0.460474 0.404578 0.927266 0.348360
C36   C     C_3   0.563529 0.514733 0.066427 0.945344
C37   C     C_3   0.479024 0.497130 0.120177 -0.576904
C38   C     C_3   0.494782 0.498291 0.878076 -0.627279
Cu1   Cu    Cu3+1 0.499980 0.580420 0.499990 1.212227
Cu2   Cu    Cu3+1 0.499980 0.419580 0.499990 1.220366
H1    H     H_    0.262297 0.608919 0.628508 0.263641
H2    H     H_    0.253953 0.404286 0.401524 0.276891
N1    N     N_R   0.499970 0.701220 0.499970 -0.314816
N2    N     N_R   0.499970 0.298780 0.499970 -0.298876
O1    O     O_R   0.391240 0.567930 0.499990 -0.516071
O2    O     O_R   0.391240 0.432070 0.499990 -0.557773
O3    O     O_R   0.499970 0.567910 0.317690 -0.508663
O4    O     O_R   0.499970 0.432090 0.317690 -0.491131
O5    O     O_R   0.608730 0.567880 0.500000 -0.524145
O6    O     O_R   0.608730 0.432120 0.500000 -0.515490
O7    O     O_R   0.500000 0.567910 0.682300 -0.488505
O8    O     O_R   0.500000 0.432090 0.682300 -0.515208
S1    S     S_3+6 0.430263 0.667992 0.166067 0.171749
O9    O     O_2   0.391204 0.741944 0.116130 -0.133072
O10   O     O_2   0.388874 0.656203 0.279936 -0.206298
O11   O     O_3   0.516426 0.695293 0.204984 -0.417755
H3    H     H_    0.511649 0.754485 0.219791 0.365226
S2    S     S_3+6 0.513605 0.316035 0.145234 0.188092
O12   O     O_2   0.480714 0.297730 0.263392 -0.193804
O13   O     O_2   0.508617 0.234462 0.089545 -0.155505
O14   O     O_3   0.604312 0.329559 0.167986 -0.359415
H4    H     H_    0.629620 0.274626 0.163852 0.424786
S3    S     S_3+6 0.650630 0.842604 0.658503 0.159758
O15   O     O_2   0.616702 0.870720 0.774125 -0.175858
O16   O     O_2   0.707060 0.773185 0.678436 -0.124627
O17   O     O_3   0.696031 0.919492 0.596970 -0.465270
H5    H     H_    0.713425 0.898959 0.518993 0.359585
S4    S     S_3+6 0.663755 0.129071 0.390758 0.103330
O18   O     O_2   0.703132 0.186801 0.311643 -0.180865
O19   O     O_2   0.717016 0.099233 0.482614 -0.245567
O20   O     O_3   0.639325 0.049457 0.311123 -0.481301
H6    H     H_    0.687112 0.017197 0.294634 0.384774
F1    F     F_    0.602085 0.678866 0.625793 -0.536555
F2    F     F_    0.610717 0.304919 0.387495 -0.539933
S5    S     S_3+6 0.353173 0.771239 0.466421 0.146998
O21   O     O_2   0.318503 0.694537 0.498616 -0.272636
O22   O     O_2   0.333753 0.832109 0.561830 -0.230103
O23   O     O_3   0.311097 0.804050 0.344734 -0.384417
H7    H     H_    0.257877 0.817516 0.368993 0.397266
S6    S     S_3+6 0.354005 0.244905 0.497380 0.110309
O24   O     O_2   0.346765 0.298087 0.394426 -0.250341
O25   O     O_2   0.339281 0.160433 0.457408 -0.193606
O26   O     O_3   0.286614 0.272612 0.597505 -0.469298
H8    H     H_    0.238659 0.272645 0.555546 0.392312
S7    S     S_3+6 0.438651 0.918006 0.334182 0.102864
O27   O     O_2   0.373677 0.962956 0.397037 -0.158619
O28   O     O_2   0.495070 0.978110 0.295722 -0.241070
O29   O     O_3   0.407809 0.876611 0.212720 -0.432444
H9    H     H_    0.382921 0.922291 0.170036 0.407778
S8    S     S_3+6 0.417041 0.110443 0.687615 0.146032
O30   O     O_2   0.380642 0.043181 0.625385 -0.196332
O31   O     O_2   0.468554 0.073601 0.777124 -0.225750
O32   O     O_3   0.349615 0.169957 0.755296 -0.375527
H10   H     H_    0.324426 0.133821 0.811449 0.400143
S9    S     S_3+6 0.313743 0.573536 0.110291 0.176878
O33   O     O_2   0.279849 0.658888 0.102068 -0.152062
O34   O     O_2   0.261500 0.528146 0.039802 -0.115968
O35   O     O_3   0.297833 0.546362 0.249422 -0.495008
H11   H     H_    0.246389 0.569005 0.270363 0.386793
S10   S     S_3+6 0.363850 0.373665 0.140233 0.168075
O36   O     O_2   0.359584 0.409217 0.259592 -0.267255
O37   O     O_2   0.289742 0.393512 0.087850 -0.145899
O38   O     O_3   0.362648 0.271452 0.151462 -0.376143
H12   H     H_    0.311747 0.260018 0.183125 0.406168
S11   S     S_3+6 0.357070 0.597032 0.821116 0.118273
O39   O     O_2   0.351901 0.527339 0.740622 -0.356631
O40   O     O_2   0.280764 0.617681 0.875195 -0.154602
O41   O     O_3   0.370250 0.671830 0.722918 -0.437477
H13   H     H_    0.326057 0.710826 0.731708 0.415002
S12   S     S_3+6 0.366933 0.381355 0.865177 0.168476
O42   O     O_2   0.337299 0.303655 0.911704 -0.132411
O43   O     O_2   0.303003 0.441641 0.885172 -0.174465
O44   O     O_3   0.376137 0.367133 0.721109 -0.444271
H14   H     H_    0.327629 0.388426 0.690310 0.396554
S13   S     S_3+6 0.468446 0.688891 0.902634 0.163636
O45   O     O_2   0.502321 0.699842 0.783790 -0.190719
O46   O     O_2   0.399898 0.746913 0.906044 -0.197393
O47   O     O_3   0.525727 0.729739 0.997592 -0.392014
H15   H     H_    0.524837 0.788505 0.979104 0.402594
S14   S     S_3+6 0.509171 0.303753 0.869830 0.176087
O48   O     O_2   0.459566 0.234449 0.894471 -0.136629
O49   O     O_2   0.522036 0.298429 0.741152 -0.268200
O50   O     O_3   0.591507 0.270101 0.923545 -0.395132
H16   H     H_    0.604892 0.217884 0.883190 0.401769
F3    F     F_    0.579488 0.591938 0.095083 -0.526275
F4    F     F_    0.617005 0.469461 0.124641 -0.561033
S15   S     S_3+6 0.641701 0.590414 0.874323 0.207826
O51   O     O_2   0.666354 0.570274 0.750528 -0.259472
O52   O     O_2   0.624042 0.679130 0.874491 -0.097047
O53   O     O_3   0.717945 0.584514 0.959122 -0.377153
H17   H     H_    0.758778 0.609019 0.912477 0.400845
S16   S     S_3+6 0.655181 0.424507 0.888262 0.158086
O54   O     O_2   0.634311 0.380986 0.780818 -0.198526
O55   O     O_2   0.731568 0.453643 0.852715 -0.199605
O56   O     O_3   0.679903 0.360378 0.995019 -0.392809
H18   H     H_    0.723539 0.383196 0.033122 0.417662
S17   S     S_3+6 0.879901 0.680513 0.473705 0.139480
O57   O     O_2   0.919588 0.702087 0.582410 -0.194520
O58   O     O_2   0.936318 0.673805 0.373311 -0.211061
O59   O     O_3   0.814909 0.755510 0.447562 -0.433422
H19   H     H_    0.843813 0.804988 0.438156 0.387920
S18   S     S_3+6 0.890070 0.392214 0.703231 0.139356
O60   O     O_2   0.957061 0.345322 0.649053 -0.190621
O61   O     O_2   0.916743 0.445891 0.797939 -0.223062
O62   O     O_3   0.829916 0.327030 0.762212 -0.399627
H20   H     H_    0.858080 0.299291 0.825250 0.394903
S19   S     S_3+6 0.728873 0.623538 0.336247 0.156063
O63   O     O_2   0.791566 0.646887 0.253958 -0.162271
O64   O     O_2   0.678130 0.570519 0.271612 -0.174140
O65   O     O_3   0.679015 0.707737 0.381179 -0.506319
H21   H     H_    0.658154 0.732104 0.309362 0.378806
S20   S     S_3+6 0.762661 0.335083 0.512096 0.158023
O66   O     O_2   0.698947 0.301413 0.582558 -0.204386
O67   O     O_2   0.745845 0.335981 0.384643 -0.173536
O68   O     O_3   0.840832 0.274602 0.528311 -0.416674
H22   H     H_    0.828277 0.221203 0.496707 0.411527
S21   S     S_3+6 0.109870 0.656959 0.669813 0.107214
O69   O     O_2   0.074462 0.714654 0.583581 -0.199688
O70   O     O_2   0.049993 0.628362 0.753266 -0.202899
O71   O     O_3   0.173579 0.706148 0.744473 -0.475402
H23   H     H_    0.144615 0.752619 0.781976 0.410190
S22   S     S_3+6 0.098023 0.383177 0.387450 0.074579
O72   O     O_2   0.072253 0.319177 0.470470 -0.210857
O73   O     O_2   0.030526 0.424276 0.332142 -0.234822
O74   O     O_3   0.154608 0.338951 0.282730 -0.475122
H24   H     H_    0.123890 0.297636 0.247012 0.404221

loop_
_geom_bond_atom_site_label_1
_geom_bond_atom_site_label_2
_ccdc_geom_bond_type
Cu1   O7    S    
S3    O16   D    
C33   S2    S    
C5    S19   S    
C27   C29   S    
S9    O33   D    
S19   O63   D    
C18   C26   A    
C31   O8    A    
C4    C8    A    
C16   O4    A    
C13   H1    S    
O62   H20   S    
S9    O35   S    
O50   H16   S    
S7    O27   D    
O41   H13   S    
Cu2   O2    S    
S17   O58   D    
C25   S8    S    
O74   H24   S    
C28   C29   T    
C19   C21   A    
C24   C26   A    
S22   O72   D    
S4    O20   S    
C4    S18   S    
C18   S3    S    
S7    O29   S    
C10   C17   S    
S2    O13   D    
S13   O45   D    
S22   O74   S    
O11   H3    S    
S12   O42   D    
O47   H15   S    
S21   O69   D    
C11   C17   A    
C36   F3    S    
C8    C9    S    
S13   O46   D    
C12   C17   A    
C2    S16   S    
C3    S17   S    
C23   S6    S    
C19   C27   A    
C24   S7    S    
C18   C20   A    
S14   O50   S    
C16   C37   S    
Cu1   O1    S    
C6    S20   S    
C2    S15   S    
S2    O14   S    
S7    O28   D    
O17   H5    S    
C30   O6    A    
S3    O17   S    
S21   O70   D    
C7    C30   S    
S18   O62   S    
C35   S14   S    
C22   S5    S    
S6    O26   S    
C16   O3    A    
S11   O41   S    
S14   O49   D    
S22   O73   D    
S1    O10   D    
S17   O59   S    
O56   H18   S    
C35   C38   S    
O59   H19   S    
C4    C6    A    
C3    C8    A    
C31   O7    A    
Cu1   Cu2   S    
C5    C7    A    
O23   H7    S    
S16   O54   D    
Cu1   N1    S    
S2    O12   D    
Cu2   O8    S    
C21   F2    S    
S10   O38   S    
C33   C37   S    
C23   N2    A    
C32   C34   S    
S5    O21   D    
S15   O52   D    
C21   N2    A    
S11   O40   D    
C2    C38   S    
S8    O31   D    
O26   H8    S    
S20   O68   S    
S13   O47   S    
S19   O65   S    
S10   O37   D    
C19   S4    S    
O32   H10   S    
C32   C37   S    
S20   O66   D    
S5    O22   D    
S12   O44   S    
C35   S12   S    
C1    C15   S    
S6    O25   D    
Cu1   O5    S    
C30   O5    A    
S20   O67   D    
S21   O71   S    
C13   C15   A    
C22   C24   A    
S15   O51   D    
C32   S1    S    
O68   H22   S    
C20   N1    A    
S14   O48   D    
C11   S21   S    
S8    O32   S    
Cu1   O3    S    
O44   H14   S    
S11   O39   D    
S1    O11   S    
C2    C36   S    
Cu2   O4    S    
C36   C37   S    
S19   O64   D    
C34   C38   S    
C34   S11   S    
S4    O18   D    
C36   F4    S    
C12   C14   A    
S6    O24   D    
C3    C5    A    
S9    O34   D    
S1    O9    D    
C6    C7    A    
C25   C27   A    
S17   O57   D    
C26   C28   S    
O65   H21   S    
C31   C38   S    
C14   H2    S    
C33   S10   S    
O71   H23   S    
O53   H17   S    
C34   S13   S    
S15   O53   S    
O20   H6    S    
C11   C13   A    
C1    O1    A    
S8    O30   D    
S16   O56   S    
Cu2   O6    S    
S10   O36   D    
C33   C35   S    
C20   F1    S    
C9    C10   T    
S18   O61   D    
C23   C25   A    
O14   H4    S    
C1    O2    A    
S5    O23   S    
S12   O43   D    
C12   S22   S    
S3    O15   D    
Cu2   N2    S    
C32   S9    S    
O29   H9    S    
S16   O55   D    
O35   H11   S    
O38   H12   S    
S18   O60   D    
S4    O19   D    
C14   C15   A    
C22   N1    A    
