data_mof_unit_68370.cif
_audit_creation_date              2012-10-26T20:13:56-0400
_audit_creation_method            fapswitch 2.2
_symmetry_space_group_name_H-M    P1
_symmetry_Int_Tables_number       1
_space_group_crystal_system       triclinic
_cell_length_a                    8.777955
_cell_length_b                    10.953599
_cell_length_c                    9.587375
_cell_angle_alpha                 91.354791
_cell_angle_beta                  97.376913
_cell_angle_gamma                 87.866237
_cell_volume                      913.398650574

loop_
_atom_site_label
_atom_site_type_symbol
_atom_type_description
_atom_site_fract_x
_atom_site_fract_y
_atom_site_fract_z
_atom_type_partial_charge
C1    C     C_R   0.498276 0.262653 0.498384 0.543526
C2    C     C_R   0.635122 0.505750 0.942980 0.123370
C3    C     C_3   0.747743 0.603509 0.945622 0.174134
C4    C     C_R   0.204526 0.496267 0.464333 0.502087
C5    C     C_3   0.715155 0.634763 0.093407 0.159118
C6    C     C_R   0.494673 0.737705 0.500577 0.532649
C7    C     C_R   0.795814 0.500519 0.535737 0.527000
C8    C     C_2   0.039602 0.488494 0.445306 -0.168388
C9    C     C_2   0.961244 0.502680 0.555245 -0.175091
C10   C     C_R   0.547562 0.065295 0.618155 -0.041617
C11   C     C_R   0.497902 0.129415 0.495270 0.009680
C12   C     C_R   0.452687 0.933733 0.373140 -0.150118
C13   C     C_R   0.447126 0.061871 0.370978 0.228432
C14   C     C_3   0.822025 0.747877 0.798582 0.033639
C15   C     C_3   0.889062 0.846891 0.900787 -0.279349
C16   C     C_3   0.942993 0.950221 0.820330 -0.507969
C17   C     C_3   0.857405 0.749036 0.267759 0.015396
C18   C     C_3   0.023902 0.784594 0.309483 -0.254037
C19   C     C_3   0.032045 0.894725 0.409382 -0.503405
C20   C     C_3   0.231980 0.165810 0.266718 0.020713
C21   C     C_3   0.121347 0.139579 0.134491 -0.278173
C22   C     C_3   0.964883 0.204089 0.141207 -0.488429
C23   C     C_R   0.491195 0.871300 0.500337 -0.061516
C24   C     C_3   0.232969 0.122238 0.713339 0.006679
C25   C     C_3   0.129015 0.230015 0.658979 -0.242513
C26   C     C_3   0.963237 0.193131 0.615408 -0.495310
C27   C     C_R   0.537476 0.939665 0.622004 -0.062788
C28   C     C_3   0.481983 0.943424 0.763940 -0.223961
C29   C     C_3   0.503810 0.081685 0.763642 0.161544
C30   C     C_R   0.632536 0.516897 0.090383 0.143625
C31   C     C_R   0.370090 0.478999 0.058055 -0.010586
C32   C     C_R   0.369462 0.481499 0.910056 0.011696
Cu1   Cu    Cu3+1 0.499990 0.499980 0.640670 0.990805
Cu2   Cu    Cu3+1 0.500010 0.500020 0.359330 0.952970
H1    H     H_    0.982397 0.471831 0.339823 0.176053
H2    H     H_    0.263975 0.462273 0.099079 0.123702
H3    H     H_    0.778942 0.786613 0.694614 0.163042
H4    H     H_    0.914021 0.680654 0.775957 0.099634
H5    H     H_    0.802293 0.884202 0.966450 0.165764
H6    H     H_    0.987389 0.807421 0.971876 0.149637
H7    H     H_    0.846764 0.987814 0.745865 0.149919
H8    H     H_    0.036852 0.915646 0.761075 0.135952
H9    H     H_    0.982646 0.024029 0.894833 0.140315
H10   H     H_    0.801802 0.736396 0.363964 0.170919
H11   H     H_    0.798581 0.828004 0.209294 0.107730
H12   H     H_    0.262455 0.469430 0.843286 0.106351
H13   H     H_    0.092045 0.708560 0.362258 0.192093
H14   H     H_    0.076728 0.806592 0.214376 0.151906
H15   H     H_    0.970294 0.974660 0.356637 0.145910
H16   H     H_    0.153700 0.916937 0.440960 0.145009
H17   H     H_    0.979792 0.874313 0.505354 0.134096
H18   H     H_    0.236317 0.266197 0.282422 0.175723
H19   H     H_    0.183423 0.127795 0.357992 0.096604
H20   H     H_    0.170152 0.171516 0.040904 0.189216
H21   H     H_    0.106766 0.039308 0.124138 0.159733
H22   H     H_    0.914518 0.175537 0.235340 0.155058
H23   H     H_    0.864896 0.561536 0.939560 0.091633
H24   H     H_    0.884922 0.180541 0.045885 0.145725
H25   H     H_    0.976946 0.304754 0.145741 0.147204
H26   H     H_    0.183065 0.078124 0.797582 0.142677
H27   H     H_    0.240442 0.057728 0.623186 0.116516
H28   H     H_    0.130147 0.302848 0.741402 0.170620
H29   H     H_    0.174689 0.266319 0.566402 0.163789
H30   H     H_    0.958909 0.101594 0.564108 0.139422
H31   H     H_    0.903126 0.258371 0.538891 0.155903
H32   H     H_    0.900607 0.193642 0.708875 0.150580
H33   H     H_    0.630507 0.713360 0.098055 0.108602
H34   H     H_    0.019384 0.515218 0.661289 0.103080
H35   H     H_    0.415397 0.883780 0.276635 0.147588
H36   H     H_    0.363226 0.911132 0.760389 0.121165
H37   H     H_    0.562702 0.898564 0.846127 0.158691
H38   H     H_    0.604749 0.109394 0.838400 0.130461
N1    N     N_R   0.500980 0.500930 0.148050 -0.251769
N2    N     N_R   0.500990 0.500890 0.852140 -0.205887
O1    O     O_R   0.500000 0.319640 0.618810 -0.462109
O2    O     O_3   0.852303 0.637951 0.188411 -0.601947
O3    O     O_3   0.381173 0.118163 0.248888 -0.546339
O4    O     O_3   0.376586 0.164691 0.774030 -0.535273
O5    O     O_R   0.500020 0.319680 0.381230 -0.477473
O6    O     O_R   0.274830 0.499980 0.591380 -0.517244
O7    O     O_R   0.274850 0.500020 0.353800 -0.527271
O8    O     O_R   0.499980 0.680320 0.618770 -0.441464
O9    O     O_R   0.500000 0.680360 0.381190 -0.525196
O10   O     O_R   0.725150 0.499980 0.646200 -0.495224
O11   O     O_R   0.725170 0.500020 0.408620 -0.477396
O12   O     O_3   0.696309 0.695523 0.849664 -0.557239

loop_
_geom_bond_atom_site_label_1
_geom_bond_atom_site_label_2
_ccdc_geom_bond_type
C10   C27   A    
C12   H35   S    
C24   H27   S    
C6    O8    A    
C19   H16   S    
C5    H33   S    
C18   H13   S    
C12   C23   A    
C20   O3    S    
C28   C29   S    
C17   H11   S    
C4    O6    A    
C32   N2    A    
C21   H20   S    
C31   N1    A    
C15   C16   S    
C18   C19   S    
C25   H29   S    
C26   H30   S    
Cu1   O1    S    
C29   O4    S    
C8    C9    D    
C1    C11   S    
C17   O2    S    
Cu2   O7    S    
C23   C27   A    
Cu1   O8    S    
C2    N2    A    
C4    C8    S    
C29   H38   S    
C7    O10   A    
C21   C22   S    
C3    O12   S    
C17   C18   S    
C13   O3    S    
C4    O7    A    
C1    O1    A    
C24   C25   S    
C14   O12   S    
C22   H25   S    
C21   H21   S    
C30   N1    A    
C22   H22   S    
C25   C26   S    
C8    H1    S    
C26   H32   S    
Cu2   O5    S    
C14   H4    S    
C19   H15   S    
C31   C32   A    
C24   H26   S    
Cu1   Cu2   S    
C12   C13   A    
C16   H9    S    
C15   H5    S    
C3    H23   S    
C24   O4    S    
C1    O5    A    
C28   H37   S    
Cu2   O9    S    
C16   H8    S    
C5    C30   S    
C7    C9    S    
C6    O9    A    
C14   C15   S    
C26   H31   S    
C32   H12   S    
C28   H36   S    
C20   H19   S    
C3    C5    S    
C18   H14   S    
C22   H24   S    
Cu1   O6    S    
C2    C30   A    
C5    O2    S    
C2    C3    S    
C9    H34   S    
C20   H18   S    
C14   H3    S    
C11   C13   A    
C10   C29   S    
C7    O11   A    
C6    C23   S    
C25   H28   S    
Cu1   O10   S    
C15   H6    S    
C17   H10   S    
C10   C11   A    
Cu2   N1    S    
C19   H17   S    
Cu1   N2    S    
C20   C21   S    
C27   C28   S    
C31   H2    S    
C16   H7    S    
Cu2   O11   S    
