data_mof_unit_39666.cif
_audit_creation_date              2012-12-10T17:02:57-0500
_audit_creation_method            fapswitch 2.2
_symmetry_space_group_name_H-M    P1
_symmetry_Int_Tables_number       1
_space_group_crystal_system       triclinic
_cell_length_a                    9.838164
_cell_length_b                    10.820173
_cell_length_c                    13.350726
_cell_angle_alpha                 94.668365
_cell_angle_beta                  81.354313
_cell_angle_gamma                 109.889517
_cell_volume                      1320.53420779

loop_
_atom_site_label
_atom_site_type_symbol
_atom_type_description
_atom_site_fract_x
_atom_site_fract_y
_atom_site_fract_z
_atom_type_partial_charge
C1    C     C_R   0.557228 0.746151 0.500300 0.935739
C2    C     C_R   0.432054 0.498055 0.972917 -0.035591
C3    C     C_R   0.466598 0.545130 0.873272 -0.054883
C4    C     C_R   0.541713 0.539926 0.038510 0.076068
C5    C     C_R   0.679281 0.635351 0.006470 -0.053832
C6    C     C_R   0.692033 0.708823 0.920302 -0.106759
C7    C     C_R   0.587614 0.661289 0.852155 0.446953
C8    C     C_R   0.518215 0.489863 0.135600 -0.163245
C9    C     C_R   0.764507 0.613417 0.164581 -0.241003
C10   C     C_R   0.372969 0.480264 0.800073 -0.166472
C11   C     C_2   0.587209 0.886946 0.487594 -0.426510
C12   C     C_R   0.422763 0.491212 0.690685 0.872504
C13   C     C_2   0.519232 0.931348 0.424366 -0.049517
C14   C     C_2   0.427076 0.111841 0.480447 0.290224
C15   C     C_2   0.536223 0.073102 0.428715 0.346676
C16   C     C_2   0.914936 0.474069 0.501538 -0.150910
C17   C     C_2   0.066199 0.491176 0.520640 0.074667
C18   C     C_R   0.446664 0.253734 0.490735 0.741769
C19   C     C_R   0.577519 0.512027 0.309414 0.836193
C20   C     C_R   0.795968 0.658918 0.065624 0.042647
C21   C     C_R   0.623714 0.535050 0.201049 -0.060494
C22   C     C_R   0.234156 0.391480 0.831261 -0.276123
C23   C     C_R   0.188994 0.363287 0.932936 0.553207
C24   C     C_R   0.289240 0.410498 0.002423 -0.231332
Cu1   Cu    Cu3+1 0.362000 0.479240 0.482530 1.012451
Cu2   Cu    Cu3+1 0.638000 0.520760 0.517470 1.035671
H1    H     H_    0.849119 0.640009 0.213616 0.194470
H2    H     H_    0.660981 0.956537 0.534902 0.166068
H3    H     H_    0.857331 0.386826 0.459444 0.201825
H4    H     H_    0.117399 0.405060 0.389354 0.193892
H5    H     H_    0.416234 0.418724 0.164705 0.139506
H6    H     H_    0.160770 0.342095 0.776505 0.196945
H7    H     H_    0.249927 0.378159 0.078739 0.143887
N1    N     N_2   0.845330 0.551960 0.543750 -0.247804
N2    N     N_2   0.154690 0.448120 0.456210 -0.319862
O1    O     O_R   0.426290 0.668220 0.490680 -0.510549
O2    O     O_R   0.659360 0.703290 0.520190 -0.556867
O3    O     O_R   0.326580 0.473880 0.629020 -0.594907
O4    O     O_R   0.559660 0.508940 0.658530 -0.522512
O5    O     O_R   0.340640 0.296710 0.479810 -0.569501
O6    O     O_R   0.573710 0.331780 0.509320 -0.565841
O7    O     O_R   0.440340 0.491060 0.341470 -0.556992
O8    O     O_R   0.673420 0.526120 0.370980 -0.594775
C25   C     C_2   0.434065 0.848309 0.345419 0.906521
O9    O     O_2   0.469720 0.758424 0.301253 -0.609015
O10   O     O_R   0.318365 0.878938 0.317096 -0.701853
H8    H     H_    0.270301 0.817203 0.261621 0.345753
O11   O     O_3   0.298503 0.017767 0.520970 -0.539832
C26   C     C_3   0.260793 0.051200 0.623312 -0.238033
H9    H     H_    0.206000 0.126375 0.628651 0.166250
H10   H     H_    0.356739 0.085641 0.666053 0.118547
H11   H     H_    0.183056 0.962024 0.660778 0.223704
C27   C     C_2   0.105941 0.553526 0.619758 0.919202
O12   O     O_2   0.202291 0.660024 0.624203 -0.567219
O13   O     O_R   0.022766 0.495222 0.708585 -0.777122
H12   H     H_    0.056460 0.548319 0.771782 0.349428
C28   C     C_2   0.925887 0.688231 0.557856 1.052256
O14   O     O_2   0.029259 0.744597 0.495694 -0.567472
O15   O     O_R   0.879458 0.759127 0.639628 -0.670162
H13   H     H_    0.936022 0.856679 0.636670 0.340949
C29   C     C_2   0.796343 0.845825 0.911409 0.922305
O16   O     O_2   0.853670 0.890393 0.828450 -0.530789
O17   O     O_R   0.825816 0.925279 0.998924 -0.776147
H14   H     H_    0.897954 0.016158 0.983635 0.366513
C30   C     C_2   0.952106 0.720714 0.024816 0.836307
O18   O     O_2   0.993283 0.708625 0.934593 -0.619993
O19   O     O_R   0.053394 0.788202 0.090422 -0.751725
H15   H     H_    0.156348 0.823898 0.053973 0.333942
O20   O     O_3   0.051016 0.276939 0.962203 -0.587392
C31   C     C_3   0.962646 0.350219 0.008020 -0.301730
H16   H     H_    0.955480 0.420874 0.954503 0.191341
H17   H     H_    0.002443 0.402949 0.078640 0.152832
H18   H     H_    0.850689 0.281403 0.029337 0.195961
O21   O     O_3   0.599184 0.734381 0.768759 -0.527621
C32   C     C_3   0.503620 0.808028 0.790565 -0.263933
H19   H     H_    0.527456 0.873372 0.859142 0.150094
H20   H     H_    0.387640 0.743183 0.799899 0.172185
H21   H     H_    0.519390 0.871640 0.725768 0.192420
O22   O     O_3   0.663505 0.168354 0.385806 -0.615585
C33   C     C_3   0.745517 0.115913 0.309082 -0.295880
H22   H     H_    0.796408 0.053678 0.341595 0.193372
H23   H     H_    0.835161 0.198616 0.271706 0.184598
H24   H     H_    0.678074 0.060358 0.249753 0.181939

loop_
_geom_bond_atom_site_label_1
_geom_bond_atom_site_label_2
_ccdc_geom_bond_type
O13   H12   S    
C14   C18   S    
C1    C11   S    
C4    C8    A    
C5    C20   A    
C27   O12   D    
C10   C22   A    
C22   H6    S    
H4    N2    S    
C6    C29   S    
C19   C21   S    
C3    C7    A    
Cu1   O5    S    
C5    C6    A    
Cu2   O4    S    
C28   O15   S    
C29   O17   S    
C18   O5    A    
C16   N1    D    
Cu2   N1    S    
C15   O22   S    
C19   O8    A    
C16   C17   S    
C26   H10   S    
N1    C28   S    
C23   C24   A    
C31   H16   S    
C19   O7    A    
C1    O2    A    
O15   H13   S    
O20   C31   S    
C33   H24   S    
C25   O10   S    
Cu2   O8    S    
C7    O21   S    
C27   O13   S    
O21   C32   S    
O19   H15   S    
C20   C30   S    
C33   H23   S    
C18   O6    A    
C33   H22   S    
C14   O11   S    
C30   O19   S    
C16   H3    S    
C23   O20   S    
O17   H14   S    
C2    C4    A    
C32   H19   S    
Cu1   O3    S    
C9    C20   A    
C26   H11   S    
C31   H18   S    
C8    C21   A    
C32   H20   S    
C10   C12   S    
Cu1   N2    S    
O11   C26   S    
C26   H9    S    
C13   C15   S    
C2    C24   A    
C17   C27   S    
C25   O9    D    
C9    H1    S    
O10   H8    S    
C22   C23   A    
C8    H5    S    
C4    C5    A    
Cu1   O7    S    
Cu2   O2    S    
C6    C7    A    
C24   H7    S    
C12   O4    A    
C2    C3    A    
Cu1   Cu2   S    
C3    C10   A    
C11   C13   D    
C9    C21   A    
C28   O14   D    
C11   H2    S    
C12   O3    A    
C29   O16   D    
C32   H21   S    
Cu1   O1    S    
O22   C33   S    
C1    O1    A    
C30   O18   D    
C14   C15   D    
C31   H17   S    
C17   N2    D    
C13   C25   S    
Cu2   O6    S    
