data_mof_unit_21901.cif
_audit_creation_date              2012-12-10T18:03:59-0500
_audit_creation_method            fapswitch 2.2
_symmetry_space_group_name_H-M    P1
_symmetry_Int_Tables_number       1
_space_group_crystal_system       triclinic
_cell_length_a                    10.835908
_cell_length_b                    9.547766
_cell_length_c                    10.865947
_cell_angle_alpha                 89.999714
_cell_angle_beta                  90.933979
_cell_angle_gamma                 90.000081
_cell_volume                      1124.02754634

loop_
_atom_site_label
_atom_site_type_symbol
_atom_type_description
_atom_site_fract_x
_atom_site_fract_y
_atom_site_fract_z
_atom_type_partial_charge
C1    C     C_R   0.262155 0.500114 0.500471 0.791375
C2    C     C_R   0.737845 0.500114 0.499530 0.791372
C3    C     C_R   0.420375 0.073790 0.424236 0.314660
C4    C     C_R   0.579627 0.073789 0.575762 0.314658
C5    C     C_R   0.422876 0.924652 0.423404 -0.088612
C6    C     C_R   0.577125 0.924651 0.576595 -0.088587
C7    C     C_R   0.500178 0.499939 0.262709 0.805123
C8    C     C_R   0.499822 0.499939 0.737291 0.805117
C9    C     C_R   0.499983 0.621494 0.061994 0.134411
C10   C     C_R   0.500018 0.621494 0.938004 0.134416
C11   C     C_R   0.500425 0.498560 0.130088 -0.106219
C12   C     C_R   0.499575 0.498559 0.869912 -0.106217
C13   C     C_R   0.500815 0.370988 0.064477 -0.216698
C14   C     C_R   0.499184 0.370988 0.935524 -0.216715
C15   C     C_3   0.500077 0.777227 0.929099 -0.475084
C16   C     C_3   0.499927 0.777227 0.070898 -0.475091
C17   C     C_R   0.063755 0.373891 0.501631 -0.193826
C18   C     C_R   0.936245 0.373890 0.498416 -0.193825
C19   C     C_R   0.871733 0.500787 0.499043 -0.013808
C20   C     C_R   0.128267 0.500787 0.500959 -0.013805
C21   C     C_R   0.936093 0.628175 0.499889 -0.188391
C22   C     C_R   0.063907 0.628175 0.500070 -0.188391
Cu1   Cu    Cu3+1 0.500000 0.640660 0.500000 0.936530
Cu2   Cu    Cu3+1 0.500000 0.359340 0.500000 0.972480
H1    H     H_    0.502635 0.271355 0.111759 0.153188
H2    H     H_    0.497363 0.271354 0.888243 0.153185
H3    H     H_    0.586867 0.818422 0.889649 0.192131
H4    H     H_    0.413138 0.818424 0.110347 0.192131
H5    H     H_    0.413396 0.818462 0.886675 0.201698
H6    H     H_    0.586608 0.818461 0.113322 0.201698
H7    H     H_    0.111525 0.274655 0.504704 0.166248
H8    H     H_    0.888476 0.274653 0.495380 0.166275
H9    H     H_    0.888030 0.727669 0.500112 0.148857
H10   H     H_    0.111969 0.727669 0.499811 0.148856
H11   H     H_    0.363146 0.866325 0.361458 0.146461
H12   H     H_    0.636855 0.866321 0.638538 0.146471
N1    N     N_R   0.500000 0.852070 0.500000 -0.192274
N2    N     N_R   0.500000 0.147940 0.500000 -0.202575
O1    O     O_R   0.319640 0.618740 0.499990 -0.593405
O2    O     O_R   0.680360 0.618740 0.500010 -0.593406
O3    O     O_R   0.319620 0.381170 0.499990 -0.553036
O4    O     O_R   0.680380 0.381170 0.500010 -0.553043
O5    O     O_R   0.499990 0.618810 0.319660 -0.581867
O6    O     O_R   0.500010 0.618810 0.680340 -0.581863
O7    O     O_R   0.499960 0.381240 0.319650 -0.587233
O8    O     O_R   0.500040 0.381240 0.680350 -0.587264
N3    N     N_2   0.338641 0.147016 0.343147 -0.373326
H13   H     H_    0.377966 0.169434 0.259910 0.247532
C23   C     C_3   0.214616 0.092165 0.328544 -0.764997
H14   H     H_    0.213509 0.002203 0.263703 0.208236
H15   H     H_    0.153688 0.175108 0.289701 0.243231
H16   H     H_    0.177622 0.058549 0.418654 0.226283
N4    N     N_2   0.661367 0.147015 0.656846 -0.373350
H17   H     H_    0.622034 0.169488 0.740065 0.247577
C24   C     C_3   0.785376 0.092132 0.671493 -0.765078
H18   H     H_    0.786447 0.002190 0.736356 0.208260
H19   H     H_    0.846314 0.175069 0.710333 0.243228
H20   H     H_    0.822386 0.058482 0.581399 0.226298

loop_
_geom_bond_atom_site_label_1
_geom_bond_atom_site_label_2
_ccdc_geom_bond_type
C16   H4    S    
C1    O3    A    
Cu2   N2    S    
C24   H18   S    
C2    O2    A    
C7    O5    A    
C4    N4    S    
Cu2   O4    S    
C9    C10   A    
C15   H3    S    
N3    H13   S    
C20   C22   A    
C8    C12   S    
C23   H16   S    
Cu2   O8    S    
C3    C5    A    
N4    C24   S    
C17   C18   A    
C6    N1    A    
Cu1   O5    S    
N3    C23   S    
Cu1   N1    S    
N4    H17   S    
C14   H2    S    
C7    C11   S    
Cu2   O3    S    
C11   C13   A    
C9    C11   A    
C10   C12   A    
C2    O4    A    
Cu1   O1    S    
Cu2   O7    S    
C5    H11   S    
C21   C22   A    
C19   C21   A    
C9    C16   S    
C6    H12   S    
C15   H5    S    
C5    N1    A    
C10   C15   S    
C24   H19   S    
C8    O6    A    
C22   H10   S    
C8    O8    A    
C18   H8    S    
C1    O1    A    
Cu1   Cu2   S    
C16   H6    S    
Cu1   O2    S    
C7    O7    A    
C17   C20   A    
C21   H9    S    
C4    C6    A    
C18   C19   A    
C24   H20   S    
C3    N3    S    
C4    N2    A    
C23   H14   S    
C1    C20   S    
C23   H15   S    
C2    C19   S    
C13   C14   A    
Cu1   O6    S    
C17   H7    S    
C15   C16   S    
C3    N2    A    
C12   C14   A    
C13   H1    S    
