data_mof_unit_14020.cif
_audit_creation_date              2012-12-10T18:47:48-0500
_audit_creation_method            fapswitch 2.2
_symmetry_space_group_name_H-M    P1
_symmetry_Int_Tables_number       1
_space_group_crystal_system       triclinic
_cell_length_a                    9.864677
_cell_length_b                    10.648126
_cell_length_c                    15.512295
_cell_angle_alpha                 90.097865
_cell_angle_beta                  67.834467
_cell_angle_gamma                 90.025362
_cell_volume                      1508.99664398

loop_
_atom_site_label
_atom_site_type_symbol
_atom_type_description
_atom_site_fract_x
_atom_site_fract_y
_atom_site_fract_z
_atom_type_partial_charge
C1    C     C_R   0.499544 0.739627 0.500869 0.977387
C2    C     C_R   0.385080 0.937171 0.570128 -0.207902
C3    C     C_R   0.500965 0.127991 0.498282 -0.297312
C4    C     C_R   0.499045 0.872069 0.501679 -0.298788
C5    C     C_R   0.961631 0.420519 0.443263 -0.296175
C6    C     C_R   0.038324 0.579394 0.556802 -0.300105
C7    C     C_R   0.105281 0.420335 0.443317 0.697132
C8    C     C_R   0.894645 0.579515 0.556795 0.694501
C9    C     C_R   0.408616 0.498865 0.675974 0.880300
C10   C     C_R   0.591488 0.497830 0.324065 0.883531
C11   C     C_R   0.353820 0.479506 0.776284 -0.058039
C12   C     C_R   0.500461 0.260392 0.499119 0.974178
C13   C     C_R   0.649234 0.487830 0.222896 -0.057898
C14   C     C_R   0.184563 0.382696 0.916283 -0.209574
C15   C     C_R   0.841431 0.516041 0.071857 -0.207394
C16   C     C_R   0.218371 0.422779 0.824907 -0.154713
C17   C     C_R   0.795059 0.516259 0.168503 -0.154105
C18   C     C_R   0.452145 0.498975 0.819852 -0.239657
C19   C     C_R   0.553192 0.451665 0.180670 -0.239605
C20   C     C_R   0.427071 0.448548 0.907334 0.093487
C21   C     C_R   0.597109 0.449659 0.084028 0.090544
C22   C     C_R   0.288253 0.394903 0.957810 0.166922
C23   C     C_R   0.357113 0.368291 0.090163 -0.205642
C24   C     C_R   0.742525 0.486428 0.029346 0.169748
C25   C     C_R   0.536068 0.452269 0.946007 0.069014
C26   C     C_R   0.496386 0.422532 0.041154 0.063775
C27   C     C_1   0.729812 0.126812 0.355252 0.321422
C28   C     C_1   0.269865 0.873333 0.644493 0.321430
C29   C     C_R   0.683900 0.482498 0.892207 -0.194487
C30   C     C_R   0.255800 0.353146 0.048386 -0.216370
C31   C     C_R   0.785793 0.497211 0.933348 -0.218323
C32   C     C_R   0.613459 0.933629 0.432100 0.617579
C33   C     C_R   0.386581 0.066454 0.567874 0.617534
C34   C     C_R   0.614863 0.062919 0.429774 -0.207720
F1    F     F_    0.720586 0.867419 0.365581 -0.648665
F2    F     F_    0.279531 0.132681 0.634447 -0.651676
F3    F     F_    0.206277 0.339978 0.386575 -0.660525
F4    F     F_    0.793496 0.659573 0.613761 -0.651303
H1    H     H_    0.150814 0.310406 0.087684 0.166457
H2    H     H_    0.724829 0.492399 0.817504 0.167648
H3    H     H_    0.934070 0.357021 0.397864 0.194164
H4    H     H_    0.065851 0.642822 0.602250 0.196183
H5    H     H_    0.897345 0.522357 0.890268 0.153893
H6    H     H_    0.441300 0.432486 0.224812 0.195780
H7    H     H_    0.550124 0.552030 0.782958 0.189428
H8    H     H_    0.871179 0.543165 0.200512 0.175624
H9    H     H_    0.141518 0.405644 0.791491 0.175450
H10   H     H_    0.079542 0.338751 0.953395 0.154644
H11   H     H_    0.952725 0.543889 0.030600 0.154066
H12   H     H_    0.325191 0.332481 0.160039 0.183709
N1    N     N_R   0.142780 0.500030 0.500020 -0.154868
N2    N     N_R   0.857220 0.499970 0.499980 -0.155722
N3    N     N_1   0.821483 0.177932 0.295631 -0.203158
N4    N     N_1   0.177939 0.822273 0.703991 -0.194669
O1    O     O_R   0.385370 0.683250 0.500010 -0.635311
O2    O     O_R   0.614630 0.316750 0.499990 -0.636669
O3    O     O_R   0.614700 0.683220 0.500000 -0.526536
O4    O     O_R   0.385300 0.316780 0.500000 -0.528806
O5    O     O_R   0.319830 0.500020 0.632250 -0.620415
O6    O     O_R   0.680170 0.499980 0.367750 -0.617925
O7    O     O_R   0.549160 0.499990 0.632240 -0.581192
O8    O     O_R   0.450840 0.500010 0.367760 -0.583407
Zn1   Zn    Zn3+2 0.346870 0.500020 0.500000 1.033408
Zn2   Zn    Zn3+2 0.653130 0.499980 0.500000 1.035716

loop_
_geom_bond_atom_site_label_1
_geom_bond_atom_site_label_2
_ccdc_geom_bond_type
O7    Zn2   S    
C10   O6    A    
C21   C26   A    
O2    Zn2   S    
C11   C18   A    
O8    Zn1   S    
C9    O7    A    
C1    O3    A    
C6    N1    A    
C4    C32   A    
C11   C16   A    
C8    N2    A    
C2    C4    A    
C3    C34   A    
C13   C17   A    
O6    Zn2   S    
C1    C4    S    
C12   O4    A    
C14   C22   A    
C27   N3    T    
C16   H9    S    
C7    F3    S    
C24   C31   A    
C7    N1    A    
C18   H7    S    
C29   C31   A    
C10   O8    A    
C17   H8    S    
C15   H11   S    
C25   C29   A    
C9    C11   S    
C12   O2    A    
C31   H5    S    
C6    C8    A    
C2    C33   A    
C15   C24   A    
C19   C21   A    
C20   C22   A    
C30   H1    S    
C18   C20   A    
C8    F4    S    
C27   C34   S    
C1    O1    A    
C28   N4    T    
C14   C16   A    
O5    Zn1   S    
C21   C24   A    
C20   C25   A    
C3    C33   A    
C23   C30   A    
C33   F2    S    
N1    Zn1   S    
C19   H6    S    
C29   H2    S    
O3    Zn2   S    
C5    C7    A    
N2    Zn2   S    
C23   C26   A    
O4    Zn1   S    
C15   C17   A    
C14   H10   S    
C5    H3    S    
C13   C19   A    
C2    C28   S    
C3    C12   S    
C22   C30   A    
C5    N2    A    
C9    O5    A    
C25   C26   A    
C6    H4    S    
C32   F1    S    
O1    Zn1   S    
C23   H12   S    
C10   C13   S    
C32   C34   A    
