data_mof_unit_42514.cif
_audit_creation_date              2012-12-11T16:51:32-0500
_audit_creation_method            fapswitch 2.2
_symmetry_space_group_name_H-M    P1
_symmetry_Int_Tables_number       1
_space_group_crystal_system       triclinic
_cell_length_a                    24.366998
_cell_length_b                    17.170423
_cell_length_c                    15.47529
_cell_angle_alpha                 89.862731
_cell_angle_beta                  128.840357
_cell_angle_gamma                 90.022781
_cell_volume                      5043.1262446

loop_
_atom_site_label
_atom_site_type_symbol
_atom_type_description
_atom_site_fract_x
_atom_site_fract_y
_atom_site_fract_z
_atom_type_partial_charge
C1    C     C_R   0.832887 0.892650 0.197613 -0.107609
C2    C     C_R   0.167276 0.892998 0.802818 -0.112360
C3    C     C_R   0.338466 0.376269 0.212269 -0.114326
C4    C     C_R   0.667148 0.392481 0.802525 -0.106390
C5    C     C_R   0.885237 0.103719 0.592295 -0.118684
C6    C     C_R   0.115481 0.103807 0.408687 -0.130036
C7    C     C_R   0.384771 0.603563 0.591758 -0.128851
C8    C     C_R   0.615329 0.603619 0.408298 -0.127289
C9    C     C_R   0.816155 0.117925 0.499919 0.072623
C10   C     C_R   0.184134 0.119509 0.501649 0.067729
C11   C     C_R   0.315943 0.618876 0.499236 0.074107
C12   C     C_R   0.684116 0.618924 0.500876 0.074026
C13   C     C_R   0.882645 0.182572 0.207810 0.153696
C14   C     C_R   0.142497 0.138814 0.853601 0.150630
C15   C     C_R   0.382852 0.682814 0.208289 0.154766
C16   C     C_R   0.617488 0.682146 0.792418 0.154558
C17   C     C_R   0.853394 0.709329 0.606169 0.134952
C18   C     C_R   0.146858 0.709651 0.394542 0.134604
C19   C     C_R   0.353262 0.210094 0.607572 0.162002
C20   C     C_R   0.648097 0.209252 0.396236 0.142800
C21   C     C_R   0.835611 0.737102 0.506225 0.041892
C22   C     C_R   0.164883 0.737313 0.494547 0.044304
C23   C     C_R   0.335136 0.238058 0.507558 0.038830
C24   C     C_R   0.667470 0.238710 0.496358 0.041099
C25   C     C_R   0.781592 0.698653 0.407584 -0.193080
C26   C     C_R   0.219076 0.698723 0.593245 -0.195477
C27   C     C_R   0.281736 0.199068 0.409049 -0.196997
C28   C     C_R   0.721452 0.200227 0.595286 -0.191897
C29   C     C_R   0.235577 0.149888 0.408045 -0.185580
C30   C     C_R   0.766653 0.149725 0.595783 -0.187852
C31   C     C_R   0.735168 0.649881 0.406606 -0.188025
C32   C     C_R   0.265327 0.649811 0.594043 -0.197202
C33   C     C_R   0.243860 0.139563 0.505864 0.037969
C34   C     C_R   0.756972 0.137738 0.497111 0.039254
C35   C     C_R   0.743678 0.639250 0.504584 0.040966
C36   C     C_R   0.256524 0.639242 0.495853 0.042821
C37   C     C_R   0.308137 0.161140 0.606673 0.123111
C38   C     C_R   0.692194 0.158829 0.396695 0.128768
C39   C     C_R   0.808066 0.660661 0.605257 0.123481
C40   C     C_R   0.192036 0.660867 0.395296 0.123115
C41   C     C_3   0.824070 0.697858 0.706243 -0.452763
C42   C     C_3   0.175788 0.698150 0.293972 -0.454028
C43   C     C_3   0.324159 0.198261 0.707768 -0.445928
C44   C     C_3   0.674909 0.193875 0.293450 -0.458072
C45   C     C_R   0.085932 0.855329 0.406897 -0.140126
C46   C     C_R   0.914279 0.855189 0.593469 -0.141037
C47   C     C_R   0.589102 0.356887 0.407968 -0.133683
C48   C     C_R   0.413985 0.355756 0.594100 -0.144506
C49   C     C_3   0.873288 0.751419 0.707050 -0.474817
C50   C     C_3   0.126728 0.751846 0.293307 -0.474717
C51   C     C_3   0.373239 0.252050 0.708533 -0.534083
C52   C     C_3   0.627102 0.249339 0.293162 -0.479283
C53   C     C_2   0.192567 0.850642 0.984287 -0.059488
C54   C     C_2   0.807999 0.849224 0.017051 -0.058618
C55   C     C_2   0.692118 0.349017 0.983352 -0.057520
C56   C     C_2   0.334503 0.276986 0.088894 -0.056055
C57   C     C_2   0.263273 0.850546 0.043544 -0.129034
C58   C     C_2   0.737280 0.849092 0.957628 -0.128441
C59   C     C_2   0.762873 0.350030 0.043256 -0.129242
C60   C     C_2   0.302828 0.222550 0.107448 -0.159745
C61   C     C_2   0.856698 0.255013 0.143635 -0.261364
C62   C     C_2   0.187865 0.173398 0.963552 -0.240441
C63   C     C_2   0.357068 0.755410 0.144390 -0.261683
C64   C     C_2   0.643508 0.754274 0.856762 -0.260422
C65   C     C_2   0.809074 0.298234 0.138513 -0.084581
C66   C     C_2   0.257463 0.163327 0.026673 -0.048582
C67   C     C_2   0.309139 0.798477 0.138674 -0.081174
C68   C     C_2   0.691535 0.797270 0.862644 -0.082985
C69   C     C_R   0.163069 0.856197 0.591737 -0.123961
C70   C     C_R   0.837133 0.856198 0.408627 -0.123650
C71   C     C_R   0.664385 0.357223 0.592499 -0.125213
C72   C     C_R   0.335400 0.357471 0.409767 -0.124151
C73   C     C_R   0.076280 0.894784 0.803521 -0.152981
C74   C     C_R   0.923910 0.894462 0.196919 -0.153910
C75   C     C_R   0.576138 0.394293 0.803218 -0.152994
C76   C     C_R   0.429126 0.377976 0.210141 -0.137936
C77   C     C_R   0.853474 0.874505 0.134157 0.027473
C78   C     C_R   0.146858 0.875207 0.866657 0.028369
C79   C     C_R   0.364858 0.343608 0.163583 0.012256
C80   C     C_R   0.646591 0.374279 0.866068 0.026973
C81   C     C_R   0.138176 0.812193 0.498292 0.066935
C82   C     C_R   0.862178 0.812067 0.502283 0.067693
C83   C     C_R   0.641051 0.313892 0.499539 0.067037
C84   C     C_R   0.361159 0.313189 0.503415 0.070238
C85   C     C_R   0.811041 0.100439 0.408394 -0.154566
C86   C     C_R   0.188673 0.102231 0.592711 -0.136996
C87   C     C_R   0.311103 0.601365 0.407987 -0.152226
C88   C     C_R   0.688862 0.601354 0.592076 -0.151652
C89   C     C_R   0.941262 0.140085 0.239823 -0.135517
C90   C     C_R   0.073397 0.114759 0.795893 -0.140578
C91   C     C_R   0.441401 0.640246 0.240172 -0.141470
C92   C     C_R   0.558790 0.639830 0.760251 -0.135544
C93   C     C_R   0.164307 0.115314 0.794019 -0.118564
C94   C     C_R   0.850068 0.140930 0.241487 -0.128448
C95   C     C_R   0.650032 0.640653 0.758704 -0.128690
C96   C     C_R   0.350187 0.641071 0.241737 -0.130438
H1    H     H_    0.779782 0.894939 0.170017 0.078901
H2    H     H_    0.220363 0.895505 0.830370 0.079571
H3    H     H_    0.285473 0.370189 0.184276 0.085786
H4    H     H_    0.720270 0.394736 0.830199 0.078027
H5    H     H_    0.189389 0.128778 0.329008 0.127406
H6    H     H_    0.813336 0.129045 0.674821 0.126888
H7    H     H_    0.688723 0.629161 0.327548 0.126273
H8    H     H_    0.311870 0.628928 0.673083 0.122991
H9    H     H_    0.778285 0.729189 0.689430 0.222628
H10   H     H_    0.221490 0.729345 0.310349 0.223068
H11   H     H_    0.278407 0.229504 0.691182 0.210920
H12   H     H_    0.720219 0.224059 0.307262 0.222727
H13   H     H_    0.852022 0.657630 0.778655 0.182389
H14   H     H_    0.147697 0.658031 0.221744 0.181994
H15   H     H_    0.352231 0.157996 0.780152 0.208517
H16   H     H_    0.645836 0.152804 0.222318 0.185802
H17   H     H_    0.854982 0.812969 0.690550 0.212617
H18   H     H_    0.145036 0.813338 0.309447 0.213101
H19   H     H_    0.354884 0.313578 0.692102 0.201788
H20   H     H_    0.646068 0.310482 0.307232 0.211744
H21   H     H_    0.929483 0.742261 0.780231 0.183519
H22   H     H_    0.070480 0.742882 0.220362 0.183312
H23   H     H_    0.429480 0.242933 0.781566 0.193608
H24   H     H_    0.570527 0.240527 0.221434 0.190272
H25   H     H_    0.797029 0.285397 0.193476 0.182987
H26   H     H_    0.280439 0.120886 0.005791 0.166193
H27   H     H_    0.296582 0.785277 0.192903 0.181747
H28   H     H_    0.704074 0.784391 0.808381 0.182259
H29   H     H_    0.286496 0.876086 0.009064 0.117270
H30   H     H_    0.713871 0.874761 0.991641 0.117168
H31   H     H_    0.786130 0.376543 0.009370 0.116694
H32   H     H_    0.301371 0.228775 0.175916 0.125956
H33   H     H_    0.870320 0.267732 0.090301 0.138958
H34   H     H_    0.165282 0.214968 0.986366 0.134878
H35   H     H_    0.371159 0.768421 0.091735 0.138498
H36   H     H_    0.629399 0.767021 0.909399 0.138765
H37   H     H_    0.053091 0.838285 0.321232 0.107476
H38   H     H_    0.947183 0.838038 0.679250 0.107652
H39   H     H_    0.559768 0.340840 0.323142 0.105184
H40   H     H_    0.447043 0.338657 0.679897 0.109642
H41   H     H_    0.204028 0.840710 0.677401 0.092031
H42   H     H_    0.796189 0.840803 0.323070 0.091672
H43   H     H_    0.705116 0.341996 0.678323 0.091463
H44   H     H_    0.291551 0.343295 0.325532 0.085158
H45   H     H_    0.046713 0.899919 0.833803 0.090506
H46   H     H_    0.953470 0.899414 0.166588 0.091445
H47   H     H_    0.546633 0.399269 0.833624 0.087904
H48   H     H_    0.458541 0.373415 0.179735 0.080046
H49   H     H_    0.763398 0.090818 0.324833 0.101871
H50   H     H_    0.236025 0.094027 0.677055 0.108821
H51   H     H_    0.263463 0.592642 0.324120 0.100014
H52   H     H_    0.736448 0.592500 0.676041 0.099846
H53   H     H_    0.978149 0.155130 0.225733 0.099000
H54   H     H_    0.042986 0.115829 0.824957 0.097180
H55   H     H_    0.478341 0.655365 0.226222 0.099908
H56   H     H_    0.521938 0.654791 0.774403 0.098805
H57   H     H_    0.216742 0.117520 0.818792 0.140685
H58   H     H_    0.801986 0.155180 0.227874 0.100857
H59   H     H_    0.698201 0.654775 0.772549 0.099279
H60   H     H_    0.302115 0.655368 0.228105 0.099453
H61   H     H_    0.905934 0.100718 0.677709 0.086682
H62   H     H_    0.095870 0.099963 0.323924 0.088204
H63   H     H_    0.404787 0.599765 0.676762 0.084219
H64   H     H_    0.595457 0.599884 0.323389 0.085956
H65   H     H_    0.769290 0.713679 0.329208 0.126657
H66   H     H_    0.231602 0.713697 0.671704 0.125214
H67   H     H_    0.269639 0.213966 0.330763 0.123210
H68   H     H_    0.734724 0.216307 0.673929 0.126879
N1    N     N_R   0.888400 0.921830 0.294620 -0.039324
N2    N     N_R   0.111600 0.921830 0.705380 -0.039060
N3    N     N_R   0.388400 0.421830 0.294620 -0.037453
N4    N     N_R   0.611600 0.421830 0.705380 -0.039066
N5    N     N_R   0.079940 0.922160 0.443410 -0.039851
N6    N     N_R   0.920060 0.922160 0.556590 -0.040088
N7    N     N_R   0.579940 0.422160 0.443410 -0.040220
N8    N     N_R   0.420060 0.422160 0.556590 -0.040302
N9    N     N_R   0.125650 0.922400 0.556620 -0.041673
N10   N     N_R   0.874350 0.922400 0.443380 -0.041087
N11   N     N_R   0.625650 0.422400 0.556620 -0.040990
N12   N     N_R   0.374350 0.422400 0.443380 -0.039888
N13   N     N_R   0.054230 0.922730 0.705400 -0.034952
N14   N     N_R   0.945770 0.922730 0.294600 -0.035475
N15   N     N_R   0.554230 0.422730 0.705400 -0.035152
N16   N     N_R   0.445770 0.422730 0.294600 -0.034306
N17   N     N_R   0.873790 0.077030 0.443380 -0.039243
N18   N     N_R   0.126210 0.077030 0.556620 -0.040293
N19   N     N_R   0.373790 0.577030 0.443380 -0.037869
N20   N     N_R   0.626210 0.577030 0.556620 -0.038262
N21   N     N_R   0.945200 0.076700 0.294600 -0.042297
N22   N     N_R   0.054800 0.076700 0.705400 -0.041449
N23   N     N_R   0.445200 0.576700 0.294600 -0.044180
N24   N     N_R   0.554800 0.576700 0.705400 -0.042451
N25   N     N_R   0.111030 0.077600 0.705380 -0.049397
N26   N     N_R   0.888970 0.077600 0.294620 -0.044753
N27   N     N_R   0.611030 0.577600 0.705380 -0.044605
N28   N     N_R   0.388970 0.577600 0.294620 -0.045566
N29   N     N_R   0.919490 0.077280 0.556590 -0.039294
N30   N     N_R   0.080510 0.077280 0.443410 -0.039563
N31   N     N_R   0.419490 0.577280 0.556590 -0.038448
N32   N     N_R   0.580510 0.577280 0.443410 -0.038506
Ni1   Ni    Ni4+2 0.882160 0.999430 0.370180 0.209541
Ni2   Ni    Ni4+2 0.117840 0.999430 0.629820 0.209418
Ni3   Ni    Ni4+2 0.382160 0.499430 0.370180 0.210408
Ni4   Ni    Ni4+2 0.617840 0.499430 0.629820 0.210125
Ni5   Ni    Ni4+2 0.012460 0.999430 0.370180 0.214521
Ni6   Ni    Ni4+2 0.987540 0.999430 0.629820 0.213164
Ni7   Ni    Ni4+2 0.512460 0.499430 0.370180 0.213790
Ni8   Ni    Ni4+2 0.487540 0.499430 0.629820 0.212141
C97   C     C_2   0.157500 0.820007 0.028827 0.502677
H69   H     H_    0.106447 0.792001 0.973304 -0.007821
O1    O     O_2   0.183011 0.829533 0.125619 -0.605658
C98   C     C_2   0.843367 0.818060 0.973368 0.503259
H70   H     H_    0.894503 0.790150 0.029583 -0.007640
O2    O     O_2   0.818040 0.827052 0.876518 -0.606434
C99   C     C_2   0.656830 0.316613 0.026672 0.502294
H71   H     H_    0.605920 0.288467 0.970197 -0.006274
O3    O     O_2   0.681922 0.324799 0.123472 -0.608555
C100  C     C_2   0.340041 0.274318 0.998314 0.527864
H72   H     H_    0.359072 0.325140 0.982558 -0.005715
O4    O     O_2   0.325170 0.216291 0.942189 -0.629697

loop_
_geom_bond_atom_site_label_1
_geom_bond_atom_site_label_2
_ccdc_geom_bond_type
N25   Ni2   S    
C25   C31   A    
C49   H17   S    
C26   C32   A    
C75   H47   S    
C55   C59   D    
C27   C29   A    
C1    C77   A    
C62   H34   S    
C35   C39   A    
N18   Ni2   S    
C76   C79   A    
C90   H54   S    
N16   Ni7   S    
C3    C79   A    
C68   H28   S    
C94   N26   A    
C47   H39   S    
C3    N3    A    
N21   N26   A    
C39   C41   S    
C73   H45   S    
C97   H69   S    
C38   C44   S    
C18   C50   S    
C56   C79   S    
C87   H51   S    
N24   N27   A    
C32   C36   A    
C11   C36   S    
C56   C60   D    
C24   C83   S    
C85   H49   S    
C4    C80   A    
C52   H20   S    
N19   N31   A    
C87   N19   A    
C100  O4    D    
C88   N20   A    
C7    H63   S    
C59   H31   S    
C14   C62   S    
C3    H3    S    
N23   Ni7   S    
N22   Ni6   S    
C50   H22   S    
C17   C39   A    
N28   Ni3   S    
N21   Ni5   S    
N8    Ni8   S    
C18   C40   A    
C14   C90   A    
C91   N23   A    
C19   C37   A    
C9    C85   A    
C48   N8    A    
C49   H21   S    
C64   H36   S    
C29   C33   A    
C11   C87   A    
C98   H70   S    
N20   Ni4   S    
C74   C77   A    
C92   H56   S    
C51   H23   S    
C73   C78   A    
C66   H26   S    
N18   N30   A    
C65   H25   S    
N17   N29   A    
C75   C80   A    
C2    N2    A    
C14   C93   A    
C56   C100  S    
C61   H33   S    
C54   C77   S    
C27   H67   S    
C44   C52   S    
C40   C42   S    
N3    N16   A    
C74   H46   S    
N17   Ni1   S    
C46   C82   A    
N7    Ni7   S    
N1    N14   A    
C43   H15   S    
C57   C67   S    
C86   H50   S    
C41   C49   S    
C6    H62   S    
C58   H30   S    
C52   H24   S    
C7    C11   A    
C71   C83   A    
C23   C27   A    
C44   H12   S    
C69   H41   S    
C5    H61   S    
C63   C67   D    
C89   H53   S    
N6    Ni6   S    
C23   C84   S    
C30   C34   A    
C22   C81   S    
C20   C24   A    
C36   C40   A    
N27   Ni4   S    
C1    H1    S    
C15   C96   A    
C62   C66   D    
C100  H72   S    
C34   C38   A    
C71   H43   S    
N31   Ni8   S    
C90   N22   A    
N5    Ni5   S    
N20   N32   A    
N30   Ni5   S    
C55   C99   S    
N24   Ni8   S    
C25   H65   S    
C51   H19   S    
N29   Ni6   S    
C48   C84   A    
C67   H27   S    
C50   H18   S    
C31   H7    S    
C37   C43   S    
C19   C23   A    
N2    Ni2   S    
C5    C9    A    
C2    C78   A    
N1    Ni1   S    
C46   H38   S    
C20   C38   A    
C69   N9    A    
C53   C97   S    
C99   H71   S    
C74   N14   A    
C60   H32   S    
C8    C12   A    
C12   C88   A    
C30   H6    S    
C32   H8    S    
C88   H52   S    
C29   H5    S    
N2    N13   A    
C43   H11   S    
N15   Ni8   S    
N32   Ni7   S    
C70   N10   A    
N23   N28   A    
C72   C84   A    
C46   N6    A    
C41   H9    S    
C42   C50   S    
C60   C66   S    
C76   H48   S    
C58   C68   S    
C99   O3    D    
C70   H42   S    
C63   H35   S    
C4    H4    S    
C9    C34   S    
C54   C58   D    
C31   C35   A    
N12   Ni3   S    
C17   C49   S    
C8    H64   S    
C64   C68   D    
C6    N30   A    
C75   N15   A    
C28   H68   S    
C5    N29   A    
N6    N10   A    
C21   C25   A    
C10   C86   A    
C16   C95   A    
C53   C57   D    
C95   N27   A    
N4    Ni4   S    
C13   C89   A    
C1    N1    A    
C18   C22   A    
C89   N21   A    
C48   H40   S    
C45   C81   A    
C24   C28   A    
C76   N16   A    
C45   N5    A    
C6    C10   A    
C47   N7    A    
C92   N24   A    
C16   C92   A    
C85   N17   A    
C93   N25   A    
C45   H37   S    
N4    N15   A    
C44   H16   S    
C54   C98   S    
C15   C63   S    
C13   C94   A    
C96   N28   A    
N22   N25   A    
C93   H57   S    
C53   C78   S    
N9    Ni2   S    
C73   N13   A    
C20   C52   S    
C59   C65   S    
C57   H29   S    
C91   H55   S    
C55   C80   S    
N5    N9    A    
C43   C51   S    
C96   H60   S    
C94   H58   S    
N7    N11   A    
C19   C51   S    
C71   N11   A    
C28   C30   A    
C26   H66   S    
C33   C37   A    
C8    N32   A    
C10   C33   S    
C95   H59   S    
C72   N12   A    
C61   C65   D    
C42   H14   S    
C70   C82   A    
N19   Ni3   S    
N11   Ni4   S    
N10   Ni1   S    
C69   C81   A    
C15   C91   A    
C47   C83   A    
C42   H10   S    
C4    N4    A    
C72   H44   S    
C13   C61   S    
C21   C82   S    
C2    H2    S    
C98   O2    D    
C22   C26   A    
N14   Ni5   S    
C86   N18   A    
N3    Ni3   S    
N13   Ni6   S    
C41   H13   S    
C16   C64   S    
C97   O1    D    
C7    N31   A    
C12   C35   S    
N8    N12   A    
N26   Ni1   S    
C17   C21   A    
