data_mof_unit_21568.cif
_audit_creation_date              2012-10-26T20:00:55-0400
_audit_creation_method            fapswitch 2.2
_symmetry_space_group_name_H-M    P1
_symmetry_Int_Tables_number       1
_space_group_crystal_system       triclinic
_cell_length_a                    11.731048
_cell_length_b                    12.984096
_cell_length_c                    13.37637
_cell_angle_alpha                 93.306607
_cell_angle_beta                  76.089153
_cell_angle_gamma                 100.771874
_cell_volume                      1942.67060755

loop_
_atom_site_label
_atom_site_type_symbol
_atom_type_description
_atom_site_fract_x
_atom_site_fract_y
_atom_site_fract_z
_atom_type_partial_charge
C1    C     C_R   0.524353 0.701159 0.494558 0.590472
C2    C     C_R   0.391304 0.476715 0.808535 0.006267
C3    C     C_R   0.460676 0.184836 0.508386 0.016154
C4    C     C_R   0.435036 0.492507 0.696133 0.575555
C5    C     C_R   0.541413 0.815955 0.484720 -0.005462
C6    C     C_R   0.659258 0.991314 0.485766 0.022469
C7    C     C_R   0.654837 0.882612 0.467294 0.235710
C8    C     C_R   0.439616 0.859698 0.489963 -0.136185
C9    C     C_R   0.446611 0.967834 0.487890 -0.000590
C10   C     C_R   0.552286 0.032677 0.503610 -0.030916
C11   C     C_R   0.547500 0.137315 0.534627 0.220636
C12   C     C_R   0.440300 0.488871 0.976578 0.014745
C13   C     C_R   0.361388 0.122445 0.481281 -0.158147
C14   C     C_R   0.349745 0.013487 0.476186 0.015770
C15   C     C_R   0.948155 0.612132 0.586785 -0.003556
C16   C     C_R   0.476481 0.299101 0.503703 0.601286
C17   C     C_R   0.827193 0.594197 0.582001 0.132466
C18   C     C_R   0.857283 0.458096 0.459378 0.092034
C19   C     C_R   0.977067 0.467758 0.466111 -0.024371
C20   C     C_R   0.023502 0.541986 0.533490 -0.012063
C21   C     C_R   0.141991 0.541404 0.545355 0.144344
C22   C     C_R   0.169275 0.410793 0.412631 0.155823
C23   C     C_R   0.458739 0.530095 0.877365 -0.036105
C24   C     C_R   0.049889 0.403432 0.406550 -0.086013
C25   C     C_R   0.564474 0.505229 0.303161 0.528045
C26   C     C_R   0.732808 0.604077 0.035294 -0.002525
C27   C     C_R   0.601649 0.518738 0.189756 -0.034629
C28   C     C_R   0.289259 0.398739 0.846457 0.000952
C29   C     C_R   0.259817 0.370397 0.950707 -0.003425
C30   C     C_R   0.338716 0.411089 0.012387 -0.068324
C31   C     C_2   0.823883 0.553959 0.174757 0.321826
C32   C     C_2   0.776742 0.061619 0.474927 0.405745
C33   C     C_2   0.239665 0.953791 0.449538 0.246235
C34   C     C_R   0.527057 0.523836 0.034742 0.024523
C35   C     C_2   0.177143 0.590850 0.638181 0.255415
C36   C     C_2   0.238231 0.336507 0.346114 0.240646
C37   C     C_2   0.995116 0.711871 0.634957 0.290446
C38   C     C_2   0.695839 0.769193 0.907134 0.275672
C39   C     C_2   0.852906 0.652866 0.974597 0.293925
C40   C     C_2   0.215712 0.342176 0.777577 0.268016
C41   C     C_2   0.151595 0.291643 0.994656 0.283251
C42   C     C_2   0.516252 0.696965 0.778981 0.261873
C43   C     C_R   0.631823 0.594764 0.991178 -0.057721
C44   C     C_R   0.628147 0.659256 0.910172 -0.010549
C45   C     C_R   0.540628 0.625878 0.851799 0.028024
C46   C     C_R   0.511229 0.493150 0.136369 -0.118448
C47   C     C_R   0.718294 0.561418 0.134295 0.040207
Cu1   Cu    Cu3+1 0.386470 0.492430 0.492410 0.986637
Cu2   Cu    Cu3+1 0.613530 0.507570 0.507590 1.100555
H1    H     H_    0.292329 0.158669 0.464035 0.152923
H2    H     H_    0.157919 0.985936 0.470443 0.145244
H3    H     H_    0.961658 0.896301 0.310891 0.391184
H4    H     H_    0.255291 0.651088 0.632863 0.118987
H5    H     H_    0.331097 0.338267 0.339969 0.155844
H6    H     H_    0.087781 0.748906 0.609132 0.104937
H7    H     H_    0.719136 0.804400 0.976800 0.131296
H8    H     H_    0.873282 0.647283 0.891125 0.163448
H9    H     H_    0.121536 0.346156 0.792439 0.137795
H10   H     H_    0.094213 0.251769 0.946580 0.122517
H11   H     H_    0.424558 0.703122 0.781535 0.088726
H12   H     H_    0.353956 0.808841 0.498019 0.177338
H13   H     H_    0.565530 0.052441 0.728998 0.353503
H14   H     H_    0.012876 0.347125 0.354466 0.199274
H15   H     H_    0.768396 0.644900 0.624065 0.223154
H16   H     H_    0.821752 0.401119 0.407204 0.154112
H17   H     H_    0.425812 0.453586 0.178212 0.125939
H18   H     H_    0.319552 0.377785 0.087596 0.173308
H19   H     H_    0.829200 0.579021 0.252133 0.172514
H20   H     H_    0.844654 0.039743 0.507896 0.172939
N1    N     N_R   0.215880 0.481050 0.481000 -0.269402
N2    N     N_R   0.784100 0.518950 0.519000 -0.251289
O1    O     O_R   0.419710 0.645650 0.494620 -0.555785
O2    O     O_2   0.800403 0.141709 0.424784 -0.454554
O3    O     O_2   0.239940 0.872297 0.399277 -0.493163
O4    O     O_2   0.844293 0.806481 0.490009 -0.281163
O5    O     O_2   0.761872 0.740389 0.341457 -0.296380
O6    O     O_3   0.887302 0.925848 0.331564 -0.493125
O7    O     O_2   0.116128 0.564801 0.723541 -0.512824
O8    O     O_2   0.189931 0.268773 0.294999 -0.475682
O9    O     O_2   0.929991 0.755664 0.702111 -0.436400
O10   O     O_2   0.728453 0.821111 0.829108 -0.362589
O11   O     O_2   0.927932 0.702854 0.016454 -0.420843
O12   O     O_R   0.611450 0.658430 0.507430 -0.415600
O13   O     O_2   0.258881 0.287300 0.706709 -0.462250
O14   O     O_2   0.124254 0.270549 0.086113 -0.419426
O15   O     O_2   0.595595 0.743052 0.711733 -0.444940
O16   O     O_2   0.729568 0.265864 0.595097 -0.215526
O17   O     O_2   0.531782 0.251959 0.710622 -0.252551
O18   O     O_3   0.644289 0.096492 0.701096 -0.484581
O19   O     O_R   0.357340 0.490460 0.641450 -0.487357
O20   O     O_R   0.549080 0.503250 0.654260 -0.472454
O21   O     O_R   0.388550 0.341570 0.492570 -0.519388
O22   O     O_R   0.580290 0.354350 0.505380 -0.451530
O23   O     O_R   0.450920 0.496750 0.345740 -0.536143
O24   O     O_R   0.642660 0.509540 0.358550 -0.519098
O25   O     O_2   0.906761 0.517024 0.120964 -0.452102
S1    S     S_3+6 0.788769 0.834812 0.407681 0.024948
S2    S     S_3+6 0.614904 0.192190 0.636722 0.059519

loop_
_geom_bond_atom_site_label_1
_geom_bond_atom_site_label_2
_ccdc_geom_bond_type
C6    C32   S    
C23   C45   A    
C35   H4    S    
C40   O13   D    
C19   C20   A    
C43   C44   A    
C14   C33   S    
C18   H16   S    
C12   C23   A    
C16   O22   A    
Cu1   O23   S    
C11   S2    S    
C1    C5    S    
C1    O12   A    
C25   O24   A    
C28   C29   A    
Cu1   O1    S    
C46   H17   S    
C17   H15   S    
C26   C39   S    
C28   C40   S    
C31   O25   D    
C39   H8    S    
H13   O18   S    
O4    S1    D    
C18   C19   A    
C15   C37   S    
C8    C9    A    
O6    S1    S    
C34   C46   A    
C9    C10   A    
C30   H18   S    
C3    C13   A    
C8    H12   S    
C4    O20   A    
C12   C30   A    
C25   O23   A    
C31   C47   S    
C13   C14   A    
C15   C20   A    
Cu2   O20   S    
C26   C43   A    
C4    O19   A    
C31   H19   S    
C37   O9    D    
C1    O1    A    
C40   H9    S    
C36   H5    S    
C41   H10   S    
C42   H11   S    
C32   O2    D    
C5    C7    A    
O5    S1    D    
C42   C45   S    
C2    C4    S    
C9    C14   A    
C38   C44   S    
C29   C30   A    
Cu2   O24   S    
C32   H20   S    
C26   C47   A    
C42   O15   D    
C27   C46   A    
Cu1   Cu2   S    
C17   N2    A    
C24   H14   S    
C38   O10   D    
Cu1   O21   S    
C22   C24   A    
C25   C27   S    
C12   C34   A    
H3    O6    S    
C41   O14   D    
C44   C45   A    
C27   C47   A    
C18   N2    A    
C15   C17   A    
C7    S1    S    
C29   C41   S    
C34   C43   A    
C39   O11   D    
Cu1   N1    S    
C36   O8    D    
C6    C10   A    
C5    C8    A    
C2    C28   A    
C16   O21   A    
C6    C7    A    
C21   C35   S    
C33   H2    S    
C22   C36   S    
O18   S2    S    
C35   O7    D    
C21   N1    A    
O16   S2    D    
C19   C24   A    
Cu2   O12   S    
C3    C11   A    
C10   C11   A    
C13   H1    S    
C37   H6    S    
C33   O3    D    
C38   H7    S    
C20   C21   A    
Cu2   N2    S    
C2    C23   A    
Cu1   O19   S    
Cu2   O22   S    
C22   N1    A    
O17   S2    D    
C3    C16   S    
