data_mof_unit_36264.cif
_audit_creation_date              2012-12-10T21:42:30-0500
_audit_creation_method            fapswitch 2.2
_symmetry_space_group_name_H-M    P1
_symmetry_Int_Tables_number       1
_space_group_crystal_system       triclinic
_cell_length_a                    10.617813
_cell_length_b                    16.183301
_cell_length_c                    16.852623
_cell_angle_alpha                 86.53766
_cell_angle_beta                  90.863178
_cell_angle_gamma                 91.390701
_cell_volume                      2889.40204448

loop_
_atom_site_label
_atom_site_type_symbol
_atom_type_description
_atom_site_fract_x
_atom_site_fract_y
_atom_site_fract_z
_atom_type_partial_charge
C1    C     C_R   0.496729 0.488173 0.652734 0.910256
C2    C     C_R   0.503271 0.511827 0.347266 0.910257
C3    C     C_R   0.128159 0.500438 0.503299 -0.058377
C4    C     C_R   0.871841 0.499562 0.496701 -0.058377
C5    C     C_R   0.061007 0.451090 0.560449 0.002694
C6    C     C_R   0.938993 0.548910 0.439551 0.002694
C7    C     C_R   0.486241 0.479585 0.738412 -0.069542
C8    C     C_R   0.513756 0.520415 0.261588 -0.069544
C9    C     C_R   0.449693 0.547619 0.778768 -0.204151
C10   C     C_R   0.550300 0.452381 0.221231 -0.204148
C11   C     C_R   0.444162 0.541886 0.860408 -0.125472
C12   C     C_R   0.555827 0.458113 0.139591 -0.125475
C13   C     C_R   0.477242 0.468138 0.903436 0.277547
C14   C     C_R   0.522746 0.531861 0.096564 0.277548
C15   C     C_R   0.505190 0.396981 0.863064 -0.065810
C16   C     C_R   0.494800 0.603018 0.136936 -0.065809
C17   C     C_R   0.510391 0.403984 0.780007 -0.256969
C18   C     C_R   0.489604 0.596016 0.219993 -0.256971
C19   C     C_R   0.421997 0.765911 0.476582 0.076824
C20   C     C_R   0.578002 0.234088 0.523418 0.076825
C21   C     C_R   0.428609 0.852085 0.480734 -0.288345
C22   C     C_R   0.571391 0.147915 0.519266 -0.288345
C23   C     C_R   0.739488 0.499796 0.497469 0.890368
C24   C     C_R   0.260512 0.500204 0.502531 0.890367
C25   C     C_R   0.532619 0.891141 0.516287 0.248079
C26   C     C_R   0.467381 0.108859 0.483712 0.248079
C27   C     C_R   0.628568 0.839917 0.550503 -0.157040
C28   C     C_R   0.371432 0.160083 0.449497 -0.157040
C29   C     C_R   0.616064 0.752647 0.546539 -0.099675
C30   C     C_R   0.383937 0.247353 0.453461 -0.099677
C31   C     C_R   0.824427 0.621355 0.233527 0.014359
C32   C     C_R   0.175568 0.378643 0.766473 0.014359
C33   C     C_R   0.875200 0.571791 0.296968 -0.214489
C34   C     C_R   0.124797 0.428208 0.703033 -0.214488
C35   C     C_R   0.877686 0.599202 0.374389 0.053002
C36   C     C_R   0.122314 0.400798 0.625611 0.053000
C37   C     C_R   0.829640 0.676836 0.388424 -0.082180
C38   C     C_R   0.170361 0.323164 0.611576 -0.082178
C39   C     C_R   0.776146 0.725487 0.326155 -0.136303
C40   C     C_R   0.223854 0.274512 0.673845 -0.136304
C41   C     C_R   0.773798 0.698209 0.249035 -0.153981
C42   C     C_R   0.226199 0.301789 0.750965 -0.153982
C43   C     C_R   0.068478 0.548211 0.443217 -0.211965
C44   C     C_R   0.931522 0.451789 0.556783 -0.211965
H1    H     H_    0.732833 0.737339 0.201535 0.184799
H2    H     H_    0.267163 0.262659 0.798465 0.184798
H3    H     H_    0.534191 0.350791 0.747711 0.234746
H4    H     H_    0.465806 0.649209 0.252289 0.234748
H5    H     H_    0.646759 0.111448 0.546137 0.224626
H6    H     H_    0.353241 0.888552 0.453863 0.224626
H7    H     H_    0.687691 0.712744 0.572768 0.189853
H8    H     H_    0.312309 0.287255 0.427231 0.189853
H9    H     H_    0.914853 0.512454 0.286357 0.193664
H10   H     H_    0.085143 0.487545 0.713644 0.193664
H11   H     H_    0.834170 0.699729 0.447484 0.157466
H12   H     H_    0.165832 0.300271 0.552515 0.157466
H13   H     H_    0.737788 0.784936 0.337523 0.157086
H14   H     H_    0.262212 0.215064 0.662477 0.157085
H15   H     H_    0.122918 0.583585 0.398453 0.177839
H16   H     H_    0.877082 0.416415 0.601547 0.177839
H17   H     H_    0.573857 0.394308 0.252681 0.183717
H18   H     H_    0.426137 0.605692 0.747318 0.183717
H19   H     H_    0.583566 0.404114 0.109790 0.197720
H20   H     H_    0.416421 0.595884 0.890209 0.197723
N1    N     N_2   0.486729 0.465627 0.986917 -0.131369
N2    N     N_2   0.513257 0.534372 0.013082 -0.131367
N3    N     N_R   0.515300 0.716920 0.509720 -0.133732
N4    N     N_R   0.484700 0.283080 0.490280 -0.133732
N5    N     N_2   0.543560 0.980076 0.517276 -0.107538
N6    N     N_2   0.456440 0.019924 0.482724 -0.107538
O1    O     O_R   0.494530 0.422540 0.612660 -0.577540
O2    O     O_R   0.505470 0.577460 0.387340 -0.577541
O3    O     O_R   0.504350 0.561840 0.618900 -0.627073
O4    O     O_R   0.495650 0.438160 0.381100 -0.627073
O5    O     O_R   0.678330 0.430350 0.496870 -0.604434
O6    O     O_R   0.321670 0.569650 0.503130 -0.604434
O7    O     O_R   0.688150 0.569660 0.503110 -0.635987
O8    O     O_R   0.311850 0.430340 0.496890 -0.635987
Zn1   Zn    Zn3+2 0.493440 0.406980 0.495830 0.988094
Zn2   Zn    Zn3+2 0.506560 0.593020 0.504170 0.988095
C45   C     C_2   0.687539 0.268248 0.566017 0.950500
O9    O     O_2   0.672616 0.312564 0.620980 -0.625300
O10   O     O_R   0.808555 0.244148 0.547146 -0.793352
H21   H     H_    0.876233 0.267668 0.582969 0.341227
C46   C     C_2   0.312461 0.731752 0.433983 0.950500
O11   O     O_2   0.327384 0.687435 0.379020 -0.625300
O12   O     O_R   0.191445 0.755852 0.452854 -0.793353
H22   H     H_    0.123767 0.732332 0.417031 0.341227
C47   C     C_2   0.742585 0.875133 0.590166 0.946148
O13   O     O_2   0.829442 0.830064 0.610959 -0.613029
O14   O     O_R   0.751611 0.959303 0.604468 -0.782288
H23   H     H_    0.833815 0.974985 0.631700 0.360980
C48   C     C_2   0.257416 0.124867 0.409834 0.946153
O15   O     O_2   0.170558 0.169935 0.389042 -0.613030
O16   O     O_R   0.248389 0.040697 0.395531 -0.782288
H24   H     H_    0.166185 0.025015 0.368299 0.360980
C49   C     C_2   0.826062 0.593222 0.151435 0.907491
O17   O     O_2   0.792608 0.639412 0.095326 -0.601166
O18   O     O_R   0.866193 0.513680 0.137838 -0.799964
H25   H     H_    0.861941 0.501560 0.079515 0.359877
C50   C     C_2   0.173930 0.406774 0.848566 0.907491
O19   O     O_2   0.207383 0.360584 0.904675 -0.601161
O20   O     O_R   0.133797 0.486316 0.862164 -0.799964
H26   H     H_    0.138047 0.498436 0.920486 0.359878
C51   C     C_2   0.531462 0.315790 0.905940 0.951739
O21   O     O_2   0.577961 0.260399 0.870586 -0.609105
O22   O     O_R   0.501336 0.301491 0.986171 -0.771475
H27   H     H_    0.523478 0.243820 0.007970 0.356944
C52   C     C_2   0.468527 0.684209 0.094060 0.951744
O23   O     O_2   0.422037 0.739603 0.129417 -0.609106
O24   O     O_R   0.498641 0.698507 0.013827 -0.771482
H28   H     H_    0.476499 0.756178 0.992029 0.356945

loop_
_geom_bond_atom_site_label_1
_geom_bond_atom_site_label_2
_ccdc_geom_bond_type
O12   H22   S    
C48   O15   D    
C27   C29   A    
O16   H24   S    
O1    Zn1   S    
C45   O9    D    
C39   C41   A    
C13   N1    S    
C46   O11   D    
C51   O22   S    
C3    C43   A    
C1    O1    A    
C19   C21   A    
C4    C23   S    
C52   O24   S    
C39   H13   S    
C5    C36   S    
C6    C35   S    
C7    C9    A    
C42   H2    S    
C30   H8    S    
C49   O18   S    
C29   N3    A    
O10   H21   S    
C7    C17   A    
O22   H27   S    
C31   C33   A    
C19   N3    A    
C47   O14   S    
C2    O4    A    
C43   H15   S    
N4    Zn1   S    
C40   C42   A    
C50   O20   S    
C20   C45   S    
C3    C24   S    
C2    O2    A    
C21   H6    S    
C45   O10   S    
C16   C52   S    
C49   O17   D    
C46   O12   S    
C33   H9    S    
C37   C39   A    
C40   H14   S    
C9    H18   S    
C50   O19   D    
C17   H3    S    
C4    C6    A    
C11   H20   S    
C23   O5    A    
O14   H23   S    
C12   H19   S    
O8    Zn1   S    
C24   O6    A    
C4    C44   A    
C3    C5    A    
C8    C18   A    
C28   C48   S    
C32   C34   A    
O18   H25   S    
C14   N2    S    
C16   C18   A    
C23   O7    A    
C9    C11   A    
C10   C12   A    
C22   H5    S    
C24   O8    A    
C5    C44   A    
C12   C14   A    
C34   H10   S    
C6    C43   A    
C13   C15   A    
C26   N6    S    
C14   C16   A    
C10   H17   S    
C25   N5    S    
C29   H7    S    
O7    Zn2   S    
C15   C17   A    
C21   C25   A    
C32   C42   A    
C31   C41   A    
O24   H28   S    
C35   C37   A    
C1    C7    S    
C20   N4    A    
C2    C8    S    
N3    Zn2   S    
O6    Zn2   S    
C20   C22   A    
C19   C46   S    
C18   H4    S    
C25   C27   A    
C51   O21   D    
C26   C28   A    
O4    Zn1   S    
C1    O3    A    
C15   C51   S    
C28   C30   A    
O2    Zn2   S    
C52   O23   D    
C38   C40   A    
C11   C13   A    
C48   O16   S    
C44   H16   S    
C36   C38   A    
C33   C35   A    
O3    Zn2   S    
C27   C47   S    
C34   C36   A    
C31   C49   S    
N5    N6    D    
C37   H11   S    
C38   H12   S    
C8    C10   A    
N1    N2    D    
C22   C26   A    
O20   H26   S    
C41   H1    S    
C32   C50   S    
C47   O13   D    
O5    Zn1   S    
C30   N4    A    
