data_mof_unit_66559.cif
_audit_creation_date              2012-12-10T18:19:57-0500
_audit_creation_method            fapswitch 2.2
_symmetry_space_group_name_H-M    P1
_symmetry_Int_Tables_number       1
_space_group_crystal_system       triclinic
_cell_length_a                    11.163338
_cell_length_b                    10.953711
_cell_length_c                    9.741734
_cell_angle_alpha                 89.012928
_cell_angle_beta                  92.627443
_cell_angle_gamma                 86.487737
_cell_volume                      1187.49181444

loop_
_atom_site_label
_atom_site_type_symbol
_atom_type_description
_atom_site_fract_x
_atom_site_fract_y
_atom_site_fract_z
_atom_type_partial_charge
C1    C     C_R   0.507870 0.260061 0.501218 0.964319
C2    C     C_R   0.492543 0.739967 0.498756 0.965830
C3    C     C_3   0.460360 0.962179 0.619011 -0.274112
C4    C     C_3   0.540099 0.037943 0.380664 -0.288562
C5    C     C_3   0.520024 0.606010 0.048087 -0.153393
C6    C     C_3   0.479824 0.394061 0.951735 -0.150822
C7    C     C_3   0.419823 0.576800 0.944047 -0.137724
C8    C     C_3   0.580152 0.423046 0.055777 -0.143129
C9    C     C_3   0.600151 0.528535 0.956281 0.452713
C10   C     C_3   0.399884 0.471481 0.043836 0.490689
C11   C     C_R   0.260678 0.490704 0.497345 0.941907
C12   C     C_R   0.739169 0.509216 0.502482 0.944966
C13   C     C_3   0.044795 0.427624 0.603516 -0.231941
C14   C     C_3   0.954488 0.572326 0.395446 -0.245065
C15   C     C_3   0.951096 0.394257 0.490187 0.299956
C16   C     C_3   0.048328 0.605925 0.508419 0.292040
C17   C     C_3   0.876607 0.516449 0.506599 -0.132380
C18   C     C_3   0.122884 0.483523 0.492272 -0.133919
C19   C     C_3   0.972448 0.549970 0.619847 -0.143474
C20   C     C_3   0.026783 0.450233 0.378890 -0.151644
C21   C     C_3   0.578394 0.026459 0.603580 0.348742
C22   C     C_3   0.422428 0.973599 0.396244 0.337689
C23   C     C_3   0.606239 0.943123 0.481122 0.293561
C24   C     C_3   0.394555 0.056885 0.518416 0.291440
C25   C     C_3   0.488813 0.878003 0.497056 -0.302515
C26   C     C_3   0.511821 0.122030 0.502680 -0.307027
Cu1   Cu    Cu3+1 0.500030 0.499990 0.643150 1.110375
Cu2   Cu    Cu3+1 0.499970 0.500010 0.356850 1.113406
N1    N     N_3   0.500090 0.499970 0.858290 -0.259667
N2    N     N_3   0.499910 0.500030 0.141710 -0.259779
O1    O     O_R   0.500060 0.316850 0.620870 -0.550246
O2    O     O_R   0.499940 0.683150 0.379130 -0.549826
O3    O     O_R   0.500000 0.316860 0.379090 -0.583284
O4    O     O_R   0.500000 0.683140 0.620910 -0.580446
O5    O     O_R   0.316880 0.499960 0.620870 -0.582129
O6    O     O_R   0.683120 0.500040 0.379130 -0.587796
O7    O     O_R   0.316830 0.499970 0.379090 -0.498992
O8    O     O_R   0.683170 0.500030 0.620910 -0.491760
S1    S     S_3+6 0.893811 0.244235 0.477463 0.040921
O9    O     O_2   0.897068 0.183634 0.616325 -0.201637
O10   O     O_2   0.766172 0.251940 0.421770 -0.365850
O11   O     O_3   0.980178 0.157593 0.375345 -0.415328
H1    H     H_    0.930438 0.146135 0.290436 0.390515
S2    S     S_3+6 0.106497 0.755753 0.518553 0.064300
O12   O     O_2   0.235627 0.747858 0.568958 -0.358109
O13   O     O_2   0.098572 0.815266 0.379039 -0.151687
O14   O     O_3   0.024947 0.843945 0.623563 -0.455474
H2    H     H_    0.075082 0.849826 0.709149 0.367138
C27   C     C_1   0.065567 0.336438 0.715027 0.596286
N3    N     N_1   0.076127 0.261027 0.800359 -0.136053
C28   C     C_1   0.931132 0.660811 0.281503 0.605539
N4    N     N_1   0.918647 0.734312 0.194292 -0.078310
C29   C     C_1   0.973720 0.615101 0.749719 0.541169
N5    N     N_1   0.979531 0.668737 0.850888 -0.175700
C30   C     C_1   0.023154 0.388110 0.247085 0.554919
N6    N     N_1   0.015113 0.337360 0.144211 -0.156642
S3    S     S_3+6 0.741033 0.858988 0.443954 0.048669
O15   O     O_2   0.789825 0.787053 0.568331 -0.243825
O16   O     O_2   0.711670 0.771623 0.333180 -0.333884
O17   O     O_3   0.842901 0.951569 0.388288 -0.448723
H3    H     H_    0.884549 0.978092 0.473068 0.462650
S4    S     S_3+6 0.258683 0.141896 0.548885 0.056676
O18   O     O_2   0.284127 0.228091 0.662269 -0.373456
O19   O     O_2   0.217055 0.215239 0.422623 -0.216669
O20   O     O_3   0.152292 0.049551 0.593660 -0.388439
H4    H     H_    0.163762 0.039373 0.694667 0.349820
S5    S     S_3+6 0.680299 0.051386 0.747712 0.073444
O21   O     O_2   0.691453 0.186058 0.766594 -0.237035
O22   O     O_2   0.633652 0.997161 0.875639 -0.308168
O23   O     O_3   0.816699 0.983553 0.725898 -0.429141
H5    H     H_    0.861579 0.991112 0.815145 0.391344
S6    S     S_3+6 0.317547 0.951584 0.254482 0.109424
O24   O     O_2   0.310593 0.817763 0.226544 -0.235745
O25   O     O_2   0.195040 0.004996 0.285443 -0.134747
O26   O     O_3   0.361085 0.023506 0.113410 -0.528874
H6    H     H_    0.286062 0.058735 0.066126 0.394583
C31   C     C_1   0.411867 0.929633 0.750261 0.478241
N7    N     N_1   0.374596 0.907946 0.855839 -0.231323
C32   C     C_1   0.588238 0.069620 0.248929 0.560264
N8    N     N_1   0.625433 0.090336 0.143050 -0.178918
C33   C     C_1   0.316968 0.653018 0.887773 0.463995
N9    N     N_1   0.232684 0.711088 0.847238 -0.246127
C34   C     C_1   0.683100 0.345814 0.109867 0.464865
N10   N     N_1   0.767487 0.286546 0.147736 -0.217742
C35   C     C_1   0.543642 0.730034 0.087919 0.455518
N11   N     N_1   0.562156 0.829560 0.114336 -0.142135
C36   C     C_1   0.453832 0.271287 0.909951 0.509332
N12   N     N_1   0.433064 0.172981 0.880902 -0.168148
S7    S     S_3+6 0.743268 0.558903 0.908975 -0.001023
O27   O     O_2   0.816111 0.582899 0.036448 -0.365541
O28   O     O_2   0.800821 0.448579 0.842874 -0.276838
O29   O     O_3   0.730554 0.682662 0.804090 -0.483621
H7    H     H_    0.711696 0.752368 0.864442 0.375278
S8    S     S_3+6 0.256623 0.443555 0.091771 0.001647
O30   O     O_2   0.264194 0.331318 0.183009 -0.251128
O31   O     O_2   0.201693 0.554096 0.160319 -0.315795
O32   O     O_3   0.176460 0.421606 0.947719 -0.579508
H8    H     H_    0.102068 0.474530 0.954206 0.366809

loop_
_geom_bond_atom_site_label_1
_geom_bond_atom_site_label_2
_ccdc_geom_bond_type
C7    C10   S    
C30   N6    T    
C11   C18   S    
C7    N1    S    
Cu1   N1    S    
C8    C34   S    
C21   C26   S    
O32   H8    S    
C1    O3    A    
S1    O10   D    
C29   N5    T    
C13   C18   S    
C34   N10   T    
C24   C26   S    
C20   C30   S    
C35   N11   T    
S3    O16   D    
C10   S8    S    
Cu1   O8    S    
C1    O1    A    
C2    O2    A    
C11   O7    A    
S4    O19   D    
C11   O5    A    
O14   H2    S    
C8    C9    S    
C22   C25   S    
C12   C17   S    
O23   H5    S    
S7    O28   D    
C16   S2    S    
C18   C20   S    
S2    O14   S    
C9    N1    S    
C5    C35   S    
C19   C29   S    
C21   S5    S    
C14   C17   S    
C3    C24   S    
S6    O26   S    
C22   S6    S    
S2    O13   D    
C33   N9    T    
S1    O11   S    
Cu1   O4    S    
C15   C20   S    
C13   C19   S    
Cu1   O1    S    
S5    O21   D    
C14   C20   S    
Cu2   O2    S    
C4    C32   S    
S6    O25   D    
C9    S7    S    
S1    O9    D    
C5    C7    S    
C4    C23   S    
S3    O17   S    
C6    C8    S    
S8    O32   S    
Cu1   O5    S    
C31   N7    T    
C6    C36   S    
C28   N4    T    
O17   H3    S    
S5    O22   D    
O26   H6    S    
C5    C9    S    
S4    O18   D    
C4    C22   S    
C10   N2    S    
C14   C28   S    
C3    C25   S    
S7    O29   S    
S8    O31   D    
C15   S1    S    
C13   C27   S    
C7    C33   S    
Cu2   O3    S    
C27   N3    T    
C13   C15   S    
C1    C26   S    
C14   C16   S    
C3    C21   S    
C12   O6    A    
O11   H1    S    
C3    C31   S    
S2    O12   D    
C5    N2    S    
C23   S3    S    
C24   S4    S    
S4    O20   S    
S6    O24   D    
C6    C10   S    
C4    C26   S    
C15   C17   S    
S5    O23   S    
C8    N2    S    
C21   C23   S    
C2    O4    A    
S3    O15   D    
Cu2   O7    S    
C16   C19   S    
Cu2   N2    S    
O29   H7    S    
C17   C19   S    
C2    C25   S    
C22   C24   S    
C23   C25   S    
C12   O8    A    
S8    O30   D    
C32   N8    T    
C6    N1    S    
Cu2   O6    S    
C36   N12   T    
C16   C18   S    
O20   H4    S    
Cu1   Cu2   S    
S7    O27   D    
