data_mof_unit_20179.cif
_audit_creation_date              2013-03-05T16:23:16-0500
_audit_creation_method            fapswitch 2.2
_symmetry_space_group_name_H-M    P1
_symmetry_Int_Tables_number       1
_space_group_crystal_system       triclinic
_cell_length_a                    27.511392
_cell_length_b                    10.649673
_cell_length_c                    9.852369
_cell_angle_alpha                 89.297892
_cell_angle_beta                  91.751064
_cell_angle_gamma                 87.190231
_cell_volume                      2881.52918707

loop_
_atom_site_label
_atom_site_type_symbol
_atom_site_description
_atom_site_fract_x
_atom_site_fract_y
_atom_site_fract_z
_atom_type_partial_charge
O1    O     O_R   0.500000 0.313960 0.616610 -0.590832
O2    O     O_R   0.500000 0.686040 0.383390 -0.624110
O3    O     O_R   0.500020 0.313950 0.383350 -0.588381
O4    O     O_R   0.499980 0.686050 0.616650 -0.587830
C1    C     C_R   0.500806 0.257449 0.500704 0.913483
C2    C     C_R   0.498961 0.742517 0.499177 0.869167
O5    O     O_R   0.428750 0.500030 0.616610 -0.560292
O6    O     O_R   0.571250 0.499970 0.383390 -0.562716
O7    O     O_R   0.428770 0.500020 0.383360 -0.602824
O8    O     O_R   0.571230 0.499980 0.616640 -0.570096
C3    C     C_R   0.406040 0.502325 0.498917 0.829020
C4    C     C_R   0.593776 0.501999 0.501570 0.873131
Zn1   Zn    Zn3+2 0.499990 0.500010 0.655740 1.066330
Zn2   Zn    Zn3+2 0.500010 0.499990 0.344260 1.042622
C5    C     C_R   0.178437 0.414665 0.570812 0.555889
C6    C     C_R   0.821275 0.624801 0.560534 0.550384
O9    O     O_2   0.203995 0.304068 0.558065 -0.522706
O10   O     O_2   0.794448 0.734441 0.551705 -0.527262
N1    N     N_R   0.200217 0.525726 0.551150 -0.360189
N2    N     N_R   0.799928 0.513659 0.537652 -0.361272
C7    C     C_R   0.174105 0.638739 0.554033 0.580531
C8    C     C_R   0.826684 0.401605 0.538266 0.580432
C9    C     C_R   0.272563 0.584915 0.426895 -0.069760
C10   C     C_R   0.725212 0.460252 0.410944 -0.091602
C11   C     C_R   0.322929 0.579138 0.413024 -0.148929
C12   C     C_R   0.674631 0.457224 0.402087 -0.173899
C13   C     C_R   0.332137 0.442696 0.611131 -0.172446
C14   C     C_R   0.669107 0.570565 0.613562 -0.142248
C15   C     C_R   0.282468 0.453884 0.629611 -0.069299
C16   C     C_R   0.719421 0.569600 0.624967 -0.067910
C17   C     C_R   0.252040 0.522362 0.535781 0.252011
C18   C     C_R   0.747858 0.514328 0.524000 0.258510
C19   C     C_R   0.101453 0.528181 0.600241 -0.102969
C20   C     C_R   0.899458 0.512864 0.590432 -0.103027
C21   C     C_R   0.129806 0.414585 0.604625 -0.068064
C22   C     C_R   0.870695 0.625617 0.594463 -0.068502
C23   C     C_R   0.109809 0.303862 0.649217 -0.172723
C24   C     C_R   0.891131 0.735720 0.639802 -0.169924
C25   C     C_R   0.122923 0.642557 0.567944 -0.156907
C26   C     C_R   0.878010 0.398908 0.555336 -0.159945
C27   C     C_R   0.352897 0.504698 0.502760 -0.043369
C28   C     C_R   0.646516 0.509791 0.505456 -0.041521
H1    H     H_    0.354712 0.387459 0.683327 0.198437
H2    H     H_    0.647832 0.618738 0.689437 0.169503
H3    H     H_    0.267523 0.407802 0.716457 0.164472
H4    H     H_    0.736376 0.612303 0.712436 0.163366
H5    H     H_    0.132906 0.219828 0.668935 0.247764
H6    H     H_    0.868097 0.818930 0.658014 0.248646
C29   C     C_R   0.979207 0.403419 0.619113 0.023574
C30   C     C_R   0.022058 0.637988 0.621420 0.024390
C31   C     C_R   0.971467 0.632140 0.641456 -0.035143
C32   C     C_R   0.029853 0.408825 0.645228 -0.032761
C33   C     C_R   0.949977 0.515758 0.618273 0.044992
C34   C     C_R   0.051217 0.525474 0.623935 0.045472
C35   C     C_R   0.958400 0.292416 0.575536 -0.145087
C36   C     C_R   0.042819 0.749831 0.580700 -0.144318
C37   C     C_R   0.908814 0.288721 0.540401 0.460809
C38   C     C_R   0.092256 0.753880 0.551522 0.458201
O11   O     O_2   0.803177 0.293956 0.529207 -0.449869
O12   O     O_2   0.198105 0.745788 0.549834 -0.454061
C39   C     C_R   0.060787 0.302221 0.678637 0.364753
C40   C     C_R   0.940655 0.737785 0.671827 0.366331
H7    H     H_    0.657596 0.412191 0.316181 0.212256
H8    H     H_    0.338067 0.637096 0.336501 0.209575
H9    H     H_    0.746793 0.419219 0.331182 0.176785
H10   H     H_    0.249664 0.639652 0.354456 0.187428
H11   H     H_    0.981601 0.209327 0.560414 0.237978
H12   H     H_    0.019656 0.833517 0.562861 0.239112
C41   C     C_3   0.528205 0.033967 0.606776 -0.295169
C42   C     C_3   0.471072 0.965679 0.392935 -0.324715
C43   C     C_3   0.545651 0.950246 0.488142 -0.317575
C44   C     C_3   0.453674 0.049648 0.511150 -0.328736
H13   H     H_    0.582705 0.906516 0.475932 0.166905
H14   H     H_    0.416573 0.093422 0.522335 0.167681
H15   H     H_    0.550784 0.062830 0.694966 0.205970
H16   H     H_    0.447992 0.937179 0.305771 0.202959
C45   C     C_3   0.498745 0.877995 0.497537 -0.094997
C46   C     C_3   0.500664 0.121947 0.501837 -0.106927
C47   C     C_3   0.481547 0.960656 0.613653 0.586319
C48   C     C_3   0.517739 0.039040 0.385551 0.592854
C49   C     C_3   0.502296 0.385605 0.051874 -0.455369
C50   C     C_3   0.498105 0.614541 0.948350 -0.472900
C51   C     C_3   0.538804 0.442868 0.957820 0.445303
C52   C     C_3   0.461433 0.556993 0.041814 0.419262
H17   H     H_    0.503670 0.291192 0.100595 0.214078
H18   H     H_    0.496853 0.709313 0.900404 0.214784
N3    N     N_3   0.499960 0.500030 0.863290 -0.166182
N4    N     N_3   0.500040 0.499970 0.136710 -0.164332
C53   C     C_3   0.463837 0.443894 0.950219 0.467785
C54   C     C_3   0.536598 0.555425 0.050435 0.459363
O13   O     O_3   0.461891 0.907298 0.730041 -0.596240
C55   C     C_3   0.449867 0.002695 0.822373 -0.000807
H19   H     H_    0.425792 0.078309 0.773613 0.162274
H20   H     H_    0.483411 0.043663 0.864453 0.146964
C56   C     C_3   0.422781 0.945593 0.938166 -0.650321
H21   H     H_    0.445275 0.866389 0.984118 0.277158
H22   H     H_    0.415435 0.014786 0.018807 0.183484
H23   H     H_    0.387557 0.911838 0.899141 0.299225
O14   O     O_3   0.537823 0.088979 0.267726 -0.588725
C57   C     C_3   0.541660 0.994507 0.169163 0.031713
H24   H     H_    0.504925 0.970064 0.131432 0.145219
H25   H     H_    0.561742 0.908690 0.211049 0.164406
C58   C     C_3   0.569047 0.043301 0.049434 -0.706966
H26   H     H_    0.607562 0.056182 0.080516 0.281196
H27   H     H_    0.568022 0.977695 0.963255 0.177225
H28   H     H_    0.551471 0.133305 0.012826 0.287243
S1    S     S_3+6 0.593722 0.361423 0.909688 0.033331
O15   O     O_2   0.582620 0.262340 0.807870 -0.330242
O16   O     O_2   0.627992 0.450651 0.850648 -0.329469
O17   O     O_3   0.620724 0.294752 0.049805 -0.554244
H29   H     H_    0.652540 0.259448 0.019802 0.385403
S2    S     S_3+6 0.404303 0.628934 0.084812 0.036539
O18   O     O_2   0.378476 0.676061 0.956269 -0.242358
O19   O     O_2   0.373637 0.533157 0.148511 -0.335794
O20   O     O_3   0.411801 0.750788 0.188816 -0.602774
H30   H     H_    0.411763 0.715729 0.282065 0.363834
O21   O     O_3   0.422552 0.389620 0.891223 -0.566380
C59   C     C_3   0.407315 0.294282 0.978636 0.099795
H31   H     H_    0.405769 0.324691 0.086058 0.192486
H32   H     H_    0.433368 0.212219 0.974857 0.111437
C60   C     C_3   0.356755 0.255727 0.934827 -0.759666
H33   H     H_    0.357414 0.213780 0.832387 0.227965
H34   H     H_    0.344125 0.184785 0.007564 0.228507
H35   H     H_    0.330768 0.338936 0.933351 0.281341
O22   O     O_3   0.577975 0.605181 0.113525 -0.554075
C61   C     C_3   0.596189 0.697770 0.028738 0.089272
H36   H     H_    0.569674 0.778809 0.020326 0.117577
H37   H     H_    0.602852 0.662560 0.924989 0.177024
C62   C     C_3   0.643942 0.740367 0.089907 -0.745157
H38   H     H_    0.671347 0.660172 0.095076 0.272489
H39   H     H_    0.657805 0.816516 0.025922 0.213591
H40   H     H_    0.638416 0.776176 0.193981 0.248703
S3    S     S_3+6 0.889477 0.148382 0.463978 0.111201
O23   O     O_2   0.860728 0.076953 0.563843 -0.210074
O24   O     O_2   0.858231 0.180096 0.339233 -0.237852
O25   O     O_3   0.937738 0.057027 0.418177 -0.518347
H41   H     H_    0.924540 0.974076 0.398428 0.390820
S4    S     S_3+6 0.111433 0.896517 0.479499 0.113385
O26   O     O_2   0.141656 0.962839 0.583354 -0.208370
O27   O     O_2   0.141204 0.868809 0.356982 -0.233347
O28   O     O_3   0.063082 0.991303 0.431062 -0.518506
H42   H     H_    0.076500 0.074507 0.414100 0.390906
S5    S     S_3+6 0.043982 0.179654 0.787495 0.061811
O29   O     O_2   0.047526 0.058534 0.711638 -0.217165
O30   O     O_2   0.079528 0.170403 0.906584 -0.258149
O31   O     O_3   0.987541 0.205503 0.845555 -0.512579
H43   H     H_    0.984198 0.139817 0.916239 0.412678
S6    S     S_3+6 0.958692 0.859611 0.779693 0.058018
O32   O     O_2   0.956241 0.980399 0.699459 -0.219042
O33   O     O_2   0.923365 0.871707 0.892823 -0.265889
O34   O     O_3   0.015047 0.830331 0.847453 -0.511893
H44   H     H_    0.018264 0.891909 0.921430 0.411286

loop_
_geom_bond_atom_site_label_1
_geom_bond_atom_site_label_2
_geom_bond_distance
_ccdc_geom_bond_type
S5    O31   1.682352 S    
C51   N3    1.497168 S    
C61   H36   1.103009 S    
C13   C15   1.383598 A    
N4    C54   1.476826 S    
C56   H21   1.105332 S    
S6    O34   1.682533 S    
C43   C45   1.539064 S    
O7    Zn2   2.008912 S    
N1    C17   1.437064 S    
S2    O19   1.499024 D    
C56   H23   1.109457 S    
C5    N1    1.366178 A    
C52   S2    1.779692 S    
O1    C1    1.297616 A    
C30   C34   1.408450 A    
C9    H10   1.082762 S    
C55   H19   1.112065 S    
N1    C7    1.372128 A    
C10   C12   1.393609 A    
C62   H38   1.110808 S    
C44   C47   1.537565 S    
C32   C39   1.414400 A    
C46   C48   1.526385 S    
C50   N3    1.487848 S    
S5    O30   1.503433 D    
C14   C28   1.398387 A    
O4    Zn1   2.013696 S    
C41   C43   1.552201 S    
C59   H31   1.112024 S    
C43   C48   1.537356 S    
C60   H35   1.110654 S    
C4    C28   1.456741 S    
O17   H29   0.990528 S    
C39   S5    1.767203 S    
C51   S1    1.784746 S    
S3    O25   1.683384 S    
C44   C46   1.541297 S    
O34   H44   0.991248 S    
C41   H15   1.107960 S    
C24   C40   1.390410 A    
C23   H5    1.083922 S    
C24   H6    1.083889 S    
C6    N2    1.365031 A    
C62   H40   1.110571 S    
C49   C53   1.537373 S    
C38   S4    1.778883 S    
C9    C11   1.394959 A    
C40   S6    1.767364 S    
C42   C45   1.540286 S    
S1    O16   1.496005 D    
C37   S3    1.778973 S    
C41   C46   1.542636 S    
O2    C2    1.296558 A    
C31   C40   1.415681 A    
C5    C21   1.388656 A    
S2    O18   1.501716 D    
C49   C51   1.530522 S    
C32   C34   1.416131 A    
C45   C47   1.524638 S    
C42   C48   1.538385 S    
S6    O32   1.499152 D    
C7    O12   1.345970 S    
C44   H14   1.110293 S    
C11   C27   1.401441 A    
C8    O11   1.346160 S    
C43   H13   1.110360 S    
C2    C45   1.442406 S    
C61   C62   1.520422 S    
C29   C35   1.404727 A    
C25   C38   1.425635 A    
C14   H2    1.082267 S    
C57   C58   1.518837 S    
C30   C36   1.405305 A    
C15   H3    1.083057 S    
C31   C33   1.417173 A    
C59   C60   1.520955 S    
C9    C17   1.403504 A    
O5    C3    1.299633 A    
C12   H7    1.083388 S    
C10   C18   1.403208 A    
C13   C27   1.399705 A    
C35   H11   1.079948 S    
O14   C57   1.409313 S    
C7    C25   1.417576 A    
O6    C4    1.303093 A    
C29   C32   1.413255 A    
C8    C26   1.415783 A    
Zn1   N3    2.044886 S    
C57   H25   1.112701 S    
C30   C31   1.415997 A    
C58   H27   1.106749 S    
C19   C25   1.416461 A    
C61   H37   1.110479 S    
O7    C3    1.315496 A    
C60   H33   1.109006 S    
O3    Zn2   2.013698 S    
O8    C4    1.309270 A    
C10   H9    1.082828 S    
O4    C2    1.296642 A    
C53   O21   1.412171 S    
C50   C52   1.531357 S    
C35   C37   1.399673 A    
C48   O14   1.410184 S    
C42   H16   1.106684 S    
O22   C61   1.405349 S    
S1    O17   1.680267 S    
C20   C26   1.417239 A    
C41   C47   1.537579 S    
O1    Zn1   2.023151 S    
C52   C53   1.513928 S    
N2    C8    1.370885 A    
S1    O15   1.500629 D    
S4    O28   1.683411 S    
O13   C55   1.406131 S    
C12   C28   1.403041 A    
O31   H43   0.990492 S    
N2    C18   1.434398 S    
C19   C34   1.410263 A    
C5    O9    1.351030 S    
C51   C54   1.515330 S    
O6    Zn2   1.985868 S    
C26   C37   1.425189 A    
C21   C23   1.397059 A    
C47   O13   1.407929 S    
C16   H4    1.082994 S    
C52   N4    1.494395 S    
S6    O33   1.503640 D    
O25   H41   0.990686 S    
O3    C1    1.295958 A    
O8    Zn1   2.008915 S    
C23   C39   1.388971 A    
C56   H22   1.106627 S    
S4    O27   1.503465 D    
C50   C54   1.543829 S    
C36   H12   1.079300 S    
N3    C53   1.475209 S    
Zn2   N4    2.044887 S    
C14   C16   1.384882 A    
C15   C17   1.401267 A    
C50   H18   1.107660 S    
O21   C59   1.410918 S    
C6    C22   1.390620 A    
C16   C18   1.401725 A    
C55   H20   1.111035 S    
S3    O23   1.503486 D    
C29   C33   1.408205 A    
C22   C24   1.397370 A    
C57   H24   1.110197 S    
C19   C21   1.406404 A    
C54   O22   1.409598 S    
C36   C38   1.401294 A    
C3    C27   1.462689 S    
C58   H28   1.103660 S    
C20   C22   1.406964 A    
C55   C56   1.518548 S    
O2    Zn2   2.023149 S    
C59   H32   1.104491 S    
C60   H34   1.110316 S    
C49   N4    1.485459 S    
S4    O26   1.503482 D    
C13   H1    1.079179 S    
O5    Zn1   1.985863 S    
C20   C33   1.410324 A    
C6    O10   1.350835 S    
C58   H26   1.109418 S    
S3    O24   1.503441 D    
C42   C44   1.550136 S    
O20   H30   0.987490 S    
C1    C46   1.443159 S    
O28   H42   0.990744 S    
C11   H8    1.075094 S    
S2    O20   1.680027 S    
C49   H17   1.107312 S    
S5    O29   1.499213 D    
C62   H39   1.110404 S    
