data_mof_unit_22741.cif
_audit_creation_date              2012-10-26T18:29:27-0400
_audit_creation_method            fapswitch 2.2
_symmetry_space_group_name_H-M    P1
_symmetry_Int_Tables_number       1
_space_group_crystal_system       triclinic
_cell_length_a                    11.709335
_cell_length_b                    12.975941
_cell_length_c                    11.738542
_cell_angle_alpha                 100.444133
_cell_angle_beta                  94.664254
_cell_angle_gamma                 91.063126
_cell_volume                      1747.18266993

loop_
_atom_site_label
_atom_site_type_symbol
_atom_type_description
_atom_site_fract_x
_atom_site_fract_y
_atom_site_fract_z
_atom_type_partial_charge
C1    C     C_R   0.501344 0.298829 0.477797 0.566507
C2    C     C_R   0.454340 0.470614 0.965141 -0.036716
C3    C     C_R   0.283909 0.499792 0.499506 0.566779
C4    C     C_R   0.716085 0.500071 0.500474 0.566859
C5    C     C_1   0.162208 0.499717 0.498819 0.061758
C6    C     C_1   0.837785 0.499976 0.501140 0.036104
C7    C     C_1   0.059820 0.499751 0.499406 0.026054
C8    C     C_1   0.940173 0.499867 0.500581 0.011718
C9    C     C_R   0.478039 0.814348 0.533592 -0.064142
C10   C     C_R   0.499225 0.184006 0.462227 -0.056949
C11   C     C_R   0.509831 0.011208 0.341834 0.167383
C12   C     C_R   0.495453 0.700989 0.521925 0.557824
C13   C     C_R   0.414140 0.982846 0.633477 0.235356
C14   C     C_R   0.528336 0.120804 0.358063 0.039863
C15   C     C_R   0.429822 0.874432 0.630100 0.043431
C16   C     C_R   0.459492 0.138180 0.550791 -0.109498
C17   C     C_R   0.504608 0.860820 0.440417 -0.104879
C18   C     C_R   0.451948 0.029456 0.541649 -0.016407
C19   C     C_R   0.486255 0.966169 0.439445 -0.025951
C20   C     C_2   0.397064 0.824615 0.727151 0.682489
C21   C     C_2   0.593007 0.168349 0.275315 0.666272
C22   C     C_2   0.685878 0.646123 0.805984 0.651604
C23   C     C_R   0.376557 0.415161 0.019540 0.018408
C24   C     C_2   0.309120 0.359335 0.194655 0.658511
C25   C     C_2   0.276939 0.354706 0.950016 0.595132
C26   C     C_2   0.720840 0.647947 0.050194 0.573921
C27   C     C_R   0.622401 0.586119 0.980526 0.017349
C28   C     C_R   0.391982 0.419604 0.141935 0.195099
C29   C     C_R   0.607487 0.580977 0.858047 0.182813
C30   C     C_R   0.554190 0.534624 0.157890 0.069936
C31   C     C_R   0.446904 0.464082 0.841969 0.072378
C32   C     C_R   0.544032 0.531493 0.035198 -0.036269
Cu1   Cu    Cu3+1 0.508350 0.507730 0.615930 1.061543
Cu2   Cu    Cu3+1 0.491650 0.492270 0.384070 1.048114
H1    H     H_    0.548164 0.815045 0.371879 0.210302
H2    H     H_    0.271120 0.225173 0.249391 0.333108
H3    H     H_    0.137738 0.355024 0.836908 0.369550
H4    H     H_    0.774969 0.764410 0.182957 0.361615
H5    H     H_    0.440140 0.189234 0.629584 0.207915
H6    H     H_    0.382925 0.413760 0.786011 0.179939
H7    H     H_    0.622289 0.579802 0.213320 0.173661
H8    H     H_    0.423317 0.816735 0.897269 0.379528
H9    H     H_    0.730412 0.256780 0.253771 0.351314
H10   H     H_    0.343761 0.997465 0.143540 0.345029
H11   H     H_    0.241547 0.032418 0.887186 0.404678
H12   H     H_    0.842799 0.664275 0.751597 0.347556
N1    N     N_R   0.520920 0.519350 0.790130 -0.280719
N2    N     N_R   0.479080 0.480650 0.209870 -0.278889
O1    O     O_R   0.505930 0.354460 0.582000 -0.517269
O2    O     O_R   0.452433 0.856911 0.838390 -0.548077
O3    O     O_2   0.556766 0.160373 0.173440 -0.366202
O4    O     O_R   0.694739 0.226018 0.316578 -0.685922
O5    O     O_2   0.623357 0.933992 0.156926 -0.170774
O6    O     O_2   0.460615 0.824404 0.189227 -0.276951
O7    O     O_3   0.417739 0.991726 0.107883 -0.400775
O8    O     O_2   0.431438 0.119666 0.835010 -0.209207
O9    O     O_2   0.264633 0.134341 0.699241 -0.284280
O10   O     O_3   0.261053 0.984895 0.815942 -0.454398
O11   O     O_2   0.658653 0.733804 0.792510 -0.460945
O12   O     O_R   0.494070 0.645540 0.418000 -0.505100
O13   O     O_R   0.795623 0.611540 0.783642 -0.639627
O14   O     O_2   0.212851 0.392022 0.207631 -0.490635
O15   O     O_R   0.336071 0.260076 0.216759 -0.638695
O16   O     O_2   0.259547 0.262704 0.955910 -0.418880
O17   O     O_R   0.201957 0.404051 0.879760 -0.669188
O18   O     O_2   0.818915 0.627204 0.027894 -0.441428
O19   O     O_R   0.701257 0.729098 0.141506 -0.638839
O20   O     O_R   0.491820 0.341410 0.386200 -0.461502
O21   O     O_R   0.508180 0.658590 0.613800 -0.460040
O22   O     O_R   0.344250 0.506540 0.597900 -0.485938
O23   O     O_R   0.655750 0.493460 0.402100 -0.510665
O24   O     O_R   0.330140 0.493480 0.402100 -0.482383
O25   O     O_R   0.669860 0.506520 0.597900 -0.474649
O26   O     O_2   0.321445 0.755909 0.709906 -0.476183
S1    S     S_3+6 0.505047 0.935206 0.197789 0.070167
S2    S     S_3+6 0.342246 0.058930 0.747948 0.071410

loop_
_geom_bond_atom_site_label_1
_geom_bond_atom_site_label_2
_ccdc_geom_bond_type
C12   O21   A    
O8    S2    D    
C22   C29   S    
C27   C29   A    
O10   S2    S    
C7    C8    S    
C11   C19   A    
C26   C27   S    
C13   C18   A    
C29   N1    A    
C26   O19   S    
C14   C21   S    
C30   N2    A    
C11   C14   A    
H9    O4    S    
Cu1   O1    S    
C1    O20   A    
C31   H6    S    
C2    C32   A    
C18   C19   A    
C20   O2    S    
H3    O17   S    
C30   H7    S    
H2    O15   S    
Cu1   O21   S    
O7    S1    S    
C31   N1    A    
Cu2   O12   S    
O5    S1    D    
C15   C20   S    
H11   O10   S    
H12   O13   S    
C26   O18   D    
C3    O22   A    
C25   O17   S    
C4    C6    S    
C10   C14   A    
Cu2   O20   S    
C22   O11   D    
C5    C7    T    
C6    C8    T    
C2    C31   A    
C25   O16   D    
C13   S2    S    
Cu1   Cu2   S    
C20   O26   D    
C23   C28   A    
C4    O25   A    
Cu1   O22   S    
H8    O2    S    
Cu1   O25   S    
C24   O15   S    
C13   C15   A    
Cu1   N1    S    
Cu2   N2    S    
Cu2   O24   S    
C21   O3    D    
O9    S2    D    
C9    C17   A    
C28   N2    A    
C24   O14   D    
C27   C32   A    
C1    C10   S    
C24   C28   S    
C3    C5    S    
C3    O24   A    
C9    C15   A    
C11   S1    S    
C4    O23   A    
C22   O13   S    
C30   C32   A    
H10   O7    S    
C17   C19   A    
C23   C25   S    
C9    C12   S    
C16   H5    S    
O6    S1    D    
C12   O12   A    
H4    O19   S    
C16   C18   A    
C2    C23   A    
C10   C16   A    
C17   H1    S    
C1    O1    A    
Cu2   O23   S    
C21   O4    S    
