data_mof_unit_13810.cif
_audit_creation_date              2012-12-10T18:16:27-0500
_audit_creation_method            fapswitch 2.2
_symmetry_space_group_name_H-M    P1
_symmetry_Int_Tables_number       1
_space_group_crystal_system       triclinic
_cell_length_a                    12.571007
_cell_length_b                    13.463721
_cell_length_c                    27.616569
_cell_angle_alpha                 90.734716
_cell_angle_beta                  102.153624
_cell_angle_gamma                 84.168549
_cell_volume                      4545.58745989

loop_
_atom_site_label
_atom_site_type_symbol
_atom_type_description
_atom_site_fract_x
_atom_site_fract_y
_atom_site_fract_z
_atom_type_partial_charge
C1    C     C_R   0.440798 0.690362 0.491548 0.928933
C2    C     C_R   0.514134 0.567070 0.027545 -0.171380
C3    C     C_R   0.448033 0.400381 0.018850 0.093737
C4    C     C_R   0.500872 0.499191 0.593547 0.964316
C5    C     C_R   0.481814 0.482859 0.048677 0.020762
C6    C     C_R   0.523353 0.656409 0.055528 0.359657
C7    C     C_R   0.524684 0.654426 0.106368 0.431473
C8    C     C_R   0.512389 0.564362 0.129444 -0.241252
C9    C     C_R   0.485107 0.480393 0.100053 -0.120792
C10   C     C_R   0.463074 0.393002 0.122172 0.024083
C11   C     C_R   0.472057 0.389711 0.173444 0.521691
C12   C     C_R   0.461680 0.573846 0.719598 -0.345702
C13   C     C_R   0.522538 0.556285 0.180946 0.607250
C14   C     C_R   0.401989 0.508288 0.267371 0.374385
C15   C     C_R   0.403342 0.522972 0.317983 0.341032
C16   C     C_R   0.559694 0.310076 0.504188 0.865479
C17   C     C_R   0.593109 0.449923 0.337877 -0.321766
C18   C     C_R   0.593197 0.441099 0.287712 -0.183646
C19   C     C_R   0.498200 0.470643 0.252669 0.190223
C20   C     C_R   0.534526 0.558920 0.979155 0.062125
C21   C     C_R   0.491396 0.481853 0.948152 0.078854
C22   C     C_R   0.441877 0.405425 0.967178 0.044696
C23   C     C_R   0.508045 0.487236 0.746806 0.200110
C24   C     C_R   0.599845 0.623088 0.961280 -0.184737
C25   C     C_R   0.390048 0.340218 0.883662 -0.144328
C26   C     C_R   0.423997 0.314907 0.041904 -0.222311
C27   C     C_R   0.432481 0.311095 0.092788 -0.150777
C28   C     C_R   0.499603 0.498469 0.406138 0.916111
C29   C     C_R   0.389530 0.336182 0.933894 -0.225431
C30   C     C_R   0.724954 0.067617 0.492409 -0.280697
C31   C     C_R   0.593684 0.204396 0.501516 -0.170273
C32   C     C_R   0.301370 0.831495 0.491064 -0.295370
C33   C     C_R   0.274822 0.930473 0.501166 -0.231274
C34   C     C_R   0.498157 0.481244 0.897775 -0.063986
C35   C     C_R   0.353182 0.998056 0.506475 0.518271
C36   C     C_R   0.457008 0.969451 0.493837 -0.091840
C37   C     C_R   0.483103 0.868000 0.481984 -0.143403
C38   C     C_R   0.537060 0.036962 0.493563 -0.000091
C39   C     C_R   0.645365 0.001132 0.490887 -0.063210
C40   C     C_R   0.562461 0.549104 0.829735 0.531399
C41   C     C_R   0.671430 0.900420 0.483452 0.336625
C42   C     C_R   0.585625 0.840351 0.468371 0.417906
C43   C     C_R   0.511851 0.139684 0.493408 -0.239703
C44   C     C_R   0.703029 0.167576 0.503464 0.454122
C45   C     C_R   0.557290 0.550726 0.879816 -0.026462
C46   C     C_R   0.407098 0.797917 0.485462 -0.076174
C47   C     C_R   0.082171 0.355232 0.427876 -0.288777
C48   C     C_R   0.807223 0.604053 0.568875 0.567833
C49   C     C_R   0.918764 0.605588 0.590277 -0.508575
C50   C     C_R   0.000258 0.562709 0.566414 0.473140
C51   C     C_R   0.967058 0.516742 0.519791 -0.105394
C52   C     C_R   0.448183 0.415820 0.815068 0.564024
C53   C     C_R   0.853814 0.505797 0.502616 0.061886
C54   C     C_R   0.042799 0.472079 0.491902 0.020992
C55   C     C_R   0.007521 0.404532 0.453443 0.147698
C56   C     C_R   0.610683 0.619266 0.912256 -0.177515
C57   C     C_R   0.898409 0.386246 0.441182 -0.248957
C58   C     C_R   0.822995 0.436857 0.465042 -0.079541
C59   C     C_R   0.152110 0.493849 0.499499 0.004059
C60   C     C_R   0.190591 0.375696 0.439511 0.047602
C61   C     C_R   0.553949 0.404698 0.723843 0.569725
C62   C     C_R   0.551633 0.410439 0.672950 -0.472418
C63   C     C_R   0.462813 0.580543 0.669131 0.409625
C64   C     C_3   0.455131 0.753413 0.664788 0.108227
C65   C     C_3   0.455364 0.832309 0.625898 -0.862818
C66   C     C_3   0.578327 0.232169 0.731364 0.124947
C67   C     C_R   0.445433 0.411481 0.865357 -0.033736
C68   C     C_3   0.601532 0.151760 0.771440 -0.784813
C69   C     C_3   0.865878 0.198562 0.553576 0.080123
C70   C     C_3   0.934253 0.283403 0.572385 -0.754035
C71   C     C_3   0.830437 0.833050 0.534019 0.137809
C72   C     C_3   0.904374 0.910186 0.560333 -0.412173
C73   C     C_3   0.958977 0.879557 0.613338 -0.981856
C74   C     C_3   0.361075 0.090231 0.576432 0.055605
C75   C     C_3   0.341149 0.195439 0.595631 -0.773117
C76   C     C_3   0.620703 0.789802 0.393237 0.063861
C77   C     C_3   0.633839 0.699618 0.360301 -0.339433
C78   C     C_R   0.503407 0.496323 0.645973 -0.155346
C79   C     C_3   0.682112 0.725158 0.316313 -0.865916
C80   C     C_3   0.743085 0.641035 0.641877 0.150201
C81   C     C_3   0.772220 0.736839 0.669240 -0.937683
C82   C     C_3   0.152296 0.625601 0.619130 0.146903
C83   C     C_3   0.171258 0.708780 0.585530 -0.893717
C84   C     C_3   0.292390 0.670167 0.318810 0.109736
C85   C     C_3   0.306942 0.735181 0.364957 -0.352386
C86   C     C_3   0.285367 0.846031 0.351471 -0.955158
C87   C     C_3   0.233413 0.470400 0.227788 0.079027
C88   C     C_3   0.141422 0.497382 0.182833 -0.333466
C89   C     C_R   0.498595 0.490431 0.353292 -0.193504
C90   C     C_3   0.054478 0.424272 0.176680 -0.941700
C91   C     C_3   0.442013 0.792266 0.137504 0.165223
C92   C     C_3   0.462334 0.876091 0.174709 -0.758899
C93   C     C_3   0.424575 0.779815 0.003722 0.094626
C94   C     C_3   0.419288 0.890857 0.992858 -0.810791
H1    H     H_    0.347906 0.286368 0.859323 0.183502
H2    H     H_    0.240957 0.779810 0.491450 0.183743
H3    H     H_    0.194830 0.953611 0.508670 0.162763
H4    H     H_    0.249481 0.338185 0.420211 0.136948
H5    H     H_    0.870897 0.332664 0.412820 0.152871
H6    H     H_    0.056816 0.301841 0.399114 0.147906
H7    H     H_    0.182909 0.551789 0.523624 0.187604
H8    H     H_    0.660070 0.671020 0.899793 0.191966
H9    H     H_    0.940745 0.637275 0.626291 0.171818
H10   H     H_    0.742346 0.414948 0.455558 0.213548
H11   H     H_    0.645500 0.675191 0.985137 0.207421
H12   H     H_    0.403139 0.248025 0.021726 0.140704
H13   H     H_    0.588139 0.349103 0.654213 0.151182
H14   H     H_    0.539402 0.741663 0.688137 0.156748
H15   H     H_    0.397055 0.781952 0.688233 0.146528
H16   H     H_    0.371677 0.849235 0.603107 0.254805
H17   H     H_    0.483161 0.901749 0.644244 0.193783
H18   H     H_    0.511550 0.805047 0.601381 0.276451
H19   H     H_    0.628433 0.209803 0.703572 0.127506
H20   H     H_    0.489720 0.235920 0.713592 0.158097
H21   H     H_    0.552387 0.171636 0.799852 0.271081
H22   H     H_    0.579601 0.079115 0.754810 0.193945
H23   H     H_    0.666996 0.425633 0.364624 0.175381
H24   H     H_    0.689740 0.144217 0.789459 0.254527
H25   H     H_    0.921648 0.135542 0.543884 0.140617
H26   H     H_    0.828729 0.175316 0.584446 0.127553
H27   H     H_    0.880745 0.349715 0.580371 0.252349
H28   H     H_    0.994022 0.259786 0.606924 0.203818
H29   H     H_    0.980058 0.303151 0.544288 0.261041
H30   H     H_    0.883586 0.763566 0.530988 0.164050
H31   H     H_    0.771950 0.816243 0.557350 0.175120
H32   H     H_    0.967760 0.921766 0.538898 0.226237
H33   H     H_    0.855514 0.981632 0.563677 0.215012
H34   H     H_    0.415234 0.243274 0.109038 0.182822
H35   H     H_    0.899081 0.892815 0.637620 0.270946
H36   H     H_    0.027568 0.925424 0.627066 0.266332
H37   H     H_    0.991018 0.800098 0.615632 0.276110
H38   H     H_    0.450241 0.065640 0.587751 0.142899
H39   H     H_    0.314162 0.040115 0.593761 0.146065
H40   H     H_    0.253095 0.223026 0.584397 0.267260
H41   H     H_    0.365318 0.195264 0.636651 0.191339
H42   H     H_    0.390268 0.246513 0.580397 0.261497
H43   H     H_    0.697399 0.826829 0.398929 0.196794
H44   H     H_    0.551572 0.842794 0.373656 0.122610
H45   H     H_    0.667314 0.412537 0.275969 0.165763
H46   H     H_    0.688526 0.638680 0.382256 0.257245
H47   H     H_    0.552370 0.673696 0.346136 0.213937
H48   H     H_    0.626700 0.783017 0.292565 0.270299
H49   H     H_    0.692791 0.657006 0.294118 0.301543
H50   H     H_    0.763526 0.752804 0.329265 0.251737
H51   H     H_    0.802931 0.576354 0.656983 0.124565
H52   H     H_    0.664750 0.624581 0.650465 0.188873
H53   H     H_    0.718860 0.802061 0.650552 0.267190
H54   H     H_    0.760388 0.731866 0.707839 0.241407
H55   H     H_    0.858847 0.747992 0.671032 0.245703
H56   H     H_    0.344373 0.280135 0.945490 0.142710
H57   H     H_    0.232978 0.597214 0.641765 0.210283
H58   H     H_    0.106062 0.655129 0.646964 0.111739
H59   H     H_    0.097296 0.729847 0.556365 0.237746
H60   H     H_    0.192157 0.775640 0.608085 0.239323
H61   H     H_    0.240867 0.684716 0.567809 0.283819
H62   H     H_    0.206551 0.683995 0.297771 0.173464
H63   H     H_    0.345931 0.693917 0.294398 0.149238
H64   H     H_    0.249963 0.716292 0.388449 0.243248
H65   H     H_    0.391984 0.719625 0.386469 0.227158
H66   H     H_    0.342951 0.866678 0.328697 0.258788
H67   H     H_    0.805038 0.042397 0.485670 0.187387
H68   H     H_    0.297317 0.891227 0.385724 0.283204
H69   H     H_    0.200024 0.863691 0.330476 0.267676
H70   H     H_    0.197981 0.471897 0.261520 0.177846
H71   H     H_    0.271110 0.393391 0.222720 0.174977
H72   H     H_    0.102713 0.573997 0.187297 0.229980
H73   H     H_    0.176026 0.496304 0.148919 0.229493
H74   H     H_    0.091040 0.347389 0.171207 0.268800
H75   H     H_    0.988936 0.446055 0.143779 0.271474
H76   H     H_    0.017528 0.425306 0.209878 0.265245
H77   H     H_    0.387690 0.742566 0.150448 0.136173
H78   H     H_    0.425101 0.635570 0.738041 0.159624
H79   H     H_    0.399052 0.826260 0.101412 0.126400
H80   H     H_    0.514790 0.928168 0.162503 0.256830
H81   H     H_    0.383283 0.918075 0.177705 0.191281
H82   H     H_    0.503511 0.844831 0.211685 0.267495
H83   H     H_    0.355394 0.767376 0.021670 0.103939
H84   H     H_    0.412927 0.739864 0.967856 0.160783
H85   H     H_    0.485200 0.905285 0.973455 0.260283
H86   H     H_    0.338908 0.916775 0.968907 0.202437
H87   H     H_    0.429476 0.933441 0.027967 0.254905
H88   H     H_    0.427914 0.170835 0.484375 0.241683
N1    N     N_R   0.507006 0.483290 0.798421 -0.322096
N2    N     N_R   0.500863 0.470758 0.201351 -0.324248
N3    N     N_R   0.222180 0.444690 0.474320 -0.124558
N4    N     N_R   0.776980 0.554780 0.525420 -0.150516
O1    O     O_R   0.366730 0.627160 0.487740 -0.649261
O2    O     O_R   0.410930 0.482330 0.420550 -0.580030
O3    O     O_R   0.589030 0.517690 0.436960 -0.646800
O4    O     O_2   0.622038 0.612896 0.812323 -0.582283
O5    O     O_3   0.420473 0.665490 0.640636 -0.633495
O6    O     O_3   0.607375 0.323891 0.753112 -0.600408
O7    O     O_3   0.785445 0.230777 0.511227 -0.602480
O8    O     O_3   0.778998 0.863071 0.484846 -0.658702
O9    O     O_3   0.325471 0.091171 0.524445 -0.634854
O10   O     O_3   0.600110 0.757935 0.438838 -0.609174
O11   O     O_3   0.726052 0.654946 0.589780 -0.596825
O12   O     O_2   0.553538 0.632871 0.210743 -0.551053
O13   O     O_3   0.108460 0.543284 0.592216 -0.626532
O14   O     O_3   0.311957 0.568097 0.333264 -0.637169
O15   O     O_3   0.310733 0.540677 0.231630 -0.662497
O16   O     O_3   0.543435 0.740631 0.133402 -0.532225
O17   O     O_3   0.527697 0.748042 0.034104 -0.592800
O18   O     O_2   0.391458 0.354121 0.782922 -0.584062
O19   O     O_2   0.451935 0.306592 0.195349 -0.593878
O20   O     O_R   0.544830 0.662520 0.504140 -0.528608
O21   O     O_R   0.410970 0.482310 0.563040 -0.606214
O22   O     O_R   0.589070 0.517670 0.579450 -0.607862
O23   O     O_R   0.455170 0.337480 0.495860 -0.642298
O24   O     O_R   0.633270 0.372840 0.512260 -0.595691
Zn1   Zn    Zn3+2 0.381080 0.476390 0.489050 0.965789
Zn2   Zn    Zn3+2 0.618920 0.523610 0.510950 1.006055

loop_
_geom_bond_atom_site_label_1
_geom_bond_atom_site_label_2
_ccdc_geom_bond_type
C10   C27   A    
C24   H11   S    
C66   C68   S    
C87   C88   S    
C73   H37   S    
C60   N3    A    
C66   H19   S    
C74   H38   S    
C41   C42   A    
C74   O9    S    
C35   C36   A    
C25   C67   A    
C52   N1    A    
C24   C56   A    
C13   N2    A    
C28   O3    A    
C26   H12   S    
C57   C58   A    
C75   H40   S    
C7    C8    A    
C39   C41   A    
C83   H60   S    
C87   H71   S    
C85   C86   S    
C84   O14   S    
C16   C31   S    
C23   N1    S    
C12   C23   A    
C44   O7    S    
C8    C13   A    
C31   C43   A    
C36   C37   A    
C22   C29   A    
C7    O16   S    
N4    Zn2   S    
C69   C70   S    
C28   O2    A    
C38   C39   A    
O2    Zn1   S    
C75   H41   S    
C1    C46   S    
C79   H48   S    
C83   H61   S    
C57   H5    S    
C74   H39   S    
C35   O9    S    
C91   H79   S    
C18   C19   A    
C37   C42   A    
C63   O5    S    
C65   H17   S    
C76   O10   S    
C68   H24   S    
C29   H56   S    
C54   C55   A    
C70   H29   S    
C79   H49   S    
C20   C24   A    
C45   C56   A    
C8    C9    A    
C81   H53   S    
C66   O6    S    
C61   O6    S    
C77   H46   S    
C4    O22   A    
C28   C89   S    
C86   H68   S    
C94   H87   S    
C6    O17   S    
C9    C10   A    
C82   H57   S    
C17   H23   S    
C83   H59   S    
C88   H73   S    
C43   H88   S    
C80   H52   S    
C87   H70   S    
C47   C60   A    
C21   C22   A    
O21   Zn1   S    
C30   C44   A    
C2    C6    A    
C18   H45   S    
C64   H14   S    
C54   C59   A    
C1    O1    A    
C92   H81   S    
C25   C29   A    
C40   C45   A    
C73   H35   S    
C31   C44   A    
C72   H33   S    
C2    C20   A    
C59   H7    S    
C71   H30   S    
C17   C89   A    
C84   C85   S    
C12   H78   S    
C74   C75   S    
C91   C92   S    
C12   C63   A    
C93   H83   S    
C75   H42   S    
C80   C81   S    
C71   O8    S    
C21   C34   A    
C92   H80   S    
C76   H43   S    
C69   H25   S    
C92   H82   S    
C47   H6    S    
C84   H63   S    
C72   H32   S    
C52   O18   S    
C19   N2    S    
C53   N4    A    
C65   H18   S    
C48   N4    A    
C41   O8    S    
C15   C89   A    
C27   H34   S    
C70   H28   S    
C79   H50   S    
C13   O12   S    
O22   Zn2   S    
C81   H54   S    
C90   H76   S    
C69   O7    S    
C17   C18   A    
C26   C27   A    
C77   C79   S    
C50   C51   A    
C34   C45   A    
C94   H86   S    
C76   C77   S    
C42   O10   S    
C1    O20   A    
C52   C67   A    
C93   H84   S    
C68   H22   S    
C53   C58   A    
C48   C49   A    
C32   H2    S    
O1    Zn1   S    
C25   H1    S    
C88   H72   S    
C82   C83   S    
C55   C57   A    
C38   C43   A    
C2    C5    A    
C58   H10   S    
C85   H64   S    
C64   O5    S    
C4    O21   A    
C47   C55   A    
C73   H36   S    
C16   O23   A    
C88   C90   S    
C32   C33   A    
C66   H20   S    
C90   H74   S    
C32   C46   A    
C14   C19   A    
C62   C78   A    
C3    C26   A    
C11   N2    A    
C5    C9    A    
C72   C73   S    
C3    C5    A    
O3    Zn2   S    
C34   C67   A    
C49   H9    S    
C50   O13   S    
C6    C7    A    
C62   H13   S    
C76   H44   S    
C4    C78   S    
C11   O19   S    
C93   C94   S    
C69   H26   S    
O24   Zn2   S    
C91   H77   S    
C48   O11   S    
C51   C54   A    
C71   C72   S    
C14   O15   S    
C40   N1    A    
C16   O24   A    
C56   H8    S    
C82   O13   S    
C64   C65   S    
C15   O14   S    
C84   H62   S    
C70   H27   S    
C64   H15   S    
N3    Zn1   S    
C81   H55   S    
C80   O11   S    
C90   H75   S    
C36   C38   A    
C33   C35   A    
C30   C39   A    
C59   N3    A    
C33   H3    S    
C94   H85   S    
C61   C62   A    
C93   O17   S    
C77   H47   S    
C65   H16   S    
C91   O16   S    
C80   H51   S    
C10   C11   A    
C68   H21   S    
O20   Zn2   S    
C23   C61   A    
C40   O4    S    
C20   C21   A    
C49   C50   A    
C60   H4    S    
O23   Zn1   S    
C14   C15   A    
C71   H31   S    
C3    C22   A    
C86   H69   S    
C85   H65   S    
C30   H67   S    
C51   C53   A    
C37   C46   A    
C86   H66   S    
C87   O15   S    
C82   H58   S    
C63   C78   A    
