data_mof_unit_20635.cif
_audit_creation_date              2012-12-10T18:49:58-0500
_audit_creation_method            fapswitch 2.2
_symmetry_space_group_name_H-M    P1
_symmetry_Int_Tables_number       1
_space_group_crystal_system       triclinic
_cell_length_a                    10.771735
_cell_length_b                    9.82115
_cell_length_c                    10.699954
_cell_angle_alpha                 90.84353
_cell_angle_beta                  90.816848
_cell_angle_gamma                 90.386028
_cell_volume                      1131.69194515

loop_
_atom_site_label
_atom_site_type_symbol
_atom_type_description
_atom_site_fract_x
_atom_site_fract_y
_atom_site_fract_z
_atom_type_partial_charge
C1    C     C_R   0.260371 0.499567 0.501871 0.951932
C2    C     C_3   0.600792 0.400491 0.926993 -0.373962
C3    C     C_R   0.065392 0.384242 0.460388 -0.203581
C4    C     C_R   0.068265 0.610691 0.552775 -0.265206
C5    C     C_R   0.938220 0.384191 0.453007 0.340232
C6    C     C_R   0.940972 0.610911 0.557879 0.389125
C7    C     C_R   0.873952 0.498862 0.503242 -0.289005
C8    C     C_R   0.129042 0.498324 0.504745 -0.164276
C9    C     C_R   0.542725 0.073892 0.601666 0.001169
C10   C     C_R   0.542275 0.929981 0.601838 0.023961
C11   C     C_R   0.457242 0.926092 0.398312 -0.006770
C12   C     C_R   0.457293 0.069957 0.398396 0.016456
C13   C     C_R   0.501077 0.499413 0.257099 0.945816
C14   C     C_R   0.740585 0.499996 0.501017 0.992024
C15   C     C_R   0.503100 0.501182 0.742131 0.885590
C16   C     C_3   0.545050 0.644853 0.072770 0.254219
C17   C     C_3   0.369052 0.467928 0.064653 0.225817
C18   C     C_3   0.531766 0.648352 0.930118 -0.414731
C19   C     C_3   0.373259 0.461738 0.920985 -0.435629
C20   C     C_3   0.597394 0.394280 0.069869 -0.279292
C21   C     C_3   0.503425 0.499640 0.120059 -0.158285
C22   C     C_3   0.503173 0.503329 0.877708 0.008691
H1    H     H_    0.422716 0.870251 0.317061 0.141866
H2    H     H_    0.423195 0.122692 0.317356 0.208116
H3    H     H_    0.480768 0.722914 0.111008 0.096459
H4    H     H_    0.308328 0.554408 0.091933 0.064715
H5    H     H_    0.454893 0.718511 0.904499 0.151236
H6    H     H_    0.301595 0.530921 0.881547 0.141929
H7    H     H_    0.691767 0.415499 0.108366 0.250898
H8    H     H_    0.573259 0.289693 0.099133 0.245853
H9    H     H_    0.695154 0.430921 0.896416 0.229029
H10   H     H_    0.581994 0.296448 0.888271 0.198212
H11   H     H_    0.115547 0.295707 0.428382 0.242074
H12   H     H_    0.121040 0.696669 0.590191 0.209277
H13   H     H_    0.577537 0.129761 0.682778 0.139490
H14   H     H_    0.576182 0.877169 0.683278 0.169301
N1    N     N_R   0.499970 0.857200 0.499970 -0.098322
N2    N     N_R   0.499970 0.142800 0.499970 -0.098623
O1    O     O_R   0.316750 0.614620 0.499990 -0.641970
O2    O     O_R   0.316750 0.385380 0.499990 -0.598461
O3    O     O_R   0.499970 0.614670 0.314790 -0.628128
O4    O     O_R   0.499970 0.385330 0.314790 -0.560356
O5    O     O_R   0.683220 0.614710 0.500010 -0.520378
O6    O     O_R   0.683220 0.385290 0.500010 -0.571143
O7    O     O_R   0.500010 0.614660 0.685200 -0.631274
O8    O     O_R   0.500010 0.385340 0.685200 -0.656195
Zn1   Zn    Zn3+2 0.499980 0.653120 0.500000 1.046974
Zn2   Zn    Zn3+2 0.499980 0.346880 0.500000 1.057138
S1    S     S_3+6 0.701407 0.699664 0.118312 0.041453
O9    O     O_2   0.706683 0.852529 0.114493 -0.233184
O10   O     O_2   0.736264 0.655034 0.247525 -0.282129
O11   O     O_3   0.805941 0.636190 0.018020 -0.565103
H15   H     H_    0.885689 0.680506 0.042480 0.391860
S2    S     S_3+6 0.290104 0.316364 0.116499 0.000063
O12   O     O_2   0.364974 0.191189 0.089307 -0.288495
O13   O     O_2   0.263883 0.324928 0.253307 -0.346381
O14   O     O_3   0.153888 0.302063 0.038456 -0.512382
H16   H     H_    0.106800 0.384370 0.062788 0.349607
H17   H     H_    0.615975 0.690694 0.886702 0.278861
H18   H     H_    0.351247 0.357760 0.883614 0.248898
S3    S     S_3+6 0.869194 0.237480 0.379256 0.090915
O15   O     O_2   0.814899 0.148106 0.477587 -0.192360
O16   O     O_2   0.768156 0.277471 0.289284 -0.320371
O17   O     O_3   0.975464 0.146720 0.300622 -0.472329
H19   H     H_    0.995673 0.202541 0.227209 0.388467
S4    S     S_3+6 0.874346 0.750577 0.639697 0.065042
O18   O     O_2   0.819668 0.847637 0.547055 -0.171096
O19   O     O_2   0.774306 0.700885 0.724187 -0.350143
O20   O     O_3   0.982049 0.834824 0.726758 -0.508039
H20   H     H_    0.002948 0.772555 0.795855 0.354833

loop_
_geom_bond_atom_site_label_1
_geom_bond_atom_site_label_2
_ccdc_geom_bond_type
C2    C22   S    
S3    O17   S    
S4    O19   D    
C11   C12   A    
S2    O13   D    
C6    C7    A    
C18   C22   S    
C19   H18   S    
N1    Zn1   S    
C1    C8    S    
C9    C10   A    
C12   H2    S    
N2    Zn2   S    
C15   O8    A    
C4    C8    A    
S1    O11   S    
O17   H19   S    
C20   C21   S    
C13   O3    A    
S4    O18   D    
O3    Zn1   S    
C5    S3    S    
C15   C22   S    
C16   C18   S    
O4    Zn2   S    
C16   S1    S    
C20   H8    S    
C19   H6    S    
O14   H16   S    
C16   C21   S    
O5    Zn1   S    
C10   N1    A    
C17   H4    S    
C2    H10   S    
C13   O4    A    
C17   C19   S    
C3    C8    A    
C5    C7    A    
C20   H7    S    
C7    C14   S    
C4    H12   S    
C12   N2    A    
S3    O15   D    
O8    Zn2   S    
C4    C6    A    
C1    O1    A    
C13   C21   S    
S4    O20   S    
C18   H17   S    
C6    S4    S    
C19   C22   S    
O11   H15   S    
C14   O5    A    
C14   O6    A    
S1    O9    D    
O7    Zn1   S    
C11   H1    S    
C16   H3    S    
C11   N1    A    
C3    H11   S    
O2    Zn2   S    
C9    N2    A    
C9    H13   S    
C10   H14   S    
O20   H20   S    
C1    O2    A    
S1    O10   D    
S2    O12   D    
O1    Zn1   S    
C2    C20   S    
C17   S2    S    
S2    O14   S    
S3    O16   D    
C17   C21   S    
C18   H5    S    
O6    Zn2   S    
C2    H9    S    
C3    C5    A    
C15   O7    A    
