data_mof_unit_13531.cif
_audit_creation_date              2012-12-10T17:07:48-0500
_audit_creation_method            fapswitch 2.2
_symmetry_space_group_name_H-M    P1
_symmetry_Int_Tables_number       1
_space_group_crystal_system       triclinic
_cell_length_a                    10.721178
_cell_length_b                    10.758623
_cell_length_c                    10.016623
_cell_angle_alpha                 90.139677
_cell_angle_beta                  90.203525
_cell_angle_gamma                 89.882957
_cell_volume                      1155.35539134

loop_
_atom_site_label
_atom_site_type_symbol
_atom_type_description
_atom_site_fract_x
_atom_site_fract_y
_atom_site_fract_z
_atom_type_partial_charge
C1    C     C_R   0.496945 0.263184 0.499472 0.949747
C2    C     C_3   0.877950 0.508536 0.500618 -0.069771
C3    C     C_3   0.922613 0.612760 0.401789 -0.288406
C4    C     C_3   0.931841 0.382103 0.448979 -0.221108
C5    C     C_2   0.527255 0.938736 0.389073 -0.138564
C6    C     C_2   0.533718 0.868344 0.501124 0.062789
C7    C     C_2   0.545853 0.070506 0.399831 -0.151861
C8    C     C_2   0.486790 0.132528 0.495646 -0.262020
C9    C     C_2   0.574989 0.567145 0.927234 -0.119328
C10   C     C_2   0.586823 0.552545 0.076079 -0.036803
C11   C     C_R   0.258082 0.509607 0.500098 0.919601
C12   C     C_R   0.506748 0.737582 0.499929 0.979324
C13   C     C_R   0.741942 0.500988 0.500375 0.873225
C14   C     C_3   0.068818 0.523823 0.648246 -0.265157
C15   C     C_3   0.927333 0.538225 0.643593 -0.400087
C16   C     C_3   0.068446 0.630115 0.412105 0.084338
C17   C     C_3   0.074907 0.391932 0.440128 -0.442599
C18   C     C_3   0.121144 0.517941 0.500284 -0.092780
H1    H     H_    0.896383 0.366466 0.345532 0.171422
H2    H     H_    0.902197 0.574216 0.300833 0.181681
H3    H     H_    0.598448 0.117997 0.322545 0.222486
H4    H     H_    0.427902 0.087420 0.569040 0.182282
H5    H     H_    0.630340 0.639175 0.880572 0.195143
H6    H     H_    0.668795 0.590229 0.125229 0.180181
H7    H     H_    0.087917 0.430773 0.692928 0.225847
H8    H     H_    0.415867 0.486839 0.103807 0.201897
H9    H     H_    0.886357 0.475793 0.720087 0.227188
H10   H     H_    0.898236 0.633675 0.672304 0.256294
H11   H     H_    0.103422 0.383181 0.333847 0.230413
H12   H     H_    0.120505 0.312487 0.492559 0.186269
N1    N     N_2   0.501360 0.501330 0.852150 -0.166187
N2    N     N_2   0.501390 0.501360 0.147810 -0.179350
O1    O     O_R   0.499980 0.319060 0.613040 -0.599668
O2    O     O_R   0.500020 0.319100 0.386900 -0.611537
O3    O     O_R   0.314770 0.499960 0.613070 -0.602245
O4    O     O_R   0.314820 0.500000 0.386930 -0.569288
O5    O     O_R   0.499980 0.680900 0.613100 -0.582204
O6    O     O_R   0.500020 0.680940 0.386960 -0.602509
O7    O     O_R   0.685180 0.500000 0.613070 -0.619749
O8    O     O_R   0.685230 0.500040 0.386930 -0.647356
Zn1   Zn    Zn3+2 0.499970 0.499970 0.650990 1.059932
Zn2   Zn    Zn3+2 0.500030 0.500030 0.349010 1.027138
C19   C     C_2   0.125698 0.616330 0.747081 0.962164
O9    O     O_2   0.193481 0.578008 0.836569 -0.560125
O10   O     O_R   0.094463 0.742363 0.743749 -0.758413
H13   H     H_    0.137311 0.792101 0.816696 0.371153
Br1   Br    Br    0.129906 0.627239 0.226609 -0.415529
C20   C     C_2   0.489879 0.894540 0.254104 0.950521
O11   O     O_2   0.558772 0.912686 0.159136 -0.599584
O12   O     O_R   0.373596 0.838905 0.234201 -0.718128
H14   H     H_    0.358973 0.814166 0.137678 0.367807
Br2   Br    Br    0.604206 0.928397 0.669064 -0.390577
C21   C     C_2   0.465020 0.380343 0.895010 1.056489
O13   O     O_2   0.361718 0.341308 0.864916 -0.580772
O14   O     O_R   0.549231 0.303529 0.963349 -0.791530
H15   H     H_    0.512269 0.219500 0.985804 0.360775
C22   C     C_2   0.114844 0.755375 0.466071 1.013275
O15   O     O_2   0.043899 0.838523 0.500002 -0.537416
O16   O     O_R   0.242747 0.776473 0.475147 -0.791000
H16   H     H_    0.263067 0.861976 0.512012 0.342804
C23   C     C_2   0.845771 0.731355 0.401402 0.963274
O17   O     O_2   0.798289 0.770016 0.504058 -0.594768
O18   O     O_R   0.832757 0.798361 0.282779 -0.744717
H17   H     H_    0.783733 0.878134 0.295384 0.372831
C24   C     C_2   0.891334 0.269254 0.528492 0.960241
O19   O     O_2   0.923244 0.256244 0.644935 -0.583245
O20   O     O_R   0.819222 0.177920 0.466011 -0.796554
H18   H     H_    0.799723 0.105823 0.527402 0.392401

loop_
_geom_bond_atom_site_label_1
_geom_bond_atom_site_label_2
_ccdc_geom_bond_type
C2    C4    S    
C19   O9    D    
C11   C18   S    
O6    Zn2   S    
C17   H12   S    
C1    C8    S    
C17   H11   S    
C9    C10   S    
C14   C18   S    
C15   H9    S    
O2    Zn2   S    
O14   H15   S    
H8    N2    S    
O1    Zn1   S    
C11   O3    A    
C17   C18   S    
C22   O15   D    
C1    O1    A    
C7    C8    D    
O7    Zn1   S    
N1    Zn1   S    
C3    H2    S    
C21   O13   D    
N1    C21   S    
O5    Zn1   S    
C2    C15   S    
C19   O10   S    
C15   H10   S    
C4    C24   S    
C5    C6    D    
C4    C17   S    
C16   Br1   S    
O8    Zn2   S    
C20   O11   D    
C1    O2    A    
C2    C3    S    
C16   C22   S    
C21   O14   S    
C14   H7    S    
C12   O6    A    
C23   O17   D    
O3    Zn1   S    
C5    C20   S    
C22   O16   S    
C13   O7    A    
C9    N1    D    
C3    C23   S    
O18   H17   S    
C6    C12   S    
C10   N2    D    
O16   H16   S    
C16   C18   S    
C24   O19   D    
C7    H3    S    
C12   O5    A    
C5    C7    S    
C2    C13   S    
N2    Zn2   S    
C14   C15   S    
C9    H5    S    
C13   O8    A    
O12   H14   S    
C6    Br2   S    
O10   H13   S    
C4    H1    S    
O4    Zn2   S    
C8    H4    S    
C20   O12   S    
C23   O18   S    
C10   H6    S    
C3    C16   S    
O20   H18   S    
C14   C19   S    
C24   O20   S    
C11   O4    A    
