data_mof_unit_5545.cif
_audit_creation_date              2012-12-11T16:15:00-0500
_audit_creation_method            fapswitch 2.2
_symmetry_space_group_name_H-M    P1
_symmetry_Int_Tables_number       1
_space_group_crystal_system       triclinic
_cell_length_a                    13.554001
_cell_length_b                    13.552869
_cell_length_c                    28.41639
_cell_angle_alpha                 90.484986
_cell_angle_beta                  90.401179
_cell_angle_gamma                 60.031974
_cell_volume                      4521.89361925

loop_
_atom_site_label
_atom_site_type_symbol
_atom_type_description
_atom_site_fract_x
_atom_site_fract_y
_atom_site_fract_z
_atom_type_partial_charge
C1    C     C_R   0.278435 0.621358 0.566177 0.546241
C2    C     C_1   0.637526 0.632731 0.612832 0.019061
C3    C     C_3   0.756475 0.655294 0.763975 -0.119853
C4    C     C_3   0.656332 0.680685 0.797241 -0.046178
C5    C     C_3   0.732726 0.569695 0.737025 0.364928
C6    C     C_3   0.649994 0.665257 0.704231 0.048896
C7    C     C_3   0.634257 0.594232 0.770593 0.031786
C8    C     C_3   0.551196 0.690268 0.737669 0.354706
C9    C     C_1   0.671532 0.689507 0.847575 -0.064252
C10   C     C_1   0.645081 0.651178 0.653624 0.017248
C11   C     C_1   0.635779 0.229854 0.611730 0.006208
C12   C     C_R   0.621792 0.601045 0.566747 0.543894
C13   C     C_R   0.752933 0.197155 0.727289 0.321047
C14   C     C_R   0.760000 0.185026 0.776320 -0.185751
C15   C     C_R   0.610825 0.135907 0.774184 0.383782
C16   C     C_R   0.605631 0.145282 0.725334 0.312311
C17   C     C_R   0.675483 0.177172 0.701701 -0.012343
C18   C     C_R   0.687986 0.155467 0.799807 -0.075785
C19   C     C_1   0.698716 0.134142 0.849507 -0.005115
C20   C     C_1   0.658211 0.200800 0.652148 0.050777
C21   C     C_1   0.707137 0.105468 0.889962 0.007857
C22   C     C_1   0.221636 0.642226 0.610471 -0.022833
C23   C     C_R   0.601006 0.279305 0.566023 0.534856
C24   C     C_R   0.174254 0.567968 0.723965 0.009144
C25   C     C_R   0.168004 0.571317 0.773882 0.019508
C26   C     C_R   0.114831 0.774605 0.772773 0.020630
C27   C     C_R   0.118381 0.771437 0.722752 0.025727
C28   C     C_R   0.154212 0.666597 0.699201 0.030768
C29   C     C_R   0.139885 0.674345 0.797787 0.020373
C30   C     C_1   0.125482 0.681884 0.848472 -0.080372
C31   C     C_1   0.185161 0.655775 0.649940 -0.060380
C32   C     C_1   0.102447 0.698107 0.889710 -0.031735
C33   C     C_1   0.636506 0.634430 0.388959 -0.010815
C34   C     C_R   0.276687 0.621131 0.434326 0.544674
C35   C     C_R   0.765154 0.608408 0.277589 0.024453
C36   C     C_R   0.773798 0.617328 0.228191 -0.025354
C37   C     C_R   0.566474 0.736650 0.223113 0.366861
C38   C     C_R   0.557390 0.735432 0.272150 0.025412
C39   C     C_R   0.656749 0.669564 0.299231 0.005164
C40   C     C_R   0.672832 0.679269 0.201360 0.040504
C41   C     C_1   0.678531 0.691026 0.151329 0.006676
C42   C     C_1   0.646088 0.654712 0.348757 -0.051910
C43   C     C_1   0.693128 0.701909 0.110504 -0.005557
C44   C     C_1   0.637577 0.220658 0.390043 0.026538
C45   C     C_R   0.620343 0.600704 0.434263 0.546320
C46   C     C_R   0.634526 0.098044 0.280461 0.310740
C47   C     C_R   0.634215 0.088740 0.231280 -0.049188
C48   C     C_R   0.728828 0.201818 0.225934 0.386286
C49   C     C_R   0.728383 0.210448 0.274723 0.348691
C50   C     C_R   0.680701 0.159222 0.301802 -0.020769
C51   C     C_R   0.681584 0.141895 0.204136 -0.064828
C52   C     C_1   0.688744 0.128003 0.154190 -0.002692
C53   C     C_1   0.661652 0.186237 0.350576 0.064179
C54   C     C_1   0.697867 0.103665 0.113305 -0.005913
C55   C     C_1   0.223960 0.639669 0.389519 -0.024264
C56   C     C_R   0.600757 0.276650 0.434031 0.540812
C57   C     C_R   0.149596 0.764630 0.276424 0.030139
C58   C     C_R   0.151490 0.763367 0.226379 0.031958
C59   C     C_R   0.174964 0.572134 0.226658 -0.132160
C60   C     C_R   0.181900 0.569933 0.275270 -0.131798
C61   C     C_R   0.168712 0.664967 0.300115 0.032705
C62   C     C_R   0.160424 0.667246 0.202311 0.038858
C63   C     C_1   0.138068 0.672690 0.152975 -0.066490
C64   C     C_1   0.192649 0.652227 0.349446 -0.069848
C65   C     C_1   0.106993 0.690619 0.112939 -0.021329
C66   C     C_R   0.720506 0.055756 0.935408 0.542641
C67   C     C_3   0.672215 0.751486 0.730983 -0.068096
C68   C     C_R   0.729749 0.717290 0.932552 0.547371
C69   C     C_R   0.057276 0.729082 0.936280 0.544996
C70   C     C_R   0.714561 0.056227 0.067475 0.538462
C71   C     C_R   0.725373 0.717113 0.064688 0.538566
C72   C     C_R   0.054490 0.727121 0.068369 0.546064
C73   C     C_3   0.572663 0.777449 0.764615 0.001240
C74   C     C_1   0.693705 0.699770 0.887599 -0.013085
Cr1   Cr    Cr6+3 0.413560 0.417690 0.499580 1.024915
Cr2   Cr    Cr6+3 0.418030 0.668340 0.500400 1.027802
Cr3   Cr    Cr6+3 0.668390 0.413960 0.499990 1.052493
Cr4   Cr    Cr6+3 0.919710 0.916540 0.003080 1.017151
Cr5   Cr    Cr6+3 0.665300 0.919470 0.999630 1.036225
Cr6   Cr    Cr6+3 0.916060 0.665490 0.000390 1.020787
H1    H     H_    0.181131 0.499328 0.207917 0.109508
H2    H     H_    0.198287 0.493402 0.293598 0.118610
H3    H     H_    0.840166 0.642620 0.775722 0.115061
H4    H     H_    0.821143 0.198697 0.795832 0.151701
O1    O     O_R   0.503010 0.303330 0.550820 -0.522581
O2    O     O_R   0.522480 0.657560 0.452870 -0.499184
O3    O     O_R   0.693670 0.502790 0.448900 -0.503721
O4    O     O_R   0.656970 0.319650 0.452000 -0.494237
O5    O     O_3   0.499990 0.499990 0.499990 -0.249058
O6    O     O_R   0.035380 0.825870 0.952240 -0.511526
O7    O     O_R   0.818010 0.012400 0.954990 -0.503803
O8    O     O_R   0.644810 0.033340 0.949080 -0.492187
O9    O     O_R   0.674910 0.816000 0.950960 -0.490552
O10   O     O_R   0.827060 0.642880 0.947470 -0.510804
O11   O     O_R   0.013800 0.673690 0.954100 -0.495617
O12   O     O_R   0.320040 0.522690 0.547470 -0.500648
O13   O     O_R   0.031250 0.825430 0.055080 -0.511244
O14   O     O_R   0.814180 0.011990 0.050320 -0.496254
O15   O     O_R   0.640680 0.032900 0.051920 -0.512829
O16   O     O_R   0.671090 0.815590 0.046300 -0.494121
O17   O     O_R   0.822940 0.642440 0.050310 -0.513198
O18   O     O_R   0.009970 0.673280 0.049430 -0.498852
O19   O     O_3   0.833690 0.833830 0.001040 -0.248486
O20   O     O_R   0.303930 0.694040 0.551750 -0.504306
O21   O     O_R   0.523510 0.657900 0.548240 -0.496347
O22   O     O_R   0.694770 0.503160 0.551780 -0.493349
O23   O     O_R   0.657990 0.319990 0.547370 -0.481482
O24   O     O_R   0.501900 0.302960 0.447930 -0.501495
O25   O     O_R   0.319020 0.522350 0.452090 -0.492830
O26   O     O_R   0.302820 0.693680 0.448870 -0.514931
C75   C     C_3   0.479127 0.892988 0.782825 -0.225944
C76   C     C_3   0.406413 0.970640 0.742664 -0.269868
C77   C     C_3   0.305997 0.080819 0.761226 -0.427179
H5    H     H_    0.248333 0.061989 0.781871 0.138236
H6    H     H_    0.336252 0.127704 0.783782 0.223762
H7    H     H_    0.257235 0.136037 0.731212 0.143464
H8    H     H_    0.458868 0.992786 0.720340 0.236063
H9    H     H_    0.373708 0.925885 0.720247 0.191281
H10   H     H_    0.424541 0.878096 0.807353 0.138693
H11   H     H_    0.519434 0.934090 0.802929 0.218847
F1    F     F_    0.532055 0.123671 0.701081 -0.687602
C78   C     C_3   0.194928 0.463112 0.695721 -0.266033
C79   C     C_3   0.319893 0.388430 0.681268 -0.280503
C80   C     C_3   0.331584 0.299831 0.644775 -0.378208
H12   H     H_    0.304601 0.241824 0.660006 0.173178
H13   H     H_    0.278684 0.342266 0.613268 0.145915
H14   H     H_    0.421296 0.248744 0.633259 0.211699
H15   H     H_    0.353822 0.440555 0.665999 0.180898
H16   H     H_    0.372133 0.344768 0.712743 0.200530
H17   H     H_    0.167810 0.410020 0.714675 0.146067
H18   H     H_    0.139451 0.491397 0.663916 0.149953
C81   C     C_3   0.199000 0.464649 0.802589 -0.243869
C82   C     C_3   0.094473 0.464292 0.823491 -0.309863
C83   C     C_3   0.039932 0.417901 0.789349 -0.407166
H19   H     H_    0.006981 0.472770 0.757833 0.187097
H20   H     H_    0.102631 0.329488 0.778494 0.153673
H21   H     H_    0.967394 0.416939 0.806837 0.176185
H22   H     H_    0.122227 0.409222 0.855184 0.159435
H23   H     H_    0.028910 0.551034 0.835026 0.176068
H24   H     H_    0.252747 0.384613 0.782856 0.153737
H25   H     H_    0.255189 0.460240 0.832110 0.135009
C84   C     C_3   0.083920 0.883610 0.800557 -0.247179
C85   C     C_3   0.188249 0.875747 0.825973 -0.295482
C86   C     C_3   0.154264 0.980584 0.856794 -0.456696
H26   H     H_    0.109820 0.059499 0.835548 0.150556
H27   H     H_    0.096933 0.984682 0.885435 0.174697
H28   H     H_    0.231630 0.975536 0.872794 0.146006
H29   H     H_    0.230700 0.799290 0.848615 0.173779
H30   H     H_    0.251934 0.868155 0.799795 0.175484
H31   H     H_    0.046477 0.960786 0.778573 0.144523
H32   H     H_    0.016333 0.899643 0.826462 0.152383
C87   C     C_3   0.080656 0.878983 0.693680 -0.255690
C88   C     C_3   0.174628 0.909904 0.689907 -0.282015
C89   C     C_3   0.136343 0.015798 0.659875 -0.440745
H33   H     H_    0.114619 0.001082 0.623703 0.165143
H34   H     H_    0.060858 0.089857 0.675888 0.218813
H35   H     H_    0.206271 0.035771 0.657658 0.140950
H36   H     H_    0.197352 0.927049 0.725245 0.177593
H37   H     H_    0.251679 0.837729 0.673812 0.229897
H38   H     H_    0.056435 0.867868 0.657483 0.143469
H39   H     H_    0.000812 0.951144 0.707764 0.147837
C90   C     C_3   0.869273 0.532052 0.307632 -0.229593
C91   C     C_3   0.913380 0.602031 0.333692 -0.311558
C92   C     C_3   0.007492 0.528363 0.368470 -0.446932
H40   H     H_    0.974675 0.492756 0.395222 0.163602
H41   H     H_    0.080346 0.457340 0.349784 0.152825
H42   H     H_    0.037645 0.580992 0.386855 0.152535
H43   H     H_    0.946883 0.639088 0.307896 0.167616
H44   H     H_    0.843092 0.673318 0.353434 0.178145
H45   H     H_    0.847127 0.484769 0.333282 0.183537
H46   H     H_    0.939068 0.463811 0.286757 0.144085
C93   C     C_3   0.889275 0.562323 0.203834 -0.267091
C94   C     C_3   0.920821 0.444396 0.184168 -0.268773
C95   C     C_3   0.040380 0.384486 0.163298 -0.456429
H47   H     H_    0.047113 0.437215 0.135152 0.167324
H48   H     H_    0.104464 0.368519 0.191153 0.139761
H49   H     H_    0.059059 0.301343 0.147907 0.150062
H50   H     H_    0.917005 0.390369 0.212498 0.212139
H51   H     H_    0.858980 0.453435 0.156283 0.197311
H52   H     H_    0.888506 0.617228 0.174852 0.145702
H53   H     H_    0.956771 0.556341 0.227900 0.141891
F2    F     F_    0.471545 0.795272 0.196180 -0.682757
C96   C     C_3   0.441371 0.804756 0.295144 -0.245893
C97   C     C_3   0.429915 0.912872 0.318141 -0.282764
C98   C     C_3   0.314798 0.983221 0.342120 -0.455908
H54   H     H_    0.244972 0.012824 0.315802 0.142919
H55   H     H_    0.302934 0.932068 0.369494 0.156291
H56   H     H_    0.310777 0.059108 0.359222 0.170163
H57   H     H_    0.498165 0.890112 0.344810 0.201122
H58   H     H_    0.438805 0.966077 0.290844 0.208634
H59   H     H_    0.371779 0.829950 0.268925 0.191754
H60   H     H_    0.428804 0.752283 0.321691 0.146360
F3    F     F_    0.584799 0.052839 0.307533 -0.667285
C99   C     C_3   0.696636 0.838560 0.707999 -0.241917
C100  C     C_3   0.811920 0.780857 0.682847 -0.305543
C101  C     C_3   0.830199 0.867913 0.656508 -0.437960
H61   H     H_    0.760181 0.915164 0.630834 0.170582
H62   H     H_    0.833560 0.929228 0.681698 0.156011
H63   H     H_    0.911722 0.823237 0.636953 0.138739
H64   H     H_    0.881924 0.736657 0.708878 0.166225
H65   H     H_    0.815812 0.716694 0.657195 0.174842
H66   H     H_    0.628203 0.888136 0.682052 0.180961
H67   H     H_    0.696172 0.897158 0.735656 0.194273
C102  C     C_3   0.577678 0.027876 0.208488 -0.207862
C103  C     C_3   0.457442 0.114561 0.191452 -0.303528
C104  C     C_3   0.393741 0.055962 0.172938 -0.419723
H68   H     H_    0.443599 0.993575 0.144838 0.201476
H69   H     H_    0.377727 0.011800 0.202083 0.202882
H70   H     H_    0.310318 0.120626 0.158126 0.130034
H71   H     H_    0.407946 0.172111 0.220997 0.179800
H72   H     H_    0.462696 0.167280 0.162913 0.170849
H73   H     H_    0.629895 0.974014 0.178627 0.134811
H74   H     H_    0.572418 0.968659 0.233800 0.200058
F4    F     F_    0.772728 0.254293 0.199935 -0.624570
F5    F     F_    0.770154 0.272699 0.295525 -0.621096
C105  C     C_3   0.127260 0.869319 0.305163 -0.264230
C106  C     C_3   0.009854 0.924636 0.328767 -0.296915
C107  C     C_3   0.987626 0.029891 0.357116 -0.425258
H75   H     H_    0.054521 0.006797 0.384451 0.148521
H76   H     H_    0.986772 0.095331 0.333570 0.196920
H77   H     H_    0.903762 0.066539 0.374797 0.163241
H78   H     H_    0.942350 0.950014 0.301503 0.161377
H79   H     H_    0.004151 0.863544 0.352816 0.171465
H80   H     H_    0.194973 0.844240 0.332261 0.148602
H81   H     H_    0.130314 0.935384 0.283865 0.135167
C108  C     C_3   0.147012 0.860559 0.197997 -0.245763
C109  C     C_3   0.024043 0.954954 0.188768 -0.299226
C110  C     C_3   0.020925 0.044836 0.155811 -0.404582
H82   H     H_    0.063074 0.088496 0.172644 0.158456
H83   H     H_    0.064560 0.004979 0.122194 0.157285
H84   H     H_    0.931344 0.108929 0.147603 0.213461
H85   H     H_    0.975056 0.917905 0.172318 0.170829
H86   H     H_    0.981986 0.996514 0.222377 0.175697
H87   H     H_    0.197491 0.895009 0.214933 0.148521
H88   H     H_    0.190781 0.827747 0.163737 0.176291
F6    F     F_    0.446053 0.707726 0.723206 -0.682730
C111  C     C_3   0.614042 0.502342 0.791498 -0.207583
C112  C     C_3   0.505186 0.554163 0.821113 -0.311036
C113  C     C_3   0.484044 0.461661 0.840389 -0.449651
H89   H     H_    0.471886 0.414020 0.811034 0.166061
H90   H     H_    0.557037 0.401419 0.862518 0.162446
H91   H     H_    0.406031 0.501444 0.862362 0.145831
H92   H     H_    0.512687 0.603329 0.851045 0.160890
H93   H     H_    0.430578 0.613049 0.799366 0.219747
H94   H     H_    0.607118 0.451381 0.762147 0.192901
H95   H     H_    0.688662 0.445180 0.813622 0.150856
F7    F     F_    0.815523 0.462600 0.722234 -0.603884
F8    F     F_    0.820502 0.229275 0.704954 -0.596955
F9    F     F_    0.541020 0.106990 0.796630 -0.653748

loop_
_geom_bond_atom_site_label_1
_geom_bond_atom_site_label_2
_ccdc_geom_bond_type
C58   C62   A    
C15   C18   A    
C12   O22   A    
C63   C65   T    
C106  H79   S    
Cr2   O21   S    
C21   C66   S    
C33   C45   S    
C14   C18   A    
C35   C36   A    
C14   H4    S    
C96   C97   S    
C2    C12   S    
C96   H60   S    
C83   H21   S    
C110  H83   S    
C98   H54   S    
Cr5   O8    S    
C79   C80   S    
C103  C104  S    
Cr4   O6    S    
Cr3   O5    S    
C26   C27   A    
C27   C87   S    
C70   O15   A    
C107  H77   S    
C6    C8    S    
C33   C42   T    
C94   H50   S    
Cr5   O15   S    
Cr3   O22   S    
C19   C21   T    
C85   C86   S    
Cr5   O9    S    
C37   C40   A    
C86   H28   S    
C5    C6    S    
C104  H69   S    
C87   H38   S    
C56   O4    A    
C94   H51   S    
C68   C74   S    
C15   C16   A    
C99   H66   S    
C112  H93   S    
C81   H25   S    
C17   C20   S    
C97   C98   S    
C75   H10   S    
C18   C19   S    
C88   H36   S    
C95   H47   S    
C56   O24   A    
C36   C40   A    
C77   H5    S    
C60   H2    S    
C44   C53   T    
Cr1   O1    S    
C48   C51   A    
C47   C51   A    
C90   H46   S    
C113  H89   S    
Cr3   O4    S    
C16   C17   A    
C90   H45   S    
Cr4   O14   S    
C85   H30   S    
C67   C73   S    
C67   C99   S    
C89   H34   S    
C87   H39   S    
C58   C108  S    
C108  C109  S    
Cr2   O5    S    
C3    C5    S    
C77   H7    S    
C93   H52   S    
C109  H85   S    
C71   O17   A    
Cr4   O13   S    
C82   H22   S    
C13   C14   A    
C79   H16   S    
C102  C103  S    
C41   C43   T    
Cr5   O19   S    
C5    F7    S    
C101  H63   S    
C91   H44   S    
C93   H53   S    
C110  H82   S    
C52   C54   T    
Cr1   O12   S    
C73   C75   S    
C39   C42   S    
C57   C58   A    
C72   O13   A    
C28   C31   S    
C25   C29   A    
C85   H29   S    
C109  H86   S    
C48   F4    S    
C11   C20   T    
C36   C93   S    
C35   C90   S    
Cr1   O25   S    
C22   C31   T    
Cr6   O19   S    
C51   C52   S    
C50   C53   S    
C7    C111  S    
Cr5   O16   S    
C7    C8    S    
C38   C39   A    
C24   C25   A    
C89   H35   S    
C86   H27   S    
C112  C113  S    
C1    O20   A    
C5    C7    S    
Cr1   O5    S    
C104  H68   S    
C81   C82   S    
C98   H56   S    
C66   O8    A    
C15   F9    S    
C4    C7    S    
C106  C107  S    
C94   C95   S    
C102  H74   S    
C68   O10   A    
C108  H88   S    
Cr6   O18   S    
C75   H11   S    
C84   H32   S    
C88   H37   S    
C61   C64   S    
C35   C39   A    
C16   F1    S    
C105  H80   S    
C59   C60   A    
C37   C38   A    
C76   H9    S    
C44   C56   S    
C107  H76   S    
C109  C110  S    
C54   C70   S    
C57   C105  S    
Cr3   O23   S    
C4    C9    S    
C23   O23   A    
C55   C64   T    
C102  H73   S    
C62   C63   S    
C24   C78   S    
C4    C73   S    
C111  H94   S    
C113  H90   S    
C105  C106  S    
Cr6   O11   S    
C95   H49   S    
C89   H33   S    
C32   C69   S    
C66   O7    A    
C80   H14   S    
C8    F6    S    
C99   C100  S    
C101  H62   S    
C40   C41   S    
C82   H23   S    
Cr2   O20   S    
C3    H3    S    
C82   C83   S    
C34   O26   A    
C97   H58   S    
C9    C74   T    
C76   H8    S    
Cr6   O10   S    
C69   O6    A    
C2    C10   T    
Cr2   O2    S    
C78   H18   S    
C27   C28   A    
C93   C94   S    
C46   F3    S    
C80   H13   S    
C90   C91   S    
C106  H78   S    
C49   F5    S    
C46   C47   A    
C92   H40   S    
C59   C62   A    
C43   C71   S    
C99   H67   S    
C75   C76   S    
C45   O3    A    
Cr4   O19   S    
C84   C85   S    
C111  H95   S    
C92   H42   S    
C3    C67   S    
C1    C22   S    
C24   C28   A    
C101  H61   S    
C69   O11   A    
C96   H59   S    
C6    C10   S    
C83   H20   S    
C57   C61   A    
C83   H19   S    
C100  H65   S    
C105  H81   S    
Cr4   O7    S    
C81   H24   S    
C65   C72   S    
C34   C55   S    
C71   O16   A    
C46   C50   A    
C26   C84   S    
C68   O9    A    
C108  H87   S    
C13   C17   A    
Cr6   O17   S    
C86   H26   S    
C84   H31   S    
C92   H41   S    
C45   O2    A    
C78   C79   S    
C6    C67   S    
C30   C32   T    
C104  H70   S    
C107  H75   S    
C12   O21   A    
C72   O18   A    
C103  H71   S    
C1    O12   A    
C48   C49   A    
C37   F2    S    
C112  H92   S    
C11   C23   S    
C8    C73   S    
C47   C102  S    
C91   H43   S    
C113  H91   S    
C76   C77   S    
C100  H64   S    
C95   H48   S    
C91   C92   S    
C98   H55   S    
C38   C96   S    
C29   C30   S    
C100  C101  S    
C70   O14   A    
Cr1   O24   S    
C13   F8    S    
C87   C88   S    
Cr3   O3    S    
C26   C29   A    
Cr2   O26   S    
C49   C50   A    
C23   O1    A    
C79   H15   S    
C59   H1    S    
C34   O25   A    
C103  H72   S    
C97   H57   S    
C60   C61   A    
C88   C89   S    
C111  C112  S    
C25   C81   S    
C78   H17   S    
C110  H84   S    
C3    C4    S    
C80   H12   S    
C77   H6    S    
