data_mof_unit_8273.cif
_audit_creation_date              2012-10-26T19:04:38-0400
_audit_creation_method            fapswitch 2.2
_symmetry_space_group_name_H-M    P1
_symmetry_Int_Tables_number       1
_space_group_crystal_system       triclinic
_cell_length_a                    9.585693
_cell_length_b                    10.858793
_cell_length_c                    13.341499
_cell_angle_alpha                 92.445791
_cell_angle_beta                  72.528728
_cell_angle_gamma                 90.09452
_cell_volume                      1323.34232053

loop_
_atom_site_label
_atom_site_type_symbol
_atom_type_description
_atom_site_fract_x
_atom_site_fract_y
_atom_site_fract_z
_atom_type_partial_charge
C1    C     C_R   0.502538 0.737054 0.491965 0.583090
C2    C     C_R   0.370744 0.497501 0.815498 0.023842
C3    C     C_R   0.261750 0.881143 0.446002 -0.093260
C4    C     C_R   0.421026 0.501934 0.700352 0.583440
C5    C     C_R   0.127040 0.940638 0.465039 -0.126162
C6    C     C_R   0.103220 0.055305 0.517655 -0.120092
C7    C     C_R   0.218462 0.115653 0.541513 -0.089534
C8    C     C_R   0.360798 0.062011 0.511829 0.034939
C9    C     C_R   0.375353 0.936278 0.479659 0.030286
C10   C     C_R   0.502168 0.871135 0.483514 0.010350
C11   C     C_R   0.623595 0.936439 0.493548 -0.112492
C12   C     C_R   0.430140 0.506859 0.980778 0.035257
C13   C     C_R   0.619164 0.063641 0.503145 -0.143337
C14   C     C_R   0.489288 0.128113 0.512042 -0.001800
C15   C     C_R   0.913176 0.336209 0.360444 -0.096698
C16   C     C_R   0.496126 0.262616 0.506625 0.536289
C17   C     C_R   0.012770 0.254086 0.293676 -0.194546
C18   C     C_R   0.156018 0.252507 0.294645 -0.143086
C19   C     C_R   0.200757 0.333601 0.361868 -0.049665
C20   C     C_R   0.102864 0.418540 0.431920 0.137527
C21   C     C_R   0.953375 0.419201 0.431539 0.148990
C22   C     C_R   0.899061 0.576388 0.565320 -0.006356
C23   C     C_R   0.449103 0.553973 0.879797 0.003250
C24   C     C_R   0.047043 0.576864 0.565088 -0.014034
C25   C     C_R   0.578418 0.502554 0.299937 0.568321
C26   C     C_R   0.732183 0.669782 0.053067 -0.146746
C27   C     C_R   0.621017 0.528229 0.188229 0.031603
C28   C     C_R   0.251690 0.421630 0.860254 -0.125925
C29   C     C_R   0.215332 0.395522 0.965688 -0.144684
C30   C     C_R   0.304605 0.435543 0.025209 -0.069608
C31   C     C_2   0.517620 0.746268 0.771899 0.596638
C32   C     C_R   0.532221 0.538461 0.035611 0.043076
C33   C     C_R   0.635125 0.632275 0.997315 -0.012666
C34   C     C_R   0.634833 0.693273 0.907414 -0.159658
C35   C     C_R   0.540630 0.658083 0.849041 -0.008673
C36   C     C_R   0.535884 0.480472 0.127574 0.347178
C37   C     C_R   0.722876 0.619984 0.149265 -0.193724
Cu1   Cu    Cu3+1 0.359340 0.500010 0.500010 0.941791
Cu2   Cu    Cu3+1 0.640660 0.499990 0.499990 0.943517
F1    F     F_    0.462928 0.374717 0.158141 -0.689905
H1    H     H_    0.789165 0.657948 0.195826 0.133875
H2    H     H_    0.233670 0.188428 0.242395 0.166109
H3    H     H_    0.313369 0.325149 0.355113 0.225872
H4    H     H_    0.703379 0.773277 0.886952 0.112695
H5    H     H_    0.080178 0.639944 0.618450 0.135053
H6    H     H_    0.809949 0.742487 0.025038 0.133151
H7    H     H_    0.188253 0.380297 0.812974 0.130004
H8    H     H_    0.268704 0.414453 0.107098 0.196217
H9    H     H_    0.120560 0.340094 0.000585 0.127068
H10   H     H_    0.723010 0.889257 0.493744 0.149182
H11   H     H_    0.728490 0.805150 0.722581 0.274228
H12   H     H_    0.276184 0.793746 0.402175 0.143596
H13   H     H_    0.039988 0.896264 0.441352 0.109241
H14   H     H_    0.996312 0.098966 0.537825 0.119048
H15   H     H_    0.192385 0.202336 0.585970 0.147497
H16   H     H_    0.717859 0.111417 0.504715 0.135303
H17   H     H_    0.821465 0.638104 0.619066 0.125306
H18   H     H_    0.806428 0.330359 0.352733 0.192431
H19   H     H_    0.978334 0.191362 0.240596 0.126853
N1    N     N_R   0.852480 0.498790 0.499000 -0.245225
N2    N     N_R   0.148360 0.498710 0.498970 -0.257205
O1    O     O_R   0.381190 0.680360 0.500010 -0.506433
O2    O     O_R   0.629174 0.821230 0.713800 -0.679327
O3    O     O_R   0.618760 0.680340 0.500000 -0.487856
O4    O     O_R   0.323240 0.499990 0.650990 -0.492934
O5    O     O_R   0.560820 0.499960 0.650980 -0.494198
O6    O     O_R   0.381240 0.319660 0.500000 -0.544462
O7    O     O_R   0.618810 0.319640 0.499990 -0.523170
O8    O     O_R   0.439180 0.500040 0.349020 -0.492447
O9    O     O_R   0.676760 0.500010 0.349010 -0.537474
O10   O     O_2   0.395573 0.758918 0.762640 -0.478726

loop_
_geom_bond_atom_site_label_1
_geom_bond_atom_site_label_2
_ccdc_geom_bond_type
C2    C4    S    
C3    H12   S    
C26   C37   A    
C6    C7    A    
C3    C9    A    
C27   C36   A    
C25   C27   S    
Cu2   O7    S    
C20   N2    A    
C26   C33   A    
C23   C35   A    
C19   C20   A    
Cu1   O4    S    
C7    H15   S    
Cu1   N2    S    
C32   C33   A    
C13   H16   S    
C22   H17   S    
C31   O10   D    
C33   C34   A    
Cu1   O8    S    
C34   H4    S    
C7    C8    A    
C28   H7    S    
C11   H10   S    
C29   H9    S    
C13   C14   A    
C12   C32   A    
C4    O5    A    
Cu2   O3    S    
C11   C13   A    
C12   C23   A    
C21   N1    A    
C29   C30   A    
C6    H14   S    
C24   N2    A    
C16   O7    A    
C24   H5    S    
C32   C36   A    
C22   C24   A    
C5    H13   S    
C28   C29   A    
Cu2   O5    S    
Cu2   O9    S    
C17   H19   S    
C17   C18   A    
C31   C35   S    
C18   H2    S    
C37   H1    S    
C5    C6    A    
C15   H18   S    
C14   C16   S    
C25   O8    A    
C10   C11   A    
Cu2   N1    S    
C16   O6    A    
C1    O3    A    
C31   O2    S    
C15   C21   A    
H11   O2    S    
Cu1   O6    S    
C1    O1    A    
C34   C35   A    
C9    C10   A    
C30   H8    S    
C2    C23   A    
C15   C17   A    
C26   H6    S    
C4    O4    A    
C18   C19   A    
C36   F1    S    
C2    C28   A    
C25   O9    A    
C8    C14   A    
C12   C30   A    
C20   C21   A    
Cu1   O1    S    
C22   N1    A    
C1    C10   S    
C27   C37   A    
C19   H3    S    
C8    C9    A    
C3    C5    A    
Cu1   Cu2   S    
