data_mof_unit_60239.cif
_audit_creation_date              2012-12-10T16:52:44-0500
_audit_creation_method            fapswitch 2.2
_symmetry_space_group_name_H-M    P1
_symmetry_Int_Tables_number       1
_space_group_crystal_system       triclinic
_cell_length_a                    26.332198
_cell_length_b                    26.245353
_cell_length_c                    22.354074
_cell_angle_alpha                 90.022504
_cell_angle_beta                  53.606121
_cell_angle_gamma                 90.036798
_cell_volume                      12435.6619664

loop_
_atom_site_label
_atom_site_type_symbol
_atom_type_description
_atom_site_fract_x
_atom_site_fract_y
_atom_site_fract_z
_atom_type_partial_charge
C1    C     C_R   0.650273 0.250077 0.699391 0.823509
C2    C     C_1   0.889583 0.749824 0.221247 -0.111735
C3    C     C_2   0.251417 0.944177 0.507058 -0.365609
C4    C     C_3   0.510131 0.798296 0.974715 -0.180370
C5    C     C_3   0.500884 0.203093 0.974816 -0.181866
C6    C     C_3   0.004018 0.297594 0.974782 -0.181502
C7    C     C_3   0.999860 0.703356 0.974827 -0.182235
C8    C     C_1   0.855364 0.551704 0.472149 0.238473
C9    C     C_1   0.865623 0.451794 0.409054 0.265815
C10   C     C_1   0.355364 0.051700 0.472144 0.238633
C11   C     C_1   0.365617 0.951797 0.409027 0.266287
C12   C     C_1   0.421099 0.250686 0.583925 0.201751
C13   C     C_1   0.389571 0.750182 0.221240 -0.108576
C14   C     C_1   0.464109 0.692809 0.498723 0.202300
C15   C     C_1   0.921103 0.750670 0.583919 0.201559
C16   C     C_1   0.964073 0.192796 0.498785 0.202846
C17   C     C_2   0.543752 0.314098 0.491409 0.413016
C18   C     C_2   0.492111 0.754112 0.594148 0.411648
C19   C     C_2   0.043743 0.814106 0.491431 0.413312
C20   C     C_2   0.992116 0.254146 0.594125 0.411129
C21   C     C_1   0.671000 0.948094 0.474828 0.234033
C22   C     C_1   0.722705 0.048272 0.411994 0.265609
C23   C     C_1   0.175137 0.448773 0.468741 0.237443
C24   C     C_1   0.389584 0.249826 0.221247 -0.111601
C25   C     C_1   0.231394 0.547992 0.404621 0.265923
C26   C     C_1   0.879870 0.284079 0.052368 0.168167
C27   C     C_1   0.877246 0.724304 0.052413 0.168061
C28   C     C_1   0.384971 0.795741 0.052279 0.167761
C29   C     C_1   0.377831 0.222198 0.052401 0.168457
C30   C     C_1   0.991868 0.151313 0.051568 0.171791
C31   C     C_1   0.000615 0.846782 0.051462 0.171933
C32   C     C_1   0.479196 0.649862 0.051719 0.172005
C33   C     C_1   0.498489 0.347337 0.051487 0.172054
C34   C     C_2   0.516049 0.209608 0.379236 0.458984
C35   C     C_1   0.610444 0.749801 0.778783 -0.129632
C36   C     C_2   0.482067 0.834554 0.446443 0.457294
C37   C     C_2   0.016065 0.709664 0.379200 0.458592
C38   C     C_2   0.982164 0.334497 0.446255 0.457402
C39   C     C_1   0.610467 0.250213 0.778774 -0.128559
C40   C     C_1   0.110447 0.249799 0.778782 -0.129681
C41   C     C_1   0.110468 0.750212 0.778774 -0.128688
C42   C     C_3   0.024810 0.281158 0.024080 -0.176169
C43   C     C_3   0.021946 0.715754 0.024100 -0.177727
C44   C     C_3   0.528453 0.776230 0.024055 -0.175966
C45   C     C_R   0.650264 0.749925 0.699403 0.817770
C46   C     C_3   0.522687 0.216509 0.024095 -0.177403
C47   C     C_3   0.963429 0.250053 0.073297 0.102441
C48   C     C_3   0.963471 0.749967 0.073298 0.102815
C49   C     C_3   0.463426 0.750051 0.073298 0.102373
C50   C     C_3   0.463470 0.249970 0.073299 0.102705
C51   C     C_3   0.555678 0.727789 0.974437 -0.179685
C52   C     C_3   0.559202 0.263573 0.974371 -0.177802
C53   C     C_3   0.058151 0.233425 0.974393 -0.178779
C54   C     C_3   0.059486 0.762551 0.974365 -0.177597
C55   C     C_3   0.536452 0.749764 0.926619 0.161874
C56   C     C_R   0.150273 0.750077 0.699391 0.823552
C57   C     C_3   0.536516 0.250273 0.926616 0.161602
C58   C     C_3   0.036468 0.249753 0.926618 0.161840
C59   C     C_3   0.036518 0.750272 0.926615 0.161770
C60   C     C_3   0.996185 0.203070 0.024172 0.026026
C61   C     C_3   0.000361 0.796043 0.024125 0.025570
C62   C     C_3   0.490163 0.702393 0.024241 0.025909
C63   C     C_3   0.499351 0.296305 0.024137 0.025549
C64   C     C_3   0.471494 0.723434 0.975262 -0.231272
C65   C     C_3   0.477402 0.283926 0.975219 -0.230596
C66   C     C_3   0.975176 0.218469 0.975235 -0.231114
C67   C     C_R   0.150264 0.249926 0.699403 0.817696
C68   C     C_3   0.978150 0.784681 0.975213 -0.230667
C69   C     C_1   0.922959 0.250181 0.154478 -0.048973
C70   C     C_1   0.922986 0.749833 0.154483 -0.050046
C71   C     C_1   0.422961 0.750175 0.154478 -0.048938
C72   C     C_1   0.422987 0.249837 0.154483 -0.049860
C73   C     C_R   0.849761 0.250078 0.300605 0.817347
C74   C     C_R   0.849760 0.749925 0.300617 0.817999
C75   C     C_R   0.349762 0.750077 0.300605 0.817259
C76   C     C_R   0.349761 0.249926 0.300617 0.818087
C77   C     C_1   0.577002 0.749755 0.845554 -0.049092
C78   C     C_3   0.943047 0.266061 0.024552 0.028234
C79   C     C_1   0.577044 0.250268 0.845548 -0.047440
C80   C     C_1   0.077010 0.249751 0.845554 -0.049149
C81   C     C_1   0.077045 0.750267 0.845548 -0.047576
C82   C     C_2   0.496882 0.224427 0.453867 0.013857
C83   C     C_2   0.491228 0.782900 0.465077 0.011034
C84   C     C_2   0.996893 0.724451 0.453843 0.014116
C85   C     C_2   0.991267 0.282862 0.465001 0.011069
C86   C     C_2   0.438302 0.241472 0.509900 -0.109983
C87   C     C_2   0.449469 0.743804 0.487810 -0.111763
C88   C     C_2   0.938307 0.741476 0.509890 -0.109963
C89   C     C_3   0.941831 0.737935 0.024576 0.028688
C90   C     C_2   0.949474 0.243785 0.487797 -0.111736
C91   C     C_2   0.546994 0.220943 0.463790 -0.264283
C92   C     C_2   0.549192 0.776313 0.459420 -0.256681
C93   C     C_2   0.047006 0.720960 0.463763 -0.264655
C94   C     C_2   0.049221 0.276270 0.459366 -0.256831
C95   C     C_2   0.564852 0.260377 0.485870 -0.132731
C96   C     C_2   0.549744 0.759692 0.515958 -0.132797
C97   C     C_2   0.064855 0.760386 0.485865 -0.132770
C98   C     C_2   0.049755 0.259684 0.515931 -0.133069
C99   C     C_2   0.717403 0.971644 0.481584 -0.033922
C100  C     C_3   0.445454 0.771605 0.024511 0.028121
C101  C     C_2   0.728000 0.026978 0.468075 -0.039323
C102  C     C_2   0.220164 0.471816 0.478260 -0.035075
C103  C     C_2   0.231806 0.526968 0.464455 -0.039780
C104  C     C_2   0.750569 0.944012 0.498521 -0.346215
C105  C     C_2   0.741436 0.055868 0.507251 -0.365489
C106  C     C_2   0.251189 0.443999 0.498013 -0.348672
C107  C     C_2   0.242014 0.555885 0.506542 -0.365384
C108  C     C_R   0.889333 0.249653 0.498673 0.810596
C109  C     C_R   0.888292 0.748985 0.500738 0.811404
C110  C     C_R   0.389330 0.749658 0.498679 0.810528
C111  C     C_3   0.442106 0.236935 0.024571 0.028414
C112  C     C_R   0.388290 0.248983 0.500741 0.811413
C113  C     C_R   0.612397 0.251376 0.498337 0.777268
C114  C     C_R   0.610469 0.751160 0.502159 0.779046
C115  C     C_R   0.112398 0.751378 0.498335 0.777386
C116  C     C_R   0.110472 0.251157 0.502153 0.778933
C117  C     C_R   0.749082 0.111294 0.500601 0.862664
C118  C     C_R   0.748983 0.888541 0.500756 0.863126
C119  C     C_R   0.249380 0.611302 0.500331 0.862611
C120  C     C_R   0.249011 0.388545 0.500727 0.863344
C121  C     C_R   0.750337 0.388804 0.500499 0.860260
C122  C     C_1   0.889568 0.250186 0.221240 -0.108737
C123  C     C_R   0.750299 0.611356 0.500768 0.860328
C124  C     C_R   0.250337 0.888803 0.500498 0.860459
C125  C     C_R   0.250299 0.111356 0.500767 0.860432
C126  C     C_2   0.801538 0.528285 0.480197 -0.040468
C127  C     C_2   0.804253 0.473025 0.466661 -0.047259
C128  C     C_2   0.301538 0.028284 0.480191 -0.040537
C129  C     C_2   0.304252 0.973025 0.466650 -0.047289
C130  C     C_2   0.750950 0.555925 0.498369 -0.349605
C131  C     C_2   0.751417 0.444177 0.507059 -0.365773
C132  C     C_2   0.250950 0.055925 0.498367 -0.349403
H1    H     H_    0.569272 0.183902 0.453554 0.182311
H2    H     H_    0.706849 0.461470 0.550836 0.160358
H3    H     H_    0.209936 0.037848 0.507171 0.152563
H4    H     H_    0.206852 0.961470 0.550841 0.160331
H5    H     H_    0.518455 0.837926 0.953423 0.147740
H6    H     H_    0.501594 0.164640 0.953612 0.147058
H7    H     H_    0.007330 0.336610 0.953547 0.147268
H8    H     H_    0.999731 0.665128 0.953633 0.146746
H9    H     H_    0.448393 0.701788 0.954758 0.153155
H10   H     H_    0.459084 0.311565 0.954683 0.153806
H11   H     H_    0.955079 0.192768 0.954709 0.153230
H12   H     H_    0.593277 0.784607 0.405701 0.182805
H13   H     H_    0.960444 0.812940 0.954672 0.153687
H14   H     H_    0.601498 0.709371 0.952917 0.148897
H15   H     H_    0.607925 0.274914 0.952801 0.150744
H16   H     H_    0.106029 0.219612 0.952839 0.149378
H17   H     H_    0.108448 0.773057 0.952790 0.150733
H18   H     H_    0.044746 0.306814 0.044824 0.160520
H19   H     H_    0.039494 0.687545 0.044861 0.159353
H20   H     H_    0.551386 0.797839 0.044778 0.160696
H21   H     H_    0.540845 0.188919 0.044850 0.159568
H22   H     H_    0.548724 0.341576 0.523912 0.091452
H23   H     H_    0.069288 0.683920 0.453511 0.181904
H24   H     H_    0.493790 0.730789 0.633012 0.092093
H25   H     H_    0.048708 0.841576 0.523950 0.091459
H26   H     H_    0.993781 0.230847 0.633020 0.092265
H27   H     H_    0.553518 0.230471 0.330831 0.071110
H28   H     H_    0.478360 0.866901 0.479061 0.074356
H29   H     H_    0.053518 0.730552 0.330814 0.070905
H30   H     H_    0.978471 0.366875 0.478818 0.073830
H31   H     H_    0.093315 0.284535 0.405642 0.182975
H32   H     H_    0.783242 0.962115 0.506432 0.154890
H33   H     H_    0.743078 0.038569 0.550174 0.160783
H34   H     H_    0.282725 0.461987 0.507875 0.156252
H35   H     H_    0.240968 0.538601 0.551378 0.160503
H36   H     H_    0.709937 0.537848 0.507173 0.152494
N1    N     N_1   0.898219 0.570262 0.465786 -0.141010
N2    N     N_1   0.718439 0.065037 0.367258 -0.172901
N3    N     N_1   0.139247 0.430509 0.461196 -0.186936
N4    N     N_1   0.231041 0.564546 0.356878 -0.172141
N5    N     N_1   0.830021 0.298287 0.074346 -0.186735
N6    N     N_1   0.826286 0.713556 0.074407 -0.187243
N7    N     N_1   0.337244 0.814775 0.074219 -0.186592
N8    N     N_1   0.327116 0.210577 0.074390 -0.186619
N9    N     N_1   0.988439 0.110489 0.073215 -0.179412
N10   N     N_1   0.000793 0.886803 0.073060 -0.179455
N11   N     N_1   0.470522 0.608431 0.073433 -0.178430
N12   N     N_1   0.914621 0.435096 0.363075 -0.129748
N13   N     N_1   0.497787 0.387588 0.073096 -0.179642
N14   N     N_1   0.398219 0.070256 0.465783 -0.140643
N15   N     N_1   0.414613 0.935101 0.363035 -0.129364
N16   N     N_1   0.407298 0.257995 0.642928 -0.194997
N17   N     N_1   0.475714 0.652160 0.507374 -0.192013
N18   N     N_1   0.907301 0.757962 0.642926 -0.195073
N19   N     N_1   0.975645 0.152152 0.507495 -0.191747
N20   N     N_1   0.634023 0.929418 0.469486 -0.187913
O1    O     O_3   0.750010 0.250010 0.500000 -0.501555
O2    O     O_R   0.613890 0.719960 0.543100 -0.657026
O3    O     O_R   0.113890 0.780040 0.543100 -0.656069
O4    O     O_R   0.113890 0.219960 0.543100 -0.656921
O5    O     O_R   0.697860 0.219970 0.664410 -0.630936
O6    O     O_R   0.697860 0.780030 0.664410 -0.633512
O7    O     O_R   0.197860 0.719970 0.664410 -0.630930
O8    O     O_R   0.197860 0.280030 0.664410 -0.633571
O9    O     O_R   0.802170 0.219970 0.335590 -0.632078
O10   O     O_R   0.802170 0.780030 0.335590 -0.632740
O11   O     O_R   0.302170 0.719970 0.335590 -0.632009
O12   O     O_3   0.750010 0.749990 0.500000 -0.502615
O13   O     O_R   0.302170 0.280030 0.335590 -0.632628
O14   O     O_R   0.637780 0.280050 0.664410 -0.634307
O15   O     O_R   0.637780 0.719950 0.664410 -0.639806
O16   O     O_R   0.137780 0.780050 0.664410 -0.634310
O17   O     O_R   0.137780 0.219950 0.664410 -0.639817
O18   O     O_R   0.862250 0.280060 0.335590 -0.623153
O19   O     O_R   0.862250 0.719940 0.335590 -0.624225
O20   O     O_R   0.362250 0.780060 0.335590 -0.623154
O21   O     O_R   0.362250 0.219940 0.335590 -0.624186
O22   O     O_R   0.843040 0.219980 0.543100 -0.630471
O23   O     O_3   0.250010 0.750010 0.500000 -0.501525
O24   O     O_R   0.843040 0.780020 0.543100 -0.631038
O25   O     O_R   0.343040 0.719980 0.543100 -0.630500
O26   O     O_R   0.343040 0.280020 0.543100 -0.631024
O27   O     O_R   0.656980 0.219970 0.456900 -0.628300
O28   O     O_R   0.656980 0.780030 0.456900 -0.626057
O29   O     O_R   0.156980 0.719970 0.456900 -0.628503
O30   O     O_R   0.156980 0.280030 0.456900 -0.626207
O31   O     O_R   0.758500 0.135440 0.543100 -0.638736
O32   O     O_R   0.758500 0.864560 0.543100 -0.635627
O33   O     O_R   0.258500 0.635440 0.543100 -0.638695
O34   O     O_3   0.250010 0.249990 0.500000 -0.502573
O35   O     O_R   0.258500 0.364560 0.543100 -0.635800
O36   O     O_R   0.698440 0.364590 0.543100 -0.644161
O37   O     O_R   0.698440 0.635410 0.543100 -0.638887
O38   O     O_R   0.198440 0.864590 0.543100 -0.644152
O39   O     O_R   0.198440 0.135410 0.543100 -0.638863
O40   O     O_R   0.741510 0.135430 0.456900 -0.632667
O41   O     O_R   0.741510 0.864570 0.456900 -0.628608
O42   O     O_R   0.241510 0.635430 0.456900 -0.632965
O43   O     O_R   0.241510 0.364570 0.456900 -0.628981
O44   O     O_R   0.801610 0.364600 0.456900 -0.625614
O45   O     O_R   0.886150 0.280070 0.456900 -0.600651
O46   O     O_R   0.801610 0.635400 0.456900 -0.621131
O47   O     O_R   0.301610 0.864600 0.456900 -0.625522
O48   O     O_R   0.301610 0.135400 0.456900 -0.621079
O49   O     O_2   0.523671 0.328874 0.457285 -0.574831
O50   O     O_2   0.443473 0.777140 0.616986 -0.576619
O51   O     O_2   0.023661 0.828893 0.457313 -0.574658
O52   O     O_2   0.943491 0.277183 0.616931 -0.576831
O53   O     O_2   0.493740 0.171899 0.370827 -0.525186
O54   O     O_2   0.483439 0.841750 0.391557 -0.526297
O55   O     O_2   0.993777 0.671957 0.370755 -0.525379
O56   O     O_R   0.886150 0.719930 0.456900 -0.600170
O57   O     O_2   0.983565 0.341639 0.391340 -0.526109
O58   O     O_R   0.386150 0.780070 0.456900 -0.600697
O59   O     O_R   0.386150 0.219930 0.456900 -0.600210
O60   O     O_R   0.613890 0.280040 0.543100 -0.656097
Zn1   Zn    Zn3+2 0.823730 0.292940 0.438410 1.024100
Zn2   Zn    Zn3+2 0.737880 0.792910 0.438410 0.994483
Zn3   Zn    Zn3+2 0.237880 0.707090 0.438410 0.990768
Zn4   Zn    Zn3+2 0.237880 0.292910 0.438410 0.994316
Zn5   Zn    Zn3+2 0.676310 0.292930 0.561590 0.975592
Zn6   Zn    Zn3+2 0.676310 0.707070 0.561590 0.973628
Zn7   Zn    Zn3+2 0.176310 0.792930 0.561590 0.975742
Zn8   Zn    Zn3+2 0.176310 0.207070 0.561590 0.973640
Zn9   Zn    Zn3+2 0.823730 0.707060 0.438410 1.026214
Zn10  Zn    Zn3+2 0.323730 0.792940 0.438410 1.024095
Zn11  Zn    Zn3+2 0.323730 0.207060 0.438410 1.026398
Zn12  Zn    Zn3+2 0.762140 0.207100 0.561590 0.994538
Zn13  Zn    Zn3+2 0.762140 0.792900 0.561590 0.992718
Zn14  Zn    Zn3+2 0.262140 0.707100 0.561590 0.994352
Zn15  Zn    Zn3+2 0.262140 0.292900 0.561590 0.992507
Zn16  Zn    Zn3+2 0.737880 0.207090 0.438410 0.991070

loop_
_geom_bond_atom_site_label_1
_geom_bond_atom_site_label_2
_ccdc_geom_bond_type
C44   C49   S    
C76   O21   A    
O46   Zn9   S    
C83   C87   D    
C73   O18   A    
C63   C65   S    
C117  O40   A    
C16   C90   S    
C126  C127  S    
C114  O2    A    
C53   C58   S    
C44   C51   S    
O34   Zn8   S    
C112  O59   A    
O6    Zn13  S    
C18   C96   S    
C6    C42   S    
C6    C58   S    
C1    O5    A    
O32   Zn13  S    
C61   C68   S    
C92   C96   D    
C131  H2    S    
C96   C114  S    
C128  C129  S    
O35   Zn15  S    
O34   Zn15  S    
C19   C97   S    
O45   Zn1   S    
O12   Zn9   S    
C87   C110  S    
C76   O13   A    
C3    C124  S    
C83   C92   S    
C26   C78   S    
C22   C101  S    
C37   O55   D    
C106  H34   S    
C48   C70   S    
C14   C87   S    
O9    Zn16  S    
C19   O51   D    
O47   Zn10  S    
C42   C53   S    
C7    H8    S    
C55   C77   S    
C6    C78   S    
O14   Zn5   S    
C64   H9    S    
C94   C98   D    
C118  O41   A    
O22   Zn12  S    
O19   Zn9   S    
C46   C52   S    
C119  O33   A    
O5    Zn12  S    
C27   N6    T    
O1    Zn1   S    
C3    H4    S    
C75   O20   A    
C107  C119  S    
C6    H7    S    
O18   Zn1   S    
C57   C79   S    
C47   C69   S    
C62   C64   S    
C119  O42   A    
O12   Zn2   S    
C47   C60   S    
C124  O47   A    
C125  O39   A    
C58   C66   S    
C65   C111  S    
C23   C102  S    
C74   O10   A    
C126  C130  D    
O37   Zn6   S    
O4    Zn8   S    
C40   C67   S    
C73   O9    A    
C40   C80   T    
C37   C84   S    
C117  O31   A    
C17   C95   S    
C7    C43   S    
C97   C115  S    
C109  O24   A    
C43   C48   S    
O41   Zn2   S    
C67   O17   A    
C58   C80   S    
C74   O19   A    
O15   Zn6   S    
C115  O3    A    
C34   H27   S    
C110  O58   A    
C99   C104  D    
C116  O4    A    
C60   C66   S    
C31   C61   S    
C121  O44   A    
C20   H26   S    
C34   O53   D    
C50   C63   S    
C108  O22   A    
C105  C117  S    
C51   C62   S    
C13   C71   T    
C121  C131  S    
C10   C128  S    
O43   Zn4   S    
C11   C129  S    
C120  O43   A    
C7    C59   S    
C53   C60   S    
O1    Zn5   S    
O36   Zn5   S    
C54   H17   S    
C104  C118  S    
C54   C59   S    
C101  C105  D    
C66   C78   S    
C15   N18   T    
C107  H35   S    
O24   Zn13  S    
O20   Zn10  S    
C38   C85   S    
C19   H25   S    
C13   C75   S    
O26   Zn15  S    
C5    H6    S    
C110  O25   A    
C11   N15   T    
O59   Zn11  S    
O33   Zn14  S    
O23   Zn7   S    
O12   Zn6   S    
C14   N17   T    
C30   N9    T    
O60   Zn5   S    
C24   C76   S    
C66   H11   S    
C5    C111  S    
C51   H14   S    
C4    H5    S    
C82   C86   D    
C38   O57   D    
C91   C95   D    
C35   C77   T    
C53   H16   S    
O3    Zn7   S    
C82   C91   S    
O1    Zn16  S    
C30   C60   S    
C39   C79   T    
C86   C112  S    
C41   C56   S    
C5    C57   S    
O58   Zn10  S    
C114  O28   A    
C59   C68   S    
C123  O46   A    
C85   C94   S    
O10   Zn2   S    
C43   C54   S    
C98   C116  S    
C91   H1    S    
C93   H23   S    
C41   C81   T    
C45   O15   A    
O13   Zn4   S    
C57   C65   S    
C55   C64   S    
O7    Zn14  S    
C68   C89   S    
C20   C98   S    
C32   N11   T    
C9    C127  S    
C9    N12   T    
C22   N2    T    
O17   Zn8   S    
C16   N19   T    
C56   O16   A    
C31   N10   T    
C26   N5    T    
C25   N4    T    
O11   Zn3   S    
C1    O14   A    
C99   C101  S    
C52   H15   S    
C112  O26   A    
C48   C89   S    
C4    C100  S    
C4    C55   S    
C118  O32   A    
C10   N14   T    
O42   Zn3   S    
C1    C39   S    
O38   Zn7   S    
C88   C109  S    
C29   N8    T    
C116  O30   A    
C67   O8    A    
C35   C45   S    
C93   C97   D    
C44   H20   S    
C7    C89   S    
C43   H19   S    
C8    N1    T    
C24   C72   T    
C21   N20   T    
C37   H29   S    
O40   Zn16  S    
C56   O7    A    
C45   O6    A    
O16   Zn7   S    
C46   H21   S    
C108  O45   A    
C128  C132  D    
O23   Zn14  S    
C34   C82   S    
C49   C62   S    
O1    Zn12  S    
C106  C120  S    
C3    C129  D    
O30   Zn4   S    
O27   Zn16  S    
C29   C111  S    
O8    Zn15  S    
C25   C103  S    
O56   Zn9   S    
C59   C81   S    
C18   H24   S    
C17   H22   S    
C52   C63   S    
C2    C74   S    
C104  H32   S    
C124  O38   A    
C85   C90   D    
C28   N7    T    
O34   Zn11  S    
O39   Zn8   S    
C123  O37   A    
C54   C61   S    
C75   O11   A    
C120  O35   A    
C113  O60   A    
C4    C44   S    
C5    C46   S    
C46   C50   S    
C84   C93   S    
C109  O56   A    
C12   C86   S    
O25   Zn14  S    
C36   O54   D    
O29   Zn3   S    
C127  C131  D    
C64   C100  S    
C90   C108  S    
C123  C130  S    
C125  O48   A    
C20   O52   D    
C49   C100  S    
C33   N13   T    
C65   H10   S    
O48   Zn11  S    
C125  C132  S    
C28   C100  S    
O12   Zn13  S    
C12   N16   T    
C84   C88   D    
C2    C70   T    
C69   C122  T    
C95   C113  S    
C132  H3    S    
C21   C99   S    
O31   Zn12  S    
C50   C111  S    
C121  O36   A    
C105  H33   S    
C27   C89   S    
C51   C55   S    
C42   C47   S    
C102  C103  S    
C92   H12   S    
C33   C63   S    
O21   Zn11  S    
C52   C57   S    
C36   H28   S    
C32   C62   S    
C50   C72   S    
C130  H36   S    
C38   H30   S    
C23   N3    T    
O23   Zn10  S    
O28   Zn2   S    
C73   C122  S    
C49   C71   S    
C102  C106  D    
C48   C61   S    
O2    Zn6   S    
C113  O27   A    
C115  O29   A    
C103  C107  D    
O44   Zn1   S    
C36   C83   S    
C47   C78   S    
O23   Zn3   S    
C8    C126  S    
C94   H31   S    
C68   H13   S    
C18   O50   D    
C17   O49   D    
C15   C88   S    
C42   H18   S    
O34   Zn4   S    
