data_mof_unit_25895.cif
_audit_creation_date              2012-12-10T21:09:11-0500
_audit_creation_method            fapswitch 2.2
_symmetry_space_group_name_H-M    P1
_symmetry_Int_Tables_number       1
_space_group_crystal_system       triclinic
_cell_length_a                    10.806331
_cell_length_b                    17.434136
_cell_length_c                    16.864367
_cell_angle_alpha                 91.0734
_cell_angle_beta                  103.272247
_cell_angle_gamma                 92.543996
_cell_volume                      3087.9525627

loop_
_atom_site_label
_atom_site_type_symbol
_atom_type_description
_atom_site_fract_x
_atom_site_fract_y
_atom_site_fract_z
_atom_type_partial_charge
C1    C     C_R   0.500751 0.352956 0.499418 0.941819
C2    C     C_R   0.487323 0.646283 0.498701 0.883532
C3    C     C_R   0.404498 0.882685 0.476641 -0.059900
C4    C     C_R   0.423677 0.113085 0.473697 -0.044750
C5    C     C_1   0.399628 0.963620 0.470015 0.034699
C6    C     C_1   0.404783 0.031903 0.469268 0.039844
C7    C     C_R   0.434285 0.440071 0.821604 -0.092461
C8    C     C_R   0.593333 0.542887 0.181567 -0.098998
C9    C     C_R   0.426137 0.446044 0.736176 0.448772
C10   C     C_R   0.591412 0.543002 0.266197 0.466667
C11   C     C_R   0.584698 0.548755 0.760666 0.496196
C12   C     C_R   0.408230 0.456884 0.238127 0.492475
C13   C     C_R   0.592934 0.546054 0.846787 -0.103692
C14   C     C_R   0.397518 0.462184 0.152008 -0.104377
C15   C     C_R   0.508059 0.495933 0.876499 -0.025558
C16   C     C_R   0.495280 0.502281 0.123625 -0.023740
C17   C     C_1   0.502290 0.498058 0.963738 -0.030616
C18   C     C_1   0.498257 0.500033 0.035939 -0.020425
C19   C     C_R   0.258732 0.502073 0.466281 0.762766
C20   C     C_R   0.741852 0.502830 0.533774 0.814993
C21   C     C_2   0.122288 0.511079 0.446550 0.300590
C22   C     C_2   0.879680 0.514805 0.553319 0.245052
C23   C     C_2   0.070584 0.539428 0.504636 -0.254952
C24   C     C_2   0.934544 0.536851 0.493470 -0.250540
C25   C     C_R   0.416106 0.849397 0.553533 -0.044606
C26   C     C_R   0.490754 0.149396 0.421030 -0.061657
C27   C     C_R   0.430527 0.769922 0.559849 0.415130
C28   C     C_R   0.531399 0.227058 0.436555 0.449279
C29   C     C_R   0.451403 0.726929 0.492892 -0.230473
C30   C     C_R   0.487515 0.269352 0.495479 -0.223410
C31   C     C_R   0.429470 0.760176 0.416271 -0.409011
C32   C     C_R   0.418133 0.232804 0.545654 -0.432334
C33   C     C_R   0.410811 0.838788 0.407429 0.500585
C34   C     C_R   0.388958 0.153497 0.537435 0.486183
H1    H     H_    0.878628 0.546279 0.432750 0.255888
H2    H     H_    0.128239 0.556748 0.564112 0.155947
H3    H     H_    0.425550 0.724491 0.362935 0.171519
H4    H     H_    0.382941 0.267286 0.588673 0.222102
N1    N     N_R   0.500030 0.500030 0.707240 -0.171654
N2    N     N_R   0.499970 0.499970 0.292760 -0.172763
O1    O     O_R   0.500000 0.389130 0.566570 -0.570637
O2    O     O_R   0.500000 0.610870 0.433430 -0.612342
O3    O     O_R   0.499990 0.389100 0.433480 -0.574425
O4    O     O_R   0.500010 0.610900 0.566520 -0.586851
O5    O     O_R   0.317810 0.500010 0.541690 -0.639448
O6    O     O_R   0.682190 0.499990 0.458310 -0.590147
O7    O     O_R   0.317800 0.499990 0.408610 -0.554819
O8    O     O_R   0.682200 0.500010 0.591390 -0.561342
Zn1   Zn    Zn3+2 0.500010 0.500020 0.588860 1.001620
Zn2   Zn    Zn3+2 0.499990 0.499980 0.411140 1.012197
C35   C     C_3   0.702372 0.588487 0.906973 -0.358957
C36   C     C_3   0.829347 0.552119 0.907656 -0.312922
C37   C     C_3   0.939850 0.594630 0.967366 -0.953164
H5    H     H_    0.941226 0.657148 0.956180 0.263161
H6    H     H_    0.931877 0.585497 0.031010 0.270886
H7    H     H_    0.031112 0.572529 0.959477 0.265242
H8    H     H_    0.823497 0.491173 0.925141 0.219241
H9    H     H_    0.849420 0.552676 0.846227 0.267132
H10   H     H_    0.706387 0.650338 0.894264 0.203418
H11   H     H_    0.689010 0.586807 0.969719 0.209952
C38   C     C_3   0.281453 0.425788 0.091539 -0.354766
C39   C     C_3   0.157648 0.461714 0.099656 -0.309727
C40   C     C_3   0.042192 0.420264 0.043286 -0.944230
H12   H     H_    0.045761 0.427600 0.978551 0.268824
H13   H     H_    0.039314 0.358000 0.055771 0.263025
H14   H     H_    0.953688 0.444229 0.053811 0.259470
H15   H     H_    0.145208 0.458795 0.162955 0.268016
H16   H     H_    0.161374 0.523272 0.084135 0.217811
H17   H     H_    0.288660 0.432539 0.027609 0.198716
H18   H     H_    0.274746 0.362991 0.099090 0.202842
O9    O     O_3   0.951670 0.496121 0.629077 -0.614896
C41   C     C_3   0.967858 0.561616 0.681370 0.106534
H19   H     H_    0.875214 0.576793 0.692399 0.227665
H20   H     H_    0.009876 0.611784 0.655098 0.119272
C42   C     C_3   0.054901 0.544709 0.763146 -0.894587
H21   H     H_    0.153133 0.536857 0.756274 0.232393
H22   H     H_    0.057742 0.593725 0.806631 0.226081
H23   H     H_    0.019304 0.491962 0.788398 0.264592
O10   O     O_3   0.048621 0.494410 0.368766 -0.588223
C43   C     C_3   0.037662 0.414069 0.355411 0.106364
H24   H     H_    0.009570 0.384089 0.406857 0.123261
H25   H     H_    0.129356 0.392633 0.347541 0.189969
C44   C     C_3   0.935415 0.394546 0.278432 -0.803710
H26   H     H_    0.960552 0.422847 0.225423 0.258099
H27   H     H_    0.926820 0.331417 0.266784 0.197791
H28   H     H_    0.842309 0.414497 0.285740 0.264848
C45   C     C_3   0.423546 0.897976 0.630578 -0.363670
C46   C     C_3   0.561919 0.907856 0.679690 -0.318176
C47   C     C_3   0.573624 0.958923 0.755724 -0.912201
H29   H     H_    0.510976 0.935510 0.794236 0.264019
H30   H     H_    0.547429 0.018155 0.738314 0.267377
H31   H     H_    0.673610 0.961345 0.791826 0.251283
H32   H     H_    0.598486 0.850872 0.698675 0.241697
H33   H     H_    0.622216 0.934075 0.641089 0.216173
H34   H     H_    0.385651 0.955356 0.616237 0.224868
H35   H     H_    0.363443 0.870890 0.668614 0.211562
C48   C     C_3   0.512072 0.107164 0.345791 -0.386175
C49   C     C_3   0.385152 0.090488 0.282774 -0.300687
C50   C     C_3   0.399027 0.101123 0.195428 -0.921820
H36   H     H_    0.424241 0.162282 0.186314 0.262804
H37   H     H_    0.474284 0.065144 0.182040 0.266645
H38   H     H_    0.307491 0.084374 0.152063 0.253138
H39   H     H_    0.349566 0.030639 0.288940 0.257189
H40   H     H_    0.311436 0.129219 0.293750 0.222342
H41   H     H_    0.578587 0.140815 0.317038 0.228792
H42   H     H_    0.558876 0.052599 0.363636 0.184093
O11   O     O_3   0.429075 0.735795 0.632797 -0.644589
C51   C     C_3   0.302800 0.712062 0.633234 0.120835
H43   H     H_    0.269645 0.663114 0.589291 0.143750
H44   H     H_    0.236373 0.759462 0.617323 0.123478
C52   C     C_3   0.298938 0.686617 0.718407 -0.879909
H45   H     H_    0.346243 0.731533 0.764311 0.258592
H46   H     H_    0.198935 0.677707 0.723279 0.214653
H47   H     H_    0.348252 0.632204 0.731597 0.234337
O12   O     O_3   0.604333 0.263831 0.389519 -0.632398
C53   C     C_3   0.733030 0.244733 0.415701 0.071535
H48   H     H_    0.775234 0.243857 0.361545 0.161709
H49   H     H_    0.745837 0.186764 0.442581 0.126182
C54   C     C_3   0.807562 0.305225 0.476257 -0.846508
H50   H     H_    0.770152 0.307081 0.532263 0.242254
H51   H     H_    0.908676 0.290248 0.492914 0.207483
H52   H     H_    0.800979 0.362462 0.448326 0.268959
O13   O     O_3   0.395880 0.874945 0.332784 -0.614749
C55   C     C_3   0.468321 0.842351 0.281769 0.087230
H53   H     H_    0.415513 0.790986 0.248129 0.141874
H54   H     H_    0.563981 0.826612 0.316756 0.130944
C56   C     C_3   0.489303 0.900248 0.219422 -0.854035
H55   H     H_    0.548288 0.950415 0.250917 0.253391
H56   H     H_    0.540019 0.873511 0.176501 0.208510
H57   H     H_    0.396469 0.919524 0.184401 0.269249
O14   O     O_3   0.315136 0.114649 0.583483 -0.615285
C57   C     C_3   0.340050 0.142472 0.665259 0.103163
H58   H     H_    0.297237 0.198691 0.669260 0.158939
H59   H     H_    0.444242 0.147553 0.692928 0.141166
C58   C     C_3   0.277375 0.087402 0.714951 -0.857637
H60   H     H_    0.315516 0.029566 0.713920 0.255083
H61   H     H_    0.296270 0.109009 0.779165 0.209476
H62   H     H_    0.172864 0.082831 0.689599 0.260240
C59   C     C_3   0.373915 0.370733 0.854913 -0.370769
C60   C     C_3   0.475219 0.318379 0.901177 -0.316686
C61   C     C_3   0.414221 0.252418 0.939459 -0.914742
H63   H     H_    0.363334 0.275204 0.984421 0.260055
H64   H     H_    0.345994 0.217387 0.891738 0.260009
H65   H     H_    0.489175 0.214958 0.971432 0.253769
H66   H     H_    0.528378 0.294233 0.858097 0.221951
H67   H     H_    0.544729 0.350811 0.950349 0.230860
H68   H     H_    0.312693 0.390761 0.894973 0.190194
H69   H     H_    0.312254 0.334086 0.805987 0.216354
C62   C     C_3   0.698324 0.587246 0.152843 -0.355065
C63   C     C_3   0.649769 0.663285 0.115018 -0.370068
C64   C     C_3   0.758977 0.718059 0.105267 -0.911730
H70   H     H_    0.823348 0.732884 0.165537 0.264299
H71   H     H_    0.814171 0.691627 0.065053 0.273029
H72   H     H_    0.720094 0.771743 0.077496 0.252590
H73   H     H_    0.584265 0.651884 0.054498 0.227068
H74   H     H_    0.594107 0.692524 0.153396 0.203507
H75   H     H_    0.783467 0.598092 0.203541 0.235898
H76   H     H_    0.732902 0.551833 0.107732 0.191062
O15   O     O_3   0.355120 0.391354 0.682145 -0.610253
C65   C     C_3   0.225424 0.408727 0.666054 0.152829
H77   H     H_    0.212534 0.469382 0.649665 0.175529
H78   H     H_    0.183413 0.399415 0.719432 0.132122
C66   C     C_3   0.150704 0.357192 0.596104 -0.826702
H79   H     H_    0.149055 0.296699 0.615264 0.230669
H80   H     H_    0.051682 0.375627 0.578209 0.252426
H81   H     H_    0.194257 0.360818 0.542683 0.237183
O16   O     O_3   0.690912 0.578474 0.323948 -0.594636
C67   C     C_3   0.678876 0.658930 0.326750 0.134665
H82   H     H_    0.578415 0.674527 0.317271 0.114969
H83   H     H_    0.720034 0.687072 0.279968 0.143380
C68   C     C_3   0.755163 0.692711 0.408304 -0.842969
H84   H     H_    0.858573 0.688200 0.412221 0.242043
H85   H     H_    0.735423 0.754282 0.413945 0.199903
H86   H     H_    0.730427 0.661940 0.459854 0.254475
O17   O     O_3   0.677776 0.589188 0.731480 -0.620275
C69   C     C_3   0.665102 0.669659 0.734621 0.156162
H87   H     H_    0.598214 0.688781 0.771603 0.146080
H88   H     H_    0.631179 0.688654 0.672055 0.232263
C70   C     C_3   0.794818 0.712101 0.763787 -0.994181
H89   H     H_    0.850036 0.708990 0.715935 0.239429
H90   H     H_    0.781537 0.773556 0.776351 0.232810
H91   H     H_    0.851103 0.687676 0.819786 0.281121
O18   O     O_3   0.320759 0.411955 0.267737 -0.600078
C71   C     C_3   0.340657 0.332750 0.257725 0.151487
H92   H     H_    0.393490 0.311048 0.315902 0.215939
H93   H     H_    0.397229 0.319367 0.212044 0.109834
C72   C     C_3   0.213073 0.287203 0.235126 -0.945437
H94   H     H_    0.142075 0.318535 0.191256 0.279887
H95   H     H_    0.224669 0.230911 0.206723 0.231994
H96   H     H_    0.176232 0.276718 0.290416 0.237221

loop_
_geom_bond_atom_site_label_1
_geom_bond_atom_site_label_2
_ccdc_geom_bond_type
C38   H18   S    
O4    Zn1   S    
C58   H62   S    
C7    C59   S    
C68   H84   S    
C40   H13   S    
C27   C29   A    
C52   H45   S    
C9    N1    A    
C45   C46   S    
C48   C49   S    
C44   H28   S    
C53   C54   S    
C58   H60   S    
C37   H5    S    
C51   H43   S    
C68   H85   S    
C59   H68   S    
C39   H15   S    
C2    C29   S    
C19   C21   S    
C61   H64   S    
C5    C6    T    
C43   H24   S    
C19   O7    A    
C54   H52   S    
C12   O18   S    
C3    C33   A    
C38   H17   S    
C49   H39   S    
C25   C45   S    
C71   H92   S    
C10   N2    A    
C64   H72   S    
C1    C30   S    
C72   H96   S    
C13   C35   S    
C1    O3    A    
C67   C68   S    
O15   C65   S    
C2    O4    A    
C57   H58   S    
C45   H34   S    
C64   H70   S    
C31   C33   A    
C32   H4    S    
C47   H30   S    
C62   H76   S    
C70   H91   S    
C48   H41   S    
C37   H6    S    
C40   H14   S    
C8    C16   A    
C63   H74   S    
C41   C42   S    
O1    Zn1   S    
C17   C18   T    
O7    Zn2   S    
C46   H33   S    
C54   H51   S    
C68   H86   S    
C4    C34   A    
C59   H69   S    
C24   H1    S    
C35   C36   S    
C65   C66   S    
C67   H82   S    
O13   C55   S    
C66   H81   S    
C60   C61   S    
C41   H20   S    
C61   H65   S    
C60   H67   S    
O16   C67   S    
C10   O16   S    
C7    C15   A    
C14   C38   S    
C40   H12   S    
C50   H37   S    
C65   H78   S    
C12   N2    A    
C42   H21   S    
C56   H56   S    
O18   C71   S    
C39   C40   S    
C28   O12   S    
C50   H36   S    
C3    C25   A    
C23   C24   S    
C45   H35   S    
C21   O10   S    
O5    Zn1   S    
C52   H46   S    
C16   C18   S    
C47   H31   S    
C11   N1    A    
C42   H22   S    
C20   O8    A    
C36   H9    S    
O2    Zn2   S    
C55   C56   S    
C48   H42   S    
C4    C6    S    
O8    Zn1   S    
C44   H27   S    
C12   C14   A    
C34   O14   S    
C23   H2    S    
C63   H73   S    
C21   C23   D    
C58   H61   S    
C14   C16   A    
C44   H26   S    
C35   H10   S    
O11   C51   S    
O14   C57   S    
C22   O9    S    
C36   C37   S    
C59   C60   S    
C55   H54   S    
C37   H7    S    
C1    O1    A    
C7    C9    A    
C46   H32   S    
C69   H87   S    
N1    Zn1   S    
C11   O17   S    
C8    C10   A    
C20   C22   S    
C41   H19   S    
C3    C5    S    
C60   H66   S    
C4    C26   A    
C54   H50   S    
C19   O5    A    
O3    Zn2   S    
C15   C17   S    
C70   H89   S    
C25   C27   A    
O6    Zn2   S    
C26   C28   A    
C71   H93   S    
C51   C52   S    
C39   H16   S    
C71   C72   S    
C65   H77   S    
C69   C70   S    
C13   C15   A    
C8    C62   S    
C56   H57   S    
C28   C30   A    
C29   C31   A    
O17   C69   S    
C62   C63   S    
C30   C32   A    
C11   C13   A    
C27   O11   S    
O12   C53   S    
C51   H44   S    
C2    O2    A    
C57   C58   S    
N2    Zn2   S    
C67   H83   S    
C43   C44   S    
C43   H25   S    
C53   H49   S    
C53   H48   S    
C52   H47   S    
C22   C24   D    
C64   H71   S    
C38   C39   S    
C42   H23   S    
C72   H95   S    
C66   H79   S    
C36   H8    S    
C26   C48   S    
O10   C43   S    
C31   H3    S    
O9    C41   S    
C50   H38   S    
C46   C47   S    
C57   H59   S    
C49   C50   S    
C33   O13   S    
C9    O15   S    
C63   C64   S    
C55   H53   S    
C66   H80   S    
C72   H94   S    
C35   H11   S    
C47   H29   S    
C61   H63   S    
C62   H75   S    
C49   H40   S    
C20   O6    A    
C56   H55   S    
C32   C34   A    
C69   H88   S    
C70   H90   S    
