data_mof_unit_30089.cif
_audit_creation_date              2013-03-05T16:03:01-0500
_audit_creation_method            fapswitch 2.2
_symmetry_space_group_name_H-M    P1
_symmetry_Int_Tables_number       1
_space_group_crystal_system       triclinic
_cell_length_a                    6.941376
_cell_length_b                    18.382439
_cell_length_c                    20.152855
_cell_angle_alpha                 68.520432
_cell_angle_beta                  90.738149
_cell_angle_gamma                 91.002539
_cell_volume                      2392.47358961

loop_
_atom_site_label
_atom_site_type_symbol
_atom_site_description
_atom_site_fract_x
_atom_site_fract_y
_atom_site_fract_z
_atom_type_partial_charge
O1    O     O_R   0.488990 0.443920 0.942160 -0.592576
O2    O     O_R   0.823840 0.406530 0.087600 -0.597332
O3    O     O_R   0.999650 0.556080 0.057840 -0.587673
C1    C     C_R   0.654941 0.384824 0.115918 0.919582
O4    O     O_R   0.818390 0.434590 0.944530 -0.592513
O5    O     O_R   0.994160 0.584350 0.913750 -0.582520
C2    C     C_R   0.648568 0.420329 0.924170 0.952313
O6    O     O_R   0.494480 0.415650 0.086250 -0.606418
O7    O     O_3   0.662600 0.549100 0.990070 -0.242371
V1    V     V_3+5 0.935320 0.490890 0.001840 1.215134
O8    O     O_R   0.324240 0.593470 0.912400 -0.590843
C3    C     C_R   0.155033 0.618477 0.886066 1.016038
O9    O     O_R   0.329690 0.565410 0.055470 -0.558841
C4    C     C_R   0.162863 0.575463 0.079201 1.058722
V2    V     V_3+5 0.435990 0.509110 0.998160 1.232123
O10   O     O_3   0.158840 0.450900 0.009930 -0.290163
C5    C     C_3   0.962960 0.676295 0.263066 -0.314612
C6    C     C_3   0.332360 0.686668 0.263646 0.097744
C7    C     C_3   0.324968 0.739181 0.310331 0.058811
C8    C     C_1   0.109381 0.870267 0.382146 -0.118084
C9    C     C_3   0.146494 0.698312 0.215930 0.059179
C10   C     C_3   0.959556 0.720375 0.315800 -0.253276
C11   C     C_3   0.126572 0.781963 0.299986 -0.085388
C12   C     C_3   0.113548 0.835823 0.219161 0.176155
C13   C     C_3   0.133929 0.786988 0.170343 -0.472022
C14   C     C_1   0.115635 0.830001 0.345851 0.142810
C15   C     C_1   0.153584 0.653206 0.167793 0.085964
C16   C     C_1   0.157909 0.617717 0.127472 -0.165633
H1    H     H_    0.832902 0.692112 0.228117 0.199557
C17   C     C_R   0.302073 0.780314 0.870225 0.195103
C18   C     C_R   0.401290 0.851888 0.858361 0.331707
C19   C     C_R   0.396388 0.910699 0.791583 -0.279333
C20   C     C_R   0.297941 0.899591 0.736093 -0.219325
C21   C     C_R   0.214697 0.826256 0.743314 0.115472
C22   C     C_R   0.220884 0.763670 0.811265 -0.055186
C23   C     C_R   0.120429 0.816369 0.684180 -0.256501
C24   C     C_R   0.038387 0.742898 0.691377 0.114846
C25   C     C_R   0.050819 0.678805 0.757664 0.101546
C26   C     C_R   0.142388 0.688307 0.817880 -0.261394
C27   C     C_R   0.948631 0.731059 0.632444 -0.179164
C28   C     C_R   0.866581 0.659197 0.639144 -0.050845
C29   C     C_R   0.877515 0.596801 0.703618 -0.029032
C30   C     C_R   0.972507 0.605453 0.761552 -0.189508
H2    H     H_    0.289092 0.950304 0.687531 0.157081
H3    H     H_    0.796083 0.651679 0.593796 0.176148
H4    H     H_    0.983456 0.553349 0.808869 0.140506
H5    H     H_    0.883899 0.458252 0.313329 0.186726
C31   C     C_R   0.486592 0.238705 0.122118 -0.242328
C32   C     C_R   0.423858 0.168033 0.119810 -0.194631
C33   C     C_R   0.456278 0.098609 0.177102 0.320438
C34   C     C_R   0.535824 0.101521 0.241380 0.165784
C35   C     C_R   0.574967 0.175386 0.247966 -0.069690
C36   C     C_R   0.566772 0.243969 0.184829 0.116474
C37   C     C_R   0.625795 0.182982 0.314352 -0.237727
C38   C     C_R   0.691915 0.256800 0.314321 0.075633
C39   C     C_R   0.705477 0.322472 0.249173 0.124333
C40   C     C_R   0.642319 0.316173 0.184381 -0.241809
C41   C     C_R   0.745982 0.266561 0.378644 -0.292629
C42   C     C_R   0.815640 0.338502 0.379173 0.409999
C43   C     C_R   0.830726 0.402043 0.314572 -0.142550
C44   C     C_R   0.776017 0.394412 0.250709 -0.238878
H6    H     H_    0.734307 0.218365 0.429183 0.148207
O11   O     O_R   0.770890 0.084490 0.414040 -0.569109
O12   O     O_R   0.445980 0.065450 0.555510 -0.597770
O13   O     O_R   0.270670 0.915620 0.586180 -0.603984
C45   C     C_R   0.615678 0.079342 0.576223 0.956338
O14   O     O_R   0.441480 0.093500 0.412450 -0.588702
O15   O     O_R   0.266140 0.943870 0.442100 -0.554664
C46   C     C_R   0.610673 0.115125 0.383826 1.008107
O16   O     O_R   0.775410 0.056240 0.558120 -0.590486
O17   O     O_3   0.602660 0.950990 0.510100 -0.261499
V3    V     V_3+5 0.329740 0.009100 0.498130 1.233544
O18   O     O_R   0.936120 0.934420 0.444240 -0.561643
C47   C     C_R   0.103658 0.918979 0.425014 1.004485
O19   O     O_R   0.940610 0.906370 0.587310 -0.605092
C48   C     C_R   0.109594 0.883335 0.614672 0.907818
V4    V     V_3+5 0.829110 0.990690 0.501470 1.244921
O20   O     O_3   0.106080 0.049010 0.489880 -0.270803
C49   C     C_3   0.822015 0.257121 0.698614 -0.376974
C50   C     C_3   0.453209 0.262481 0.693008 0.194589
C51   C     C_3   0.466247 0.315744 0.737954 -0.379391
H7    H     H_    0.323723 0.223893 0.711595 0.103006
H8    H     H_    0.327680 0.312835 0.765701 0.212060
C52   C     C_1   0.638624 0.374342 0.878989 -0.232321
C53   C     C_3   0.632214 0.208093 0.707727 0.069931
C54   C     C_3   0.829651 0.301465 0.751640 0.157164
C55   C     C_3   0.634854 0.290307 0.793034 -0.065963
C56   C     C_3   0.616031 0.200277 0.837414 0.232795
C57   C     C_3   0.621284 0.152396 0.787220 -0.550237
C58   C     C_1   0.635616 0.336328 0.840680 0.094675
C59   C     C_1   0.630545 0.161990 0.660463 0.092979
C60   C     C_1   0.626047 0.124476 0.621877 -0.212190
H9    H     H_    0.492921 0.113007 0.795549 0.224225
H10   H     H_    0.944450 0.273791 0.791734 0.116687
H11   H     H_    0.966273 0.677752 0.371249 0.242446
H12   H     H_    0.818464 0.749172 0.311819 0.214322
H13   H     H_    0.237244 0.877524 0.207571 0.166131
H14   H     H_    0.813439 0.541057 0.708697 0.188373
N1    N     N_R   0.252094 0.733728 0.942094 0.213487
O21   O     O_R   0.381697 0.718721 0.992295 -0.360419
O22   O     O_R   0.070922 0.725559 0.959511 -0.393734
N2    N     N_R   0.495442 0.868084 0.915250 0.264451
O23   O     O_R   0.452549 0.930902 0.927042 -0.320653
O24   O     O_R   0.651901 0.831028 0.943438 -0.295212
H15   H     H_    0.464202 0.966929 0.783083 0.166902
H16   H     H_    0.941437 0.776671 0.580225 0.125923
H17   H     H_    0.950269 0.612350 0.292553 0.226006
H18   H     H_    0.471577 0.288988 0.073366 0.157691
H19   H     H_    0.362097 0.167225 0.070549 0.231652
N3    N     N_R   0.418648 0.026052 0.167032 0.254999
O25   O     O_R   0.295785 0.023710 0.118481 -0.319831
O26   O     O_R   0.530869 0.966743 0.195723 -0.281176
N4    N     N_R   0.600654 0.030650 0.295091 0.243592
O27   O     O_R   0.480403 0.973180 0.324461 -0.381211
O28   O     O_R   0.784693 0.018427 0.304406 -0.362728
N5    N     N_R   0.870777 0.346893 0.445208 0.267380
O29   O     O_R   0.930678 0.414100 0.445934 -0.263257
O30   O     O_R   0.862215 0.287394 0.505239 -0.370584
H20   H     H_    0.787982 0.445974 0.202626 0.136000
N6    N     N_R   0.885540 0.383979 0.715688 0.247620
O31   O     O_R   0.032077 0.412335 0.739655 -0.429389
O32   O     O_R   0.801118 0.427933 0.657052 -0.331998
H21   H     H_    0.455578 0.709453 0.226350 0.091261
H22   H     H_    0.838080 0.297859 0.642607 0.282774
N7    N     N_R   0.424000 0.308494 0.616877 0.258256
O33   O     O_R   0.545316 0.363252 0.581477 -0.265008
O34   O     O_R   0.270474 0.296340 0.584462 -0.325128
H23   H     H_    0.483510 0.378109 0.703185 0.243989
H24   H     H_    0.749052 0.113742 0.800951 0.202320
H25   H     H_    0.744416 0.183153 0.873344 0.117565
H26   H     H_    0.947545 0.217469 0.709315 0.159353
N8    N     N_R   0.372081 0.603883 0.305041 0.272863
O35   O     O_R   0.247327 0.558594 0.349364 -0.298763
O36   O     O_R   0.533039 0.574056 0.295323 -0.402543
N9    N     N_R   0.444280 0.180229 0.882737 0.265916
O37   O     O_R   0.464885 0.152963 0.951709 -0.346016
O38   O     O_R   0.272630 0.181581 0.855600 -0.420826
N10   N     N_R   0.379104 0.698113 0.385658 0.275639
O39   O     O_R   0.537695 0.718067 0.410093 -0.386175
O40   O     O_R   0.266662 0.645992 0.429984 -0.297721
H27   H     H_    0.436423 0.786047 0.287877 0.123556
H28   H     H_    0.011831 0.797597 0.131785 0.253724
H29   H     H_    0.266076 0.806527 0.137427 0.213340
N11   N     N_R   0.936354 0.881711 0.202472 0.283652
O41   O     O_R   0.773379 0.850848 0.192663 -0.365913
O42   O     O_R   0.944261 0.955843 0.192008 -0.268736

loop_
_geom_bond_atom_site_label_1
_geom_bond_atom_site_label_2
_geom_bond_distance
_ccdc_geom_bond_type
C41   H6    1.080579 S    
C55   C56   1.570781 S    
C44   H20   1.082112 S    
C6    C9    1.569087 S    
C5    H1    1.112863 S    
C28   C29   1.385179 A    
C6    N8    1.472019 S    
C13   H28   1.112644 S    
C56   H25   1.115287 S    
C38   C39   1.424242 A    
C53   C59   1.488665 S    
N9    O37   1.300346 A    
C45   O16   1.297366 A    
V4    O20   2.157810 S    
C39   C40   1.415901 A    
C24   C25   1.424100 A    
O13   C48   1.294532 A    
C17   C22   1.437375 A    
C27   H16   1.080218 S    
C23   C24   1.414627 A    
O14   V3    2.005163 S    
C24   C27   1.418309 A    
C5    H17   1.108514 S    
O5    C3    1.298852 A    
C17   C18   1.415874 A    
C21   C22   1.430784 A    
C50   N7    1.469049 S    
O15   C47   1.298952 A    
V2    O10   2.157803 S    
C33   N3    1.439806 S    
C57   H24   1.113437 S    
N5    O29   1.301710 A    
C6    C7    1.577239 S    
O18   C47   1.298780 A    
C11   C14   1.497271 S    
N3    O25   1.301755 A    
V3    O20   1.708811 S    
C54   H10   1.115000 S    
H5    C43   1.082778 S    
O8    V2    2.009560 S    
O11   C46   1.295401 A    
C35   C37   1.434138 A    
C42   N5    1.440980 S    
C1    C40   1.492651 S    
C11   C12   1.568401 S    
O1    V2    1.965094 S    
C23   C48   1.490268 S    
O7    V1    2.158318 S    
C1    O6    1.294596 A    
C6    H21   1.115969 S    
C2    C52   1.452056 S    
C9    C15   1.490882 S    
C42   C43   1.398500 A    
C7    H27   1.116114 S    
O1    C2    1.299530 A    
O9    C4    1.300131 A    
O16   V4    1.982020 S    
C13   H29   1.113603 S    
C52   C58   1.216124 T    
O4    V1    1.971198 S    
C51   H8    1.109440 S    
N6    O32   1.300814 A    
C20   C21   1.415485 A    
C10   C11   1.557781 S    
C31   C36   1.409220 A    
C34   C35   1.432915 A    
C18   N2    1.433181 S    
C25   C26   1.427797 A    
C12   C13   1.564788 S    
C50   H7    1.114950 S    
C59   C60   1.213493 T    
O4    C2    1.296972 A    
C53   C57   1.555535 S    
C7    C11   1.571272 S    
C50   C51   1.559340 S    
C45   C60   1.447506 S    
C41   C42   1.403788 A    
C17   N1    1.430268 S    
C5    C9    1.555885 S    
C12   H13   1.109243 S    
C43   C44   1.392155 A    
O14   C46   1.305089 A    
O12   C45   1.296871 A    
C22   C26   1.440172 A    
O19   C48   1.299606 A    
C50   C53   1.564699 S    
C28   H3    1.082758 S    
C18   C19   1.384070 A    
O15   V3    1.966701 S    
C49   H26   1.113255 S    
C33   C34   1.420257 A    
C8    C47   1.455480 S    
C34   N4    1.430614 S    
C35   C36   1.427407 A    
N2    O24   1.301078 A    
O19   V4    2.009470 S    
C51   C55   1.557602 S    
O3    C4    1.296695 A    
N10   O40   1.300053 A    
N11   O42   1.300673 A    
C31   C32   1.379653 A    
N1    O22   1.301321 A    
O6    V2    2.010037 S    
C19   H15   1.083861 S    
O9    V2    1.968124 S    
C51   H23   1.108449 S    
N7    O33   1.300469 A    
C38   C41   1.417335 A    
C29   C30   1.391295 A    
O2    V1    2.005079 S    
O17   V4    1.705162 S    
N6    O31   1.301082 A    
C32   H19   1.081290 S    
N4    O27   1.298869 A    
O11   V4    2.005509 S    
N9    O38   1.301402 A    
C9    C13   1.554020 S    
C37   C38   1.424635 A    
C27   C28   1.390201 A    
C36   C40   1.415534 A    
C54   C55   1.568551 S    
C20   H2    1.078389 S    
C10   H12   1.109425 S    
C56   N9    1.468873 S    
N11   O41   1.301776 A    
O5    V1    2.007615 S    
O8    C3    1.302557 A    
O13   V3    2.007666 S    
C49   H22   1.108373 S    
C5    C10   1.555158 S    
N1    O21   1.299927 A    
C19   C20   1.379085 A    
C3    C26   1.500919 S    
C29   H14   1.080153 S    
O7    V2    1.708693 S    
C25   C30   1.420525 A    
O3    V1    1.966675 S    
V1    O10   1.708760 S    
C31   H18   1.079888 S    
C37   C46   1.499157 S    
C8    C14   1.217872 T    
C12   N11   1.468120 S    
C7    N10   1.473635 S    
O2    C1    1.301349 A    
C49   C53   1.557318 S    
N5    O30   1.301529 A    
N8    O35   1.300364 A    
C21   C23   1.419771 A    
O12   V3    1.971075 S    
C57   H9    1.112936 S    
N2    O23   1.301301 A    
C30   H4    1.079011 S    
N3    O26   1.298553 A    
N10   O39   1.301176 A    
C10   H11   1.106127 S    
O17   V3    2.158351 S    
C56   C57   1.566320 S    
N8    O36   1.301146 A    
C32   C33   1.391628 A    
C55   C58   1.494090 S    
C15   C16   1.215035 T    
N7    O34   1.301137 A    
O18   V4    1.968387 S    
C39   C44   1.412967 A    
C54   N6    1.469005 S    
C4    C16   1.451210 S    
C49   C54   1.563393 S    
N4    O28   1.300255 A    
