data_mof_unit_15716.cif
_audit_creation_date              2012-12-11T14:54:32-0500
_audit_creation_method            fapswitch 2.2
_symmetry_space_group_name_H-M    P1
_symmetry_Int_Tables_number       1
_space_group_crystal_system       triclinic
_cell_length_a                    19.186702
_cell_length_b                    10.895324
_cell_length_c                    18.791093
_cell_angle_alpha                 90.122616
_cell_angle_beta                  90.175506
_cell_angle_gamma                 89.576113
_cell_volume                      3928.05559091

loop_
_atom_site_label
_atom_site_type_symbol
_atom_type_description
_atom_site_fract_x
_atom_site_fract_y
_atom_site_fract_z
_atom_type_partial_charge
C1    C     C_R   0.730496 0.377701 0.646772 0.533355
C2    C     C_R   0.295400 0.859653 0.461671 -0.201794
C3    C     C_R   0.910904 0.631799 0.489587 -0.162790
C4    C     C_3   0.607832 0.770980 0.079940 -0.129499
C5    C     C_3   0.359049 0.675694 0.953510 -0.073748
C6    C     C_3   0.108689 0.269405 0.079784 -0.132146
C7    C     C_3   0.861404 0.183731 0.949395 -0.070864
C8    C     C_3   0.928450 0.975265 0.568000 -0.108406
C9    C     C_3   0.109851 0.133126 0.462034 -0.112021
C10   C     C_3   0.428497 0.475293 0.567900 -0.108386
C11   C     C_3   0.609840 0.633069 0.462011 -0.111944
C12   C     C_3   0.378068 0.046982 0.855789 -0.093972
C13   C     C_R   0.188871 0.419569 0.532197 -0.179927
C14   C     C_3   0.448565 0.876941 0.055876 -0.079300
C15   C     C_3   0.885198 0.531974 0.843479 -0.096970
C16   C     C_3   0.953165 0.376145 0.052807 -0.086668
C17   C     C_3   0.485679 0.467652 0.088484 -0.110293
C18   C     C_3   0.576422 0.456382 0.948299 -0.037933
C19   C     C_3   0.984303 0.965504 0.089380 -0.100808
C20   C     C_3   0.064390 0.960688 0.946725 -0.055976
C21   C     C_R   0.795399 0.359650 0.461673 -0.202098
C22   C     C_R   0.695517 0.908228 0.459155 -0.116757
C23   C     C_R   0.293307 0.841626 0.534563 -0.164703
C24   C     C_R   0.195516 0.408202 0.459157 -0.116588
C25   C     C_R   0.793310 0.341631 0.534566 -0.164290
C26   C     C_R   0.761742 0.897752 0.430044 0.012880
C27   C     C_R   0.251700 0.918530 0.577210 -0.025883
C28   C     C_R   0.261741 0.397765 0.430041 0.012920
C29   C     C_R   0.271972 0.373548 0.355395 0.549654
C30   C     C_R   0.751704 0.418536 0.577212 -0.024866
C31   C     C_R   0.821161 0.895115 0.473917 -0.126051
C32   C     C_R   0.217225 0.018929 0.547984 -0.128119
C33   C     C_R   0.321165 0.395178 0.473910 -0.126313
C34   C     C_R   0.717226 0.518930 0.547985 -0.127840
C35   C     C_R   0.815450 0.909229 0.547214 0.259363
C36   C     C_R   0.215591 0.034355 0.474830 0.260468
C37   C     C_R   0.315459 0.409297 0.547207 0.259367
C38   C     C_R   0.715588 0.534350 0.474831 0.260477
C39   C     C_R   0.748605 0.922620 0.576032 0.039878
C40   C     C_R   0.230494 0.877697 0.646771 0.541753
C41   C     C_R   0.255138 0.953160 0.431185 0.025400
C42   C     C_R   0.248609 0.422629 0.576031 0.039912
C43   C     C_R   0.755135 0.453153 0.431185 0.024784
C44   C     C_R   0.454051 0.083420 0.947205 0.224844
C45   C     C_R   0.446111 0.074695 0.020424 0.220590
C46   C     C_R   0.949616 0.579355 0.942904 0.230594
C47   C     C_R   0.937230 0.571045 0.015723 0.213350
C48   C     C_R   0.473998 0.166029 0.066067 -0.041047
C49   C     C_R   0.493393 0.179177 0.919727 -0.047588
C50   C     C_R   0.958924 0.665000 0.062511 -0.046779
C51   C     C_R   0.771972 0.873545 0.355396 0.549481
C52   C     C_R   0.989240 0.676981 0.917529 -0.042428
C53   C     C_R   0.500622 0.275475 0.036986 0.200457
C54   C     C_R   0.507327 0.284110 0.962091 0.208216
C55   C     C_R   0.989610 0.773249 0.034890 0.208173
C56   C     C_R   0.999917 0.781944 0.960376 0.207386
C57   C     C_R   0.530511 0.155551 0.647697 0.542492
C58   C     C_R   0.435802 0.150680 0.361067 0.552630
C59   C     C_R   0.030502 0.655550 0.647705 0.541637
C60   C     C_R   0.935799 0.650679 0.361068 0.554621
C61   C     C_R   0.811375 0.894291 0.953483 -0.161269
C62   C     C_3   0.581164 0.258171 0.428309 -0.264762
C63   C     C_R   0.238994 0.029115 0.023243 -0.123080
C64   C     C_R   0.312681 0.388153 0.951965 -0.157289
C65   C     C_R   0.744191 0.544734 0.023413 -0.127113
C66   C     C_R   0.817707 0.881996 0.026125 -0.191723
C67   C     C_R   0.229308 0.999878 0.952758 -0.206283
C68   C     C_R   0.319515 0.375076 0.024757 -0.182629
C69   C     C_R   0.738299 0.523583 0.951300 -0.211185
C70   C     C_R   0.759876 0.892963 0.070766 0.044809
C71   C     C_R   0.237195 0.878147 0.931122 0.030929
C72   C     C_R   0.261662 0.387694 0.069556 0.048473
C73   C     C_3   0.605073 0.262303 0.505486 -0.275310
C74   C     C_R   0.748803 0.405200 0.925610 0.036004
C75   C     C_R   0.692847 0.897559 0.041318 0.253782
C76   C     C_R   0.263485 0.789328 0.978740 0.268480
C77   C     C_R   0.194562 0.393205 0.040319 0.255183
C78   C     C_R   0.770173 0.309666 0.972266 0.291314
C79   C     C_R   0.686274 0.915572 0.968167 -0.102576
C80   C     C_R   0.267561 0.817323 0.050906 -0.078743
C81   C     C_R   0.187723 0.411355 0.967336 -0.098926
C82   C     C_R   0.769436 0.329804 0.045280 -0.068664
C83   C     C_R   0.746304 0.919993 0.924904 0.008599
C84   C     C_3   0.081081 0.758401 0.428346 -0.263677
C85   C     C_R   0.252380 0.936300 0.072915 0.046214
C86   C     C_R   0.247445 0.415686 0.923794 0.014364
C87   C     C_R   0.754540 0.446540 0.070548 0.044319
C88   C     C_R   0.740979 0.969062 0.647651 0.566654
C89   C     C_R   0.260782 0.978295 0.355650 0.554341
C90   C     C_R   0.240978 0.469070 0.647648 0.567588
C91   C     C_R   0.760781 0.478292 0.355649 0.555867
C92   C     C_R   0.729258 0.375678 0.853218 0.532319
C93   C     C_R   0.272985 0.371225 0.145049 0.577466
C94   C     C_R   0.216015 0.842116 0.860417 0.566919
C95   C     C_3   0.104992 0.762517 0.505521 -0.275909
C96   C     C_R   0.771938 0.873832 0.145941 0.568090
C97   C     C_R   0.530908 0.159600 0.852645 0.568066
C98   C     C_R   0.460894 0.156358 0.142635 0.628102
C99   C     C_R   0.030654 0.659234 0.852536 0.560913
C100  C     C_R   0.940036 0.654113 0.138332 0.615277
C101  C     C_R   0.740603 0.970183 0.853947 0.571313
C102  C     C_R   0.259120 0.971887 0.145821 0.558914
C103  C     C_R   0.241012 0.468814 0.853441 0.567903
C104  C     C_R   0.759545 0.474028 0.144924 0.552746
C105  C     C_R   0.458260 0.155968 0.434438 0.011928
C106  C     C_R   0.688870 0.919603 0.532194 -0.179869
C107  C     C_R   0.502880 0.162540 0.576415 0.038088
C108  C     C_R   0.958252 0.655964 0.434444 0.010731
C109  C     C_R   0.002867 0.662536 0.576425 0.038407
C110  C     C_R   0.528779 0.165693 0.450879 0.029651
C111  C     C_R   0.550473 0.169478 0.520675 -0.004567
C112  C     C_R   0.028759 0.665815 0.450891 0.030207
C113  C     C_R   0.050451 0.669594 0.520688 -0.004165
C114  C     C_R   0.433322 0.133827 0.560780 -0.111557
C115  C     C_R   0.410892 0.131922 0.489586 -0.162656
C116  C     C_R   0.933331 0.633699 0.560783 -0.111962
Cr1   Cr    Cr6+3 0.771950 0.169480 0.750100 1.037780
Cr2   Cr    Cr6+3 0.383410 0.010620 0.249390 1.021196
Cr3   Cr    Cr6+3 0.116590 0.510620 0.750610 1.012727
Cr4   Cr    Cr6+3 0.883410 0.510620 0.249390 1.019606
Cr5   Cr    Cr6+3 0.228050 0.169480 0.249900 1.041696
Cr6   Cr    Cr6+3 0.271950 0.669480 0.750100 1.035669
Cr7   Cr    Cr6+3 0.728050 0.669480 0.249900 1.036862
Cr8   Cr    Cr6+3 0.614930 0.323340 0.749170 1.029987
Cr9   Cr    Cr6+3 0.385070 0.323340 0.250830 0.998525
Cr10  Cr    Cr6+3 0.114930 0.823340 0.749170 1.021382
Cr11  Cr    Cr6+3 0.885070 0.823340 0.250830 0.996823
Cr12  Cr    Cr6+3 0.616590 0.010620 0.750610 1.018601
H1    H     H_    0.396448 0.116779 0.603094 0.131034
H2    H     H_    0.158295 0.724395 0.513512 0.148525
H3    H     H_    0.556569 0.344929 0.409577 0.142474
H4    H     H_    0.658359 0.224096 0.513489 0.148753
H5    H     H_    0.620943 0.218200 0.391958 0.150041
H6    H     H_    0.594574 0.351698 0.532109 0.144248
H7    H     H_    0.120878 0.718542 0.391984 0.151357
H8    H     H_    0.094450 0.851867 0.532169 0.144064
H9    H     H_    0.872049 0.878947 0.451033 0.130546
H10   H     H_    0.188248 0.081394 0.581898 0.131459
H11   H     H_    0.372057 0.379054 0.451021 0.130616
H12   H     H_    0.356627 0.115818 0.477724 0.122871
H13   H     H_    0.688249 0.581398 0.581898 0.130944
H14   H     H_    0.857320 0.889708 0.920238 0.151175
H15   H     H_    0.236826 0.124320 0.038842 0.116869
H16   H     H_    0.358450 0.383723 0.918427 0.141546
H17   H     H_    0.741963 0.637993 0.042326 0.116420
H18   H     H_    0.867543 0.860581 0.048111 0.124966
H19   H     H_    0.214586 0.071518 0.915611 0.119385
H20   H     H_    0.369793 0.353122 0.046474 0.125207
H21   H     H_    0.724789 0.598510 0.915896 0.106319
H22   H     H_    0.647453 0.700020 0.091099 0.158832
H23   H     H_    0.896473 0.616551 0.603094 0.128792
H24   H     H_    0.583276 0.753840 0.027225 0.073569
H25   H     H_    0.568604 0.758536 0.122388 0.114548
H26   H     H_    0.379811 0.661310 0.007954 0.076649
H27   H     H_    0.380472 0.759986 0.928597 0.166465
H28   H     H_    0.378408 0.598513 0.920711 0.164170
H29   H     H_    0.147420 0.198355 0.093737 0.161996
H30   H     H_    0.086288 0.250141 0.026327 0.070310
H31   H     H_    0.067425 0.260116 0.120481 0.114403
H32   H     H_    0.879303 0.168709 0.004858 0.080869
H33   H     H_    0.887410 0.263469 0.924350 0.170874
H34   H     H_    0.856652 0.615608 0.477720 0.122829
H35   H     H_    0.878488 0.102922 0.918317 0.163435
H36   H     H_    0.637115 0.932887 0.553898 0.147289
H37   H     H_    0.326929 0.799025 0.429000 0.134489
H38   H     H_    0.137113 0.432818 0.553903 0.147391
H39   H     H_    0.826928 0.299022 0.429002 0.134502
H40   H     H_    0.649495 0.907980 0.425611 0.137776
H41   H     H_    0.320527 0.762995 0.556711 0.148180
H42   H     H_    0.149491 0.407924 0.425616 0.138292
H43   H     H_    0.820533 0.263004 0.556715 0.148141
H44   H     H_    0.910223 0.065723 0.547217 0.099452
H45   H     H_    0.634737 0.931879 0.946242 0.148831
H46   H     H_    0.959425 0.925198 0.527268 0.107425
H47   H     H_    0.963907 0.993807 0.613435 0.148047
H48   H     H_    0.099896 0.167833 0.516689 0.101943
H49   H     H_    0.087226 0.040267 0.454932 0.095759
H50   H     H_    0.082129 0.195422 0.424704 0.139866
H51   H     H_    0.410301 0.565653 0.546903 0.099518
H52   H     H_    0.459510 0.424949 0.527292 0.107515
H53   H     H_    0.463908 0.494108 0.613345 0.147996
H54   H     H_    0.599862 0.667711 0.516675 0.101949
H55   H     H_    0.587231 0.540207 0.454867 0.095772
H56   H     H_    0.283898 0.748015 0.088863 0.113800
H57   H     H_    0.582122 0.695396 0.424695 0.139734
H58   H     H_    0.404944 0.095654 0.812058 0.116794
H59   H     H_    0.341095 0.110744 0.882980 0.108606
H60   H     H_    0.347365 0.973295 0.830554 0.164213
H61   H     H_    0.495014 0.899707 0.087811 0.169896
H62   H     H_    0.465208 0.838036 0.003974 0.123418
H63   H     H_    0.419455 0.806837 0.086030 0.106769
H64   H     H_    0.915570 0.579710 0.802019 0.124579
H65   H     H_    0.843966 0.594795 0.863996 0.100253
H66   H     H_    0.860055 0.454218 0.816005 0.146567
H67   H     H_    0.136124 0.428888 0.945865 0.149088
H68   H     H_    0.998892 0.411019 0.082346 0.181639
H69   H     H_    0.971058 0.336078 0.001664 0.123947
H70   H     H_    0.929591 0.303115 0.085686 0.104744
H71   H     H_    0.518283 0.547159 0.103601 0.094508
H72   H     H_    0.448220 0.456793 0.132185 0.179783
H73   H     H_    0.457669 0.492405 0.038659 0.115963
H74   H     H_    0.592725 0.514823 0.903503 0.154892
H75   H     H_    0.618541 0.391077 0.963514 0.151530
H76   H     H_    0.567704 0.523654 0.991135 0.110041
H77   H     H_    0.021609 0.040105 0.101163 0.095798
H78   H     H_    0.782053 0.255797 0.081680 0.113896
H79   H     H_    0.949760 0.960962 0.136030 0.177342
H80   H     H_    0.953702 0.993395 0.041779 0.109305
H81   H     H_    0.085598 0.004970 0.898908 0.163114
H82   H     H_    0.104868 0.903189 0.973142 0.153743
H83   H     H_    0.050232 0.039854 0.980491 0.090519
H84   H     H_    0.056431 0.845117 0.409639 0.142573
O1    O     O_R   0.787510 0.042610 0.670410 -0.480673
O2    O     O_R   0.454250 0.051070 0.169440 -0.490492
O3    O     O_R   0.045750 0.551070 0.830560 -0.493374
O4    O     O_R   0.954250 0.551070 0.169440 -0.484426
O5    O     O_R   0.681210 0.959150 0.825320 -0.521740
O6    O     O_R   0.318790 0.959150 0.174680 -0.480928
O7    O     O_R   0.181210 0.459150 0.825320 -0.522398
O8    O     O_R   0.818790 0.459150 0.174680 -0.491535
O9    O     O_3   0.667820 0.167810 0.749960 -0.257549
O10   O     O_3   0.332180 0.167810 0.250040 -0.292601
O11   O     O_3   0.167820 0.667810 0.749960 -0.269912
O12   O     O_R   0.212490 0.042610 0.329590 -0.462305
O13   O     O_3   0.832180 0.667810 0.250040 -0.307107
O14   O     O_R   0.765670 0.292090 0.675090 -0.514648
O15   O     O_R   0.234330 0.292090 0.324910 -0.463573
O16   O     O_R   0.265670 0.792090 0.675090 -0.508289
O17   O     O_R   0.734330 0.792090 0.324910 -0.462799
O18   O     O_R   0.670220 0.409020 0.668560 -0.531064
O19   O     O_R   0.329780 0.409020 0.331440 -0.543220
O20   O     O_R   0.170220 0.909020 0.668560 -0.527915
O21   O     O_R   0.829780 0.909020 0.331440 -0.543306
O22   O     O_R   0.556580 0.251590 0.674980 -0.499473
O23   O     O_R   0.287510 0.542610 0.670410 -0.480198
O24   O     O_R   0.443420 0.251590 0.325020 -0.503660
O25   O     O_R   0.056580 0.751590 0.674980 -0.497996
O26   O     O_R   0.943420 0.751590 0.325020 -0.499735
O27   O     O_R   0.545890 0.049670 0.670030 -0.526795
O28   O     O_R   0.454110 0.049670 0.329970 -0.506435
O29   O     O_R   0.045890 0.549670 0.670030 -0.528036
O30   O     O_R   0.954110 0.549670 0.329970 -0.501817
O31   O     O_R   0.681340 0.957860 0.676500 -0.525053
O32   O     O_R   0.318660 0.957860 0.323500 -0.535334
O33   O     O_R   0.181340 0.457860 0.676500 -0.523264
O34   O     O_R   0.712490 0.542610 0.329590 -0.460907
O35   O     O_R   0.818660 0.457860 0.323500 -0.534057
O36   O     O_R   0.787380 0.044010 0.830940 -0.480871
O37   O     O_R   0.212620 0.044010 0.169060 -0.539500
O38   O     O_R   0.287380 0.544010 0.830940 -0.485830
O39   O     O_R   0.712620 0.544010 0.169060 -0.535177
O40   O     O_R   0.765540 0.293390 0.823910 -0.468757
O41   O     O_R   0.234460 0.293390 0.176090 -0.481850
O42   O     O_R   0.265540 0.793390 0.823910 -0.483745
O43   O     O_R   0.734460 0.793390 0.176090 -0.484826
O44   O     O_R   0.670090 0.410410 0.829090 -0.543472
O45   O     O_R   0.556450 0.252890 0.823790 -0.460883
O46   O     O_R   0.329910 0.410410 0.170910 -0.558746
O47   O     O_R   0.170090 0.910410 0.829090 -0.555014
O48   O     O_R   0.829910 0.910410 0.170910 -0.562995
O49   O     O_3   0.634585 0.891303 0.084162 -0.564647
O50   O     O_3   0.285405 0.676136 0.954516 -0.558198
O51   O     O_3   0.136354 0.389097 0.083344 -0.560550
O52   O     O_3   0.788079 0.194833 0.946919 -0.546647
O53   O     O_3   0.872934 0.902253 0.592520 -0.555749
O54   O     O_3   0.181744 0.135855 0.446154 -0.535152
O55   O     O_3   0.372952 0.402426 0.592512 -0.555660
O56   O     O_R   0.443550 0.252890 0.176210 -0.489998
O57   O     O_3   0.681738 0.635845 0.446156 -0.535132
O58   O     O_3   0.426095 0.993026 0.903834 -0.549089
O59   O     O_3   0.405739 0.981003 0.046836 -0.526424
O60   O     O_3   0.927926 0.484752 0.898680 -0.551709
O61   O     O_3   0.903317 0.469444 0.041510 -0.542698
O62   O     O_3   0.529569 0.363207 0.081911 -0.552426
O63   O     O_3   0.514705 0.396525 0.928079 -0.576227
O64   O     O_3   0.022561 0.854895 0.080871 -0.540033
O65   O     O_3   0.004852 0.894696 0.926210 -0.580643
O66   O     O_R   0.056450 0.752890 0.823790 -0.473002
O67   O     O_R   0.943550 0.752890 0.176210 -0.473413
O68   O     O_R   0.545750 0.051070 0.830560 -0.492858

loop_
_geom_bond_atom_site_label_1
_geom_bond_atom_site_label_2
_ccdc_geom_bond_type
C1    O14   A    
C44   C49   A    
C39   C106  A    
C41   C89   S    
C55   C56   A    
C75   O49   S    
C34   H13   S    
Cr3   O3    S    
Cr3   O7    S    
C51   O17   A    
C102  O37   A    
C79   H45   S    
Cr1   O9    S    
Cr8   O44   S    
C88   O31   A    
C47   O61   S    
C6    H31   S    
C8    H47   S    
C97   O45   A    
C84   H7    S    
C71   C94   S    
C53   C54   A    
Cr12  O27   S    
C32   H10   S    
C7    H33   S    
Cr10  O25   S    
C55   O64   S    
C84   C112  S    
Cr10  O47   S    
C17   H72   S    
C10   H51   S    
C64   C68   A    
C62   H5    S    
C28   C29   S    
C59   O25   A    
C105  C110  A    
C12   O58   S    
C60   O26   A    
C58   O24   A    
C3    C116  A    
C94   O42   A    
C71   C76   A    
C99   O66   A    
C8    H46   S    
C45   C48   A    
C67   C71   A    
Cr2   O10   S    
C2    C41   A    
C5    H26   S    
C12   H60   S    
C90   O33   A    
C46   C52   A    
Cr4   O8    S    
C9    H48   S    
C37   O55   S    
C20   H83   S    
C74   C92   S    
C37   C42   A    
C110  C111  A    
C104  O8    A    
C15   O60   S    
C76   O50   S    
C93   O46   A    
C109  C116  A    
C21   C43   A    
C15   H66   S    
C61   C66   A    
C95   H8    S    
Cr10  O20   S    
C94   O47   A    
C98   O56   A    
C4    O49   S    
C62   C110  S    
Cr2   O6    S    
C95   H2    S    
Cr5   O10   S    
C9    H50   S    
C62   C73   S    
C73   C111  S    
C6    O51   S    
Cr4   O35   S    
C23   C27   A    
C31   H9    S    
C83   C101  S    
Cr8   O45   S    
Cr7   O43   S    
C81   C86   A    
C60   C108  S    
C109  C113  A    
C22   H40   S    
C25   H43   S    
Cr6   O23   S    
C98   O2    A    
C91   O34   A    
C12   H58   S    
C26   C31   A    
C104  O39   A    
C11   H57   S    
C63   C85   A    
C19   H79   S    
C11   O57   S    
C15   H64   S    
C36   C41   A    
C11   H54   S    
C78   O52   S    
C39   C88   S    
C89   O12   A    
C58   O28   A    
C86   C103  S    
C1    O18   A    
C64   C86   A    
C13   C42   A    
C6    H30   S    
Cr1   O40   S    
Cr2   O32   S    
C57   O22   A    
C47   C50   A    
C63   C67   A    
C92   O40   A    
C48   C53   A    
C4    H24   S    
C91   O35   A    
Cr1   O14   S    
Cr11  O21   S    
C10   O55   S    
C30   C34   A    
C24   C28   A    
C69   C74   A    
C11   H55   S    
C20   O65   S    
C29   O19   A    
C18   H74   S    
C88   O1    A    
C102  O6    A    
Cr10  O11   S    
C54   O63   S    
C8    O53   S    
C7    H32   S    
C64   H16   S    
C22   C106  A    
C12   H59   S    
C7    H35   S    
Cr9   O46   S    
C33   C37   A    
C38   C43   A    
C108  C112  A    
C13   C24   A    
C42   C90   S    
C84   C95   S    
C14   H62   S    
C40   O16   A    
C19   H77   S    
C70   C96   S    
C107  C114  A    
Cr7   O39   S    
C80   C85   A    
C16   H68   S    
C101  O5    A    
Cr6   O38   S    
Cr10  O66   S    
C19   H80   S    
C78   C82   A    
Cr7   O34   S    
Cr5   O37   S    
C19   O64   S    
Cr7   O17   S    
C77   C81   A    
C27   C40   S    
C68   C72   A    
Cr6   O16   S    
C96   O48   A    
Cr3   O11   S    
C82   C87   A    
C89   O32   A    
C7    O52   S    
Cr2   O2    S    
Cr4   O30   S    
C20   H81   S    
C35   O53   S    
C65   C87   A    
C17   H73   S    
Cr3   O29   S    
C2    H37   S    
C57   O27   A    
C8    H44   S    
C27   C32   A    
C72   C93   S    
C92   O44   A    
C36   O54   S    
C53   O62   S    
C3    H34   S    
C28   C33   A    
C106  H36   S    
Cr6   O11   S    
Cr9   O56   S    
C67   H19   S    
C5    O50   S    
C114  H1    S    
C31   C35   A    
C40   O20   A    
C29   O15   A    
C65   H17   S    
C20   H82   S    
C32   C36   A    
C82   H78   S    
C6    H29   S    
C16   H70   S    
C44   C45   A    
C44   O58   S    
C18   O63   S    
Cr1   O36   S    
Cr2   O28   S    
C25   C30   A    
C45   O59   S    
C21   C25   A    
C46   C47   A    
C100  O4    A    
C46   O60   S    
C77   O51   S    
C57   C107  S    
C56   O65   S    
C34   C38   A    
C103  O38   A    
C107  C111  A    
C62   H3    S    
C97   O68   A    
C17   O62   S    
C4    H25   S    
C76   C80   A    
C96   O43   A    
C14   H63   S    
C16   O61   S    
Cr9   O19   S    
C68   H20   S    
Cr12  O9    S    
Cr6   O42   S    
C72   C77   A    
C18   H76   S    
C84   H84   S    
Cr9   O10   S    
C114  C115  A    
C14   H61   S    
Cr7   O13   S    
C61   C83   A    
C3    C108  A    
Cr4   O4    S    
C5    H28   S    
C4    H22   S    
C9    O54   S    
C74   C78   A    
C52   C99   S    
C60   O30   A    
C50   C55   A    
C21   H39   S    
C105  C115  A    
C59   O29   A    
C93   O41   A    
C10   H52   S    
C24   H42   S    
C58   C105  S    
Cr5   O41   S    
Cr8   O22   S    
C81   H67   S    
C100  O67   A    
Cr9   O24   S    
C5    H27   S    
C26   C51   S    
C95   C113  S    
C79   C83   A    
C101  O36   A    
C13   H38   S    
C66   C70   A    
C69   H21   S    
C99   O3    A    
C33   H11   S    
C65   C69   A    
C35   C39   A    
Cr12  O5    S    
C1    C30   S    
C59   C109  S    
Cr5   O12   S    
C90   O23   A    
C17   H71   S    
C112  C113  A    
C48   C98   S    
C80   H56   S    
Cr3   O33   S    
Cr5   O15   S    
C23   H41   S    
C38   O57   S    
C43   C91   S    
C50   C100  S    
C66   H18   S    
C16   H69   S    
C49   C97   S    
C87   C104  S    
C15   H65   S    
C52   C56   A    
C61   H14   S    
Cr1   O1    S    
C51   O21   A    
C73   H6    S    
C70   C75   A    
Cr11  O26   S    
C22   C26   A    
C2    C23   A    
Cr11  O13   S    
C10   H53   S    
C63   H15   S    
Cr11  O48   S    
Cr12  O31   S    
C73   H4    S    
C9    H49   S    
Cr11  O67   S    
C115  H12   S    
C75   C79   A    
Cr4   O13   S    
Cr12  O68   S    
C116  H23   S    
Cr8   O18   S    
C85   C102  S    
C49   C54   A    
C18   H75   S    
C103  O7    A    
Cr8   O9    S    
C14   O59   S    
