data_mof_unit_15009.cif
_audit_creation_date              2012-12-10T17:59:49-0500
_audit_creation_method            fapswitch 2.2
_symmetry_space_group_name_H-M    P1
_symmetry_Int_Tables_number       1
_space_group_crystal_system       triclinic
_cell_length_a                    10.894915
_cell_length_b                    9.596728
_cell_length_c                    15.875521
_cell_angle_alpha                 89.635368
_cell_angle_beta                  92.801532
_cell_angle_gamma                 88.375969
_cell_volume                      1657.17390957

loop_
_atom_site_label
_atom_site_type_symbol
_atom_type_description
_atom_site_fract_x
_atom_site_fract_y
_atom_site_fract_z
_atom_type_partial_charge
Br1   Br    Br    0.280195 0.700882 0.093979 -0.391059
Br2   Br    Br    0.266918 0.335293 0.108426 -0.368003
Br3   Br    Br    0.394298 0.212099 0.895836 -0.239450
Br4   Br    Br    0.569431 0.804246 0.927618 -0.290573
Br5   Br    Br    0.761853 0.553662 0.909680 -0.313420
Br6   Br    Br    0.676305 0.267327 0.937854 -0.282513
Br7   Br    Br    0.156587 0.230859 0.595471 -0.317594
Br8   Br    Br    0.123240 0.813615 0.493029 -0.419889
C1    C     C_R   0.262788 0.502187 0.506117 0.870044
C2    C     C_R   0.931995 0.616870 0.469423 -0.055381
C3    C     C_R   0.872361 0.493000 0.490011 -0.131325
C4    C     C_R   0.128630 0.506510 0.512946 -0.140493
C5    C     C_R   0.430873 0.077530 0.440580 0.078513
C6    C     C_R   0.433325 0.928783 0.438926 0.064465
C7    C     C_R   0.499619 0.500400 0.340413 0.822892
C8    C     C_R   0.569490 0.922455 0.559297 0.073332
C9    C     C_R   0.567374 0.071227 0.560788 0.074485
C10   C     C_R   0.737520 0.497676 0.495261 0.853196
C11   C     C_R   0.500283 0.499643 0.659564 0.798937
C12   C     C_3   0.622682 0.460517 0.957161 0.466062
C13   C     C_3   0.439474 0.648934 0.048050 -0.033150
C14   C     C_3   0.412194 0.381192 0.045774 0.012545
C15   C     C_3   0.389541 0.398528 0.947662 0.077696
C16   C     C_3   0.450898 0.658507 0.948796 0.032821
C17   C     C_1   0.497710 0.499416 0.748878 0.002288
C18   C     C_3   0.489520 0.504240 0.082801 -0.013982
C19   C     C_3   0.489654 0.504799 0.916206 -0.117332
C20   C     C_2   0.336677 0.721065 0.901146 0.515246
C21   C     C_2   0.258483 0.448456 0.923756 0.476745
C22   C     C_2   0.654660 0.844616 0.618738 0.516394
C23   C     C_3   0.623032 0.484479 0.053731 -0.503368
C24   C     C_2   0.635785 0.142227 0.630477 0.460818
C25   C     C_2   0.890074 0.233345 0.525196 0.472443
C26   C     C_2   0.866433 0.732329 0.420850 0.529607
C27   C     C_2   0.346434 0.155306 0.380604 0.551448
C28   C     C_2   0.366262 0.857894 0.368542 0.490567
C29   C     C_1   0.494336 0.501262 0.824162 0.192544
C30   C     C_1   0.494345 0.502439 0.175266 0.123846
C31   C     C_1   0.497440 0.501414 0.250837 -0.061120
C32   C     C_R   0.069367 0.383296 0.534458 0.230812
C33   C     C_R   0.057588 0.627794 0.489408 0.155793
C34   C     C_R   0.942993 0.373230 0.517798 -0.096377
Cu1   Cu    Cu3+1 0.500020 0.640660 0.500000 1.020477
Cu2   Cu    Cu3+1 0.500020 0.359340 0.500000 1.019936
H1    H     H_    0.470109 0.284937 0.057077 0.209646
H2    H     H_    0.883479 0.840485 0.435336 0.151000
H3    H     H_    0.379279 0.194578 0.321900 0.096915
H4    H     H_    0.315003 0.765689 0.379197 0.137643
H5    H     H_    0.499165 0.728747 0.077928 0.219927
H6    H     H_    0.676491 0.578148 0.070857 0.237571
H7    H     H_    0.670644 0.395754 0.088459 0.225624
H8    H     H_    0.252705 0.746403 0.931733 0.129643
H9    H     H_    0.199717 0.493874 0.969913 0.136148
H10   H     H_    0.622455 0.804367 0.677394 0.130231
H11   H     H_    0.686409 0.234540 0.619285 0.082531
H12   H     H_    0.901354 0.174988 0.583945 0.108709
N1    N     N_R   0.500030 0.852070 0.500020 -0.238738
N2    N     N_R   0.500030 0.147930 0.500020 -0.234983
O1    O     O_R   0.319660 0.618740 0.500000 -0.581613
O2    O     O_2   0.218445 0.444954 0.850533 -0.459126
O3    O     O_2   0.763853 0.834329 0.605222 -0.539947
O4    O     O_2   0.633815 0.099249 0.702967 -0.481571
O5    O     O_2   0.839262 0.179151 0.463985 -0.497107
O6    O     O_2   0.794443 0.706798 0.361932 -0.520451
O7    O     O_2   0.237152 0.166498 0.393652 -0.479353
O8    O     O_2   0.369897 0.900897 0.296160 -0.517877
O9    O     O_R   0.319660 0.381260 0.500000 -0.534833
O10   O     O_R   0.500020 0.618840 0.379440 -0.579645
O11   O     O_R   0.500020 0.381160 0.379440 -0.613262
O12   O     O_R   0.680370 0.618830 0.500010 -0.555061
O13   O     O_R   0.680370 0.381170 0.500010 -0.598990
O14   O     O_R   0.500010 0.618730 0.620560 -0.598800
O15   O     O_R   0.500010 0.381270 0.620560 -0.579292
O16   O     O_2   0.337229 0.745172 0.825485 -0.463863

loop_
_geom_bond_atom_site_label_1
_geom_bond_atom_site_label_2
_ccdc_geom_bond_type
Br2   C14   S    
Br7   C32   S    
C1    O9    A    
C3    C10   S    
C10   O12   A    
C4    C33   A    
C26   H2    S    
C12   C19   S    
C15   C19   S    
Br6   C12   S    
C24   H11   S    
Br3   C15   S    
C21   O2    D    
Cu1   O1    S    
C9    N2    A    
C25   O5    D    
C16   C19   S    
C20   O16   D    
C25   H12   S    
C32   C34   A    
C10   O13   A    
C24   O4    D    
Cu2   O11   S    
C2    C26   S    
Br5   C12   S    
C5    C6    A    
C2    C33   A    
Br1   C13   S    
C22   H10   S    
C7    C31   S    
C11   O14   A    
Cu1   O14   S    
C21   H9    S    
C19   C29   S    
C7    O11   A    
C25   C34   S    
C15   C21   S    
C13   H5    S    
C13   C18   S    
C26   O6    D    
C28   H4    S    
Cu1   O12   S    
C8    N1    A    
Cu1   Cu2   S    
C6    C28   S    
C30   C31   T    
Br4   C16   S    
C1    C4    S    
C28   O8    D    
C22   O3    D    
C8    C9    A    
C2    C3    A    
Cu1   N1    S    
C11   C17   S    
C8    C22   S    
C16   C20   S    
C11   O15   A    
C14   H1    S    
Br8   C33   S    
Cu2   O13   S    
C14   C18   S    
C13   C16   S    
Cu2   N2    S    
Cu2   O15   S    
C9    C24   S    
C6    N1    A    
C27   O7    D    
C14   C15   S    
C18   C30   S    
Cu2   O9    S    
C20   H8    S    
C3    C34   A    
C23   H6    S    
C17   C29   T    
C27   H3    S    
C18   C23   S    
C5    C27   S    
C5    N2    A    
C7    O10   A    
C23   H7    S    
Cu1   O10   S    
C1    O1    A    
C12   C23   S    
C4    C32   A    
