data_mof_unit_66821.cif
_audit_creation_date              2013-03-05T15:41:44-0500
_audit_creation_method            fapswitch 2.2
_symmetry_space_group_name_H-M    P1
_symmetry_Int_Tables_number       1
_space_group_crystal_system       triclinic
_cell_length_a                    8.693385
_cell_length_b                    15.229957
_cell_length_c                    15.368486
_cell_angle_alpha                 96.752585
_cell_angle_beta                  100.612651
_cell_angle_gamma                 98.619963
_cell_volume                      1955.19633904

loop_
_atom_site_label
_atom_site_type_symbol
_atom_site_description
_atom_site_fract_x
_atom_site_fract_y
_atom_site_fract_z
_atom_type_partial_charge
P1    P     P_3+3 0.004200 0.709230 0.580350 0.631234
O1    O     O_2   0.174080 0.723060 0.553930 -0.365139
O2    O     O_3   0.901570 0.609580 0.550840 -0.276277
O3    O     O_3   0.370350 0.665080 0.388270 -0.295292
O4    O     O_2   0.339909 0.815903 0.470820 -0.266800
O5    O     O_3   0.030218 0.760793 0.694506 -0.579028
O6    O     O_3   0.332966 0.821218 0.302635 -0.476668
C1    C     C_3   0.366347 0.867129 0.157632 0.571312
P2    P     P_3+3 0.305000 0.425570 0.290900 0.654538
P3    P     P_3+3 0.877026 0.608944 0.224290 0.712616
O7    O     O_2   0.134790 0.452800 0.278150 -0.318285
O8    O     O_3   0.937650 0.618620 0.340860 -0.337427
O9    O     O_2   0.990609 0.554875 0.183852 -0.198722
O10   O     O_3   0.275807 0.307454 0.275544 -0.537221
O11   O     O_3   0.925122 0.716143 0.194402 -0.437188
C2    C     C_3   0.872871 0.780773 0.250262 0.825526
H1    H     H_    0.767078 0.752672 0.275322 -0.036688
C3    C     C_3   0.830770 0.857037 0.199647 -0.571349
H2    H     H_    0.937116 0.897105 0.184810 0.309289
H3    H     H_    0.745999 0.830208 0.136008 0.262645
C4    C     C_3   0.639156 0.273310 0.250680 0.648412
H4    H     H_    0.593164 0.334533 0.268978 0.041296
C5    C     C_3   0.658796 0.264576 0.152616 0.340914
H5    H     H_    0.708356 0.203086 0.136093 0.188318
Ba1   Ba    Ba6+2 0.154730 0.543770 0.458180 1.872546
C6    C     C_3   0.077436 0.712469 0.764196 0.815447
C7    C     C_3   0.082323 0.764637 0.859326 0.754539
C8    C     C_3   0.125624 0.266725 0.285778 0.157453
H6    H     H_    0.030762 0.294376 0.245788 0.185025
H7    H     H_    0.120182 0.276607 0.357707 0.043455
C9    C     C_3   0.104306 0.165998 0.250196 0.455723
H8    H     H_    0.215567 0.142615 0.275153 0.174063
P4    P     P_3+3 0.806080 0.290760 0.419570 0.596649
O12   O     O_2   0.636200 0.276890 0.446040 -0.345069
O13   O     O_3   0.908720 0.390410 0.449080 -0.268228
O14   O     O_3   0.439930 0.334910 0.611650 -0.316081
O15   O     O_3   0.788721 0.273340 0.302954 -0.617240
P5    P     P_3+3 0.929346 0.391053 0.774949 0.681448
O16   O     O_3   0.402060 0.547860 0.609750 -0.324292
O17   O     O_3   0.872630 0.381370 0.659060 -0.319648
O18   O     O_2   0.800160 0.434221 0.809757 -0.228670
O19   O     O_3   0.888872 0.282532 0.800238 -0.414849
Ba2   Ba    Ba6+2 0.655430 0.456220 0.541750 1.845989
P6    P     P_3+3 0.428386 0.782162 0.399097 0.640640
C10   C     C_3   0.416300 0.809833 0.232720 0.598610
H9    H     H_    0.544806 0.833925 0.259537 -0.194299
O20   O     O_3   0.408220 0.452130 0.390170 -0.292922
C11   C     C_3   0.551554 0.737326 0.687662 0.506429
H10   H     H_    0.427298 0.726574 0.651539 0.110861
C12   C     C_3   0.607806 0.839481 0.722027 0.886597
P7    P     P_3+3 0.506392 0.571315 0.724510 0.688810
O21   O     O_2   0.675490 0.547140 0.721820 -0.234611
O22   O     O_3   0.566330 0.687605 0.759559 -0.453632
H11   H     H_    0.778278 0.903986 0.241239 0.217080
C13   C     C_3   0.001563 0.234856 0.772992 0.119807
H12   H     H_    0.008000 0.240031 0.702128 0.027840
H13   H     H_    0.119326 0.262323 0.817171 0.013560
C14   C     C_3   0.955989 0.135299 0.780086 0.557423
H14   H     H_    0.030835 0.095952 0.745978 -0.000266
P8    P     P_3+3 0.388516 0.217107 0.600476 0.605274
C15   C     C_3   0.385119 0.213931 0.764650 0.177441
H15   H     H_    0.259815 0.182453 0.739776 -0.080475
O23   O     O_2   0.483391 0.178811 0.534070 -0.303522
O24   O     O_3   0.474535 0.186976 0.702482 -0.435816
H16   H     H_    0.394802 0.288384 0.774480 0.049674
H17   H     H_    0.366501 0.211555 0.900955 0.072478
C16   C     C_3   0.439991 0.185147 0.855836 0.520890
C17   C     C_R   0.168915 0.172424 0.558467 0.047927
C18   C     C_R   0.099423 0.080026 0.552257 -0.097596
C19   C     C_R   0.963717 0.891797 0.533485 -0.017571
C20   C     C_R   0.113068 0.927673 0.587488 0.055439
C21   C     C_R   0.179502 0.019010 0.596143 0.009171
C22   C     C_R   0.903202 0.796150 0.516363 0.325662
H18   H     H_    0.180352 0.884887 0.623379 0.205960
H19   H     H_    0.296520 0.041162 0.637229 0.230235
C23   C     C_R   0.751482 0.768850 0.459653 -0.359573
C24   C     C_R   0.916059 0.204969 0.477165 0.129307
C25   C     C_R   0.850784 0.110985 0.467914 -0.091671
C26   C     C_R   0.941001 0.048627 0.505520 0.124138
C27   C     C_R   0.692230 0.078793 0.429106 0.001813
C28   C     C_R   0.618163 0.991300 0.429680 0.333892
C29   C     C_R   0.709293 0.924574 0.454894 -0.156885
C30   C     C_R   0.872290 0.954408 0.495971 0.102903
C31   C     C_R   0.646671 0.830170 0.440176 0.152549
C32   C     C_R   0.071528 0.233654 0.528000 0.078967
H20   H     H_    0.616186 0.124089 0.408384 0.212508
H21   H     H_    0.705433 0.697698 0.441134 0.197657
C33   C     C_R   0.237132 0.476963 0.769798 -0.457746
C34   C     C_R   0.135696 0.452063 0.826550 0.086249
C35   C     C_R   0.192173 0.474610 0.919870 0.457859
C36   C     C_R   0.359711 0.494807 0.956149 -0.089873
C37   C     C_R   0.462548 0.506270 0.893165 0.187380
C38   C     C_R   0.398107 0.511193 0.802368 0.146504
C39   C     C_R   0.578807 0.561535 0.096292 0.376721
C40   C     C_R   0.665321 0.551576 0.180817 0.078879
C41   C     C_R   0.420734 0.469945 0.209551 0.061470
C42   C     C_R   0.353689 0.455661 0.116908 0.372087
C43   C     C_R   0.428758 0.505056 0.057416 -0.035037
C44   C     C_R   0.583628 0.506659 0.237859 0.063032
H22   H     H_    0.187116 0.475933 0.700158 0.239946
N1    N     N_R   0.392336 0.714809 0.197820 0.222208
O25   O     O_R   0.488852 0.668913 0.238126 -0.530209
O26   O     O_R   0.254956 0.672435 0.152146 -0.251044
N2    N     N_R   0.507845 0.258049 0.089958 0.240460
O27   O     O_R   0.405749 0.183343 0.072580 -0.225510
O28   O     O_R   0.490493 0.317582 0.036801 -0.367995
Cl1   Cl    Cl    0.800736 0.356828 0.137965 -0.478660
Cl2   Cl    Cl    0.265525 0.695982 0.766025 -0.627444
Cl3   Cl    Cl    0.974736 0.603825 0.746471 -0.525170
Cl4   Cl    Cl    0.231969 0.864490 0.883309 -0.289131
Cl5   Cl    Cl    0.134649 0.694502 0.941329 -0.369991
N3    N     N_R   0.931480 0.790074 0.871645 0.241758
O29   O     O_R   0.928738 0.871948 0.906430 -0.173588
O30   O     O_R   0.816884 0.727876 0.878006 -0.225945
Cl6   Cl    Cl    0.158091 0.837056 0.110901 -0.368182
Cl7   Cl    Cl    0.066310 0.147979 0.130647 -0.283350
N4    N     N_R   0.979295 0.111040 0.281111 0.190839
O31   O     O_R   0.016211 0.047576 0.326382 -0.384138
O32   O     O_R   0.831372 0.108238 0.244562 -0.324477
N5    N     N_R   0.453820 0.854652 0.085202 0.219596
O33   O     O_R   0.437421 0.776461 0.037916 -0.250431
O34   O     O_R   0.535005 0.923033 0.060531 -0.198547
Cl8   Cl    Cl    0.647239 0.696145 0.605830 -0.618688
Cl9   Cl    Cl    0.586085 0.868703 0.834384 -0.230656
Cl10  Cl    Cl    0.806347 0.882073 0.714954 -0.549294
Cl11  Cl    Cl    0.490488 0.901780 0.657346 -0.542616
N6    N     N_R   0.401689 0.961794 0.195572 0.262801
O35   O     O_R   0.547557 0.997561 0.233155 -0.355066
O36   O     O_R   0.299057 0.013818 0.174827 -0.203699
N7    N     N_R   0.790301 0.101589 0.736267 0.284070
O37   O     O_R   0.744436 0.102534 0.651011 -0.381170
O38   O     O_R   0.689664 0.065552 0.780266 -0.195382
Cl12  Cl    Cl    0.993417 0.119237 0.895148 -0.293184
Cl13  Cl    Cl    0.643336 0.233596 0.900324 -0.339632
Cl14  Cl    Cl    0.028604 0.828455 0.342214 -0.534457
N8    N     N_R   0.416962 0.087589 0.852570 0.292214
O39   O     O_R   0.291803 0.037304 0.800961 -0.362095
O40   O     O_R   0.493188 0.054339 0.918412 -0.137974
N9    N     N_R   0.451814 0.981119 0.427691 0.265893
O41   O     O_R   0.411551 0.987810 0.504658 -0.315421
O42   O     O_R   0.358325 0.005751 0.362475 -0.297426
Cl15  Cl    Cl    0.139866 0.348626 0.562908 -0.619915
Cl16  Cl    Cl    0.647666 0.655646 0.049136 -0.425808
Cl17  Cl    Cl    0.050669 0.496224 0.985070 -0.308109
Cl18  Cl    Cl    0.199076 0.361224 0.078114 -0.411116
N10   N     N_R   0.627968 0.502998 0.918887 0.264623
O43   O     O_R   0.734621 0.564689 0.902653 -0.195487
O44   O     O_R   0.673508 0.440482 0.962980 -0.252999
Cl19  Cl    Cl    0.686393 0.498776 0.345589 -0.531727
Cl20  Cl    Cl    0.504026 0.180517 0.263244 -0.517176

loop_
_geom_bond_atom_site_label_1
_geom_bond_atom_site_label_2
_geom_bond_distance
_ccdc_geom_bond_type
O16   P7    1.796212 S    
C13   H12   1.112100 S    
N1    O25   1.289372 A    
C15   O24   1.400921 S    
Ba1   Ba2   4.794741 S    
C11   Cl8   1.738732 S    
N2    O28   1.296923 A    
C42   C43   1.436011 A    
P2    Ba1   3.522794 S    
O5    C6    1.404018 S    
C24   C25   1.438755 A    
C44   Cl19  1.757216 S    
P5    C34   1.874388 S    
O2    Ba2   2.892845 S    
C6    C7    1.569833 S    
P8    O23   1.541504 D    
C39   Cl16  1.756355 S    
O6    C10   1.410670 S    
C8    H6    1.101558 S    
P5    O19   1.741727 S    
P3    O11   1.758902 S    
N4    O32   1.297244 A    
C40   C44   1.401976 A    
Ba2   O21   2.907755 S    
O7    Ba1   2.907679 S    
O11   C2    1.411079 S    
C41   C44   1.409179 A    
P1    O1    1.593111 D    
C1    C10   1.564469 S    
N2    O27   1.300818 A    
C27   H20   1.060739 S    
C1    Cl6   1.788418 S    
O17   Ba2   2.826632 S    
C9    N4    1.455482 S    
C9    H8    1.099186 S    
C7    Cl4   1.799860 S    
C17   C18   1.430615 A    
C26   C30   1.448684 A    
C5    H5    1.110149 S    
C19   C20   1.398897 A    
C12   Cl11  1.751293 S    
O13   Ba2   3.059815 S    
Ba1   O20   3.053505 S    
C3    H3    1.103114 S    
C11   C12   1.556331 S    
H17   C16   1.106956 S    
C7    Cl5   1.785275 S    
N1    O26   1.299692 A    
C4    H4    1.095373 S    
P1    Ba1   3.516920 S    
C17   C32   1.413845 A    
C23   C31   1.418576 A    
C15   H15   1.099793 S    
C21   H19   1.076016 S    
N3    O30   1.293875 A    
N3    O29   1.303094 A    
N5    O34   1.302915 A    
C28   C29   1.425266 A    
N10   O44   1.299360 A    
C14   Cl12  1.790624 S    
C11   O22   1.408720 S    
C37   N10   1.429511 S    
P1    O5    1.795100 S    
P4    Ba2   3.517604 S    
O2    Ba1   3.058764 S    
C16   Cl13  1.783828 S    
C12   Cl9   1.783257 S    
P5    O18   1.529579 D    
N8    O40   1.301377 A    
C6    Cl2   1.686794 S    
C36   C37   1.441659 A    
C25   C26   1.427047 A    
C3    H2    1.104695 S    
O16   Ba2   3.052551 S    
O3    P6    1.758263 S    
P6    C31   1.889029 S    
C14   H14   1.107201 S    
C10   H9    1.106567 S    
O6    P6    1.772558 S    
P4    O15   1.755482 S    
P7    O21   1.574586 D    
P1    O2    1.608795 S    
C18   C21   1.404081 A    
N7    O38   1.298126 A    
P2    O10   1.759944 S    
N6    O36   1.300774 A    
O19   C13   1.398264 S    
C15   C16   1.531198 S    
C1    N6    1.454842 S    
C5    N2    1.460196 S    
C6    Cl3   1.723593 S    
C5    Cl1   1.790069 S    
C41   C42   1.413396 A    
C19   C22   1.448140 A    
P4    O12   1.593465 D    
C12   Cl10  1.778130 S    
C4    Cl20  1.750596 S    
C19   C30   1.435645 A    
P2    O7    1.579923 D    
P2    C41   1.868217 S    
C33   H22   1.075811 S    
P3    O8    1.753802 S    
P7    C38   1.889576 S    
C11   H10   1.098443 S    
O4    P6    1.538909 D    
Ba1   O13   2.892131 S    
C7    N3    1.460135 S    
P2    O20   1.593171 S    
C29   C31   1.434656 A    
C4    C5    1.540343 S    
C22   C23   1.413896 A    
C18   C26   1.413786 A    
N6    O35   1.299054 A    
O3    Ba1   2.872615 S    
C9    Cl7   1.786269 S    
N5    O33   1.293827 A    
C1    N5    1.469278 S    
N10   O43   1.297632 A    
C28   N9    1.425370 S    
C33   C38   1.393782 A    
C42   Cl18  1.776063 S    
C8    C9    1.538465 S    
O12   Ba2   2.911832 S    
C27   C28   1.392106 A    
O14   P8    1.762694 S    
P3    O9    1.545558 D    
C32   Cl15  1.748330 S    
C20   H18   1.072826 S    
C23   H21   1.082126 S    
N9    O41   1.291093 A    
O8    Ba1   2.826079 S    
P8    O24   1.751472 S    
P1    C22   1.956239 S    
C13   H13   1.110341 S    
C16   N8    1.462807 S    
C20   C21   1.404873 A    
N4    O31   1.300062 A    
Ba1   O16   2.852013 S    
P5    O17   1.740670 S    
N9    O42   1.298306 A    
P4    C24   1.933779 S    
C35   C36   1.432848 A    
C2    H1    1.108416 S    
P3    C40   1.877435 S    
C14   N7    1.459982 S    
C8    H7    1.108687 S    
C37   C38   1.419822 A    
P4    O13   1.608824 S    
N7    O37   1.299867 A    
O1    Ba1   2.911353 S    
C25   C27   1.386308 A    
C36   C43   1.541912 S    
C39   C40   1.413083 A    
C3    H11   1.107187 S    
P7    O22   1.758990 S    
C24   C32   1.407742 A    
C15   H16   1.114498 S    
C4    O15   1.396771 S    
C33   C34   1.393911 A    
P8    C17   1.891495 S    
C2    C3    1.524198 S    
C29   C30   1.422289 A    
C13   C14   1.530551 S    
C39   C43   1.433227 A    
N8    O39   1.299607 A    
O14   Ba2   2.871875 S    
O10   C8    1.403538 S    
C34   C35   1.410718 A    
C2    Cl14  1.765379 S    
Ba2   O20   2.851490 S    
C35   Cl17  1.767361 S    
C10   N1    1.453074 S    
