data_mof_unit_31607.cif
_audit_creation_date              2012-12-10T16:59:19-0500
_audit_creation_method            fapswitch 2.2
_symmetry_space_group_name_H-M    P1
_symmetry_Int_Tables_number       1
_space_group_crystal_system       triclinic
_cell_length_a                    7.778163
_cell_length_b                    8.588101
_cell_length_c                    27.571997
_cell_angle_alpha                 91.653469
_cell_angle_beta                  86.127296
_cell_angle_gamma                 93.1177
_cell_volume                      1834.28808592

loop_
_atom_site_label
_atom_site_type_symbol
_atom_type_description
_atom_site_fract_x
_atom_site_fract_y
_atom_site_fract_z
_atom_type_partial_charge
C1    C     C_R   0.544509 0.794051 0.497846 0.873592
C2    C     C_R   0.455491 0.205949 0.502154 0.873579
C3    C     C_R   0.557964 0.460240 0.898827 -0.158552
C4    C     C_R   0.441709 0.539704 0.101184 -0.158551
C5    C     C_R   0.666155 0.570713 0.872930 -0.062104
C6    C     C_R   0.333570 0.429202 0.127083 -0.062072
C7    C     C_R   0.781961 0.668083 0.898570 0.232615
C8    C     C_R   0.217718 0.331831 0.101452 0.232576
C9    C     C_R   0.476010 0.335889 0.873587 -0.108370
C10   C     C_R   0.523685 0.664062 0.126422 -0.108403
C11   C     C_R   0.510789 0.490870 0.646893 -0.103263
C12   C     C_R   0.489182 0.509092 0.353107 -0.103251
C13   C     C_R   0.579991 0.632750 0.024288 -0.040585
C14   C     C_R   0.419584 0.367227 0.975721 -0.040582
C15   C     C_R   0.377120 0.400999 0.025544 0.075417
C16   C     C_R   0.622467 0.598971 0.974469 0.075405
C17   C     C_R   0.466915 0.524695 0.050133 0.058912
C18   C     C_R   0.532694 0.475269 0.949878 0.058912
C19   C     C_R   0.635409 0.773997 0.049073 0.065775
C20   C     C_R   0.364152 0.225987 0.950934 0.065780
C21   C     C_R   0.608697 0.786931 0.100108 0.454634
C22   C     C_R   0.390936 0.213042 0.899900 0.454706
C23   C     C_R   0.502106 0.497028 0.594048 0.880898
C24   C     C_R   0.497890 0.502964 0.405952 0.880898
C25   C     C_R   0.764413 0.673697 0.949018 -0.208154
C26   C     C_R   0.235190 0.326261 0.051005 -0.208156
C27   C     C_2   0.562408 0.955539 0.489819 0.207629
C28   C     C_2   0.437592 0.044461 0.510181 0.207627
C29   C     C_R   0.654050 0.577654 0.822631 0.550042
C30   C     C_R   0.345767 0.422246 0.177376 0.550063
C31   C     C_R   0.489036 0.335537 0.822415 0.586988
C32   C     C_R   0.510735 0.664399 0.177593 0.586963
C33   C     C_R   0.383972 0.448372 0.728374 -0.101676
C34   C     C_R   0.615932 0.551570 0.271621 -0.101664
C35   C     C_R   0.365611 0.450595 0.678519 0.140337
C36   C     C_R   0.634333 0.549365 0.321474 0.140319
C37   C     C_R   0.672423 0.520294 0.666105 -0.196322
C38   C     C_R   0.327529 0.479641 0.333903 -0.196300
C39   C     C_R   0.691256 0.506609 0.715397 -0.055210
C40   C     C_R   0.308654 0.493287 0.284613 -0.055243
C41   C     C_R   0.546920 0.472719 0.747061 0.224750
C42   C     C_R   0.452968 0.527190 0.252941 0.224761
H1    H     H_    0.785864 0.551722 0.642798 0.214396
H2    H     H_    0.214101 0.448214 0.357215 0.214399
H3    H     H_    0.818590 0.523029 0.728932 0.188726
H4    H     H_    0.181311 0.476835 0.271083 0.188723
H5    H     H_    0.728407 0.577694 0.247325 0.180550
H6    H     H_    0.271470 0.422265 0.752664 0.180554
H7    H     H_    0.866289 0.732766 0.968150 0.202167
H8    H     H_    0.133267 0.267228 0.031882 0.202162
N1    N     N_R   0.565052 0.461326 0.798366 -0.361173
N2    N     N_R   0.434783 0.538585 0.201640 -0.361179
N3    N     N_2   0.950320 0.457960 0.486880 0.188205
N4    N     N_2   0.049680 0.542040 0.513120 0.188206
O1    O     O_R   0.389250 0.738570 0.503220 -0.577969
O2    O     O_R   0.610750 0.261430 0.496780 -0.577968
O3    O     O_R   0.678390 0.711630 0.494810 -0.592474
O4    O     O_R   0.321610 0.288370 0.505190 -0.592473
O5    O     O_R   0.355440 0.513440 0.575450 -0.607293
O6    O     O_R   0.644560 0.486560 0.424550 -0.607293
O7    O     O_R   0.644590 0.486500 0.567040 -0.586424
O8    O     O_R   0.355410 0.513500 0.432960 -0.586434
O9    O     O_2   0.721225 0.703643 0.798600 -0.501038
O10   O     O_2   0.278664 0.296242 0.201403 -0.501066
O11   O     O_2   0.575401 0.787499 0.203329 -0.451921
O12   O     O_2   0.424372 0.212453 0.796680 -0.451959
Zn1   Zn    Zn3+2 0.306940 0.517990 0.505620 1.097615
Zn2   Zn    Zn3+2 0.693060 0.482010 0.494380 1.097617
O13   O     O_3   0.030676 0.360604 0.455279 -0.639860
H9    H     H_    0.936723 0.306280 0.437839 0.367227
O14   O     O_3   0.969324 0.639396 0.544721 -0.639844
H10   H     H_    0.063277 0.693719 0.562161 0.367232
I1    I     I_    0.002623 0.791923 0.866041 -0.145879
I2    I     I_    0.997080 0.207934 0.133999 -0.145813
I3    I     I_    0.880231 0.628293 0.344452 -0.313669
I4    I     I_    0.119726 0.371692 0.655530 -0.313674
O15   O     O_3   0.666386 0.919357 0.124710 -0.646241
H11   H     H_    0.612683 0.008776 0.110955 0.364958
O16   O     O_3   0.333242 0.080629 0.875298 -0.646187
H12   H     H_    0.386879 0.991159 0.889070 0.364908
I5    I     I_    0.734041 0.985868 0.013863 -0.301658
I6    I     I_    0.265362 0.014129 0.986132 -0.301622
O17   O     O_3   0.692861 0.014908 0.457426 -0.759313
H13   H     H_    0.761812 0.928891 0.443324 0.363684
O18   O     O_3   0.307141 0.985093 0.542576 -0.759310
H14   H     H_    0.238192 0.071111 0.556677 0.363684

loop_
_geom_bond_atom_site_label_1
_geom_bond_atom_site_label_2
_ccdc_geom_bond_type
C31   O12   S    
C29   O9    S    
C30   O10   S    
C8    C26   A    
C14   C18   A    
C34   C42   A    
N3    O13   S    
C7    I1    S    
O18   H14   S    
C40   H4    S    
O8    Zn1   S    
C19   C21   A    
C22   O16   S    
C20   I6    S    
C26   H8    S    
C9    C22   A    
C3    C18   A    
C11   C23   S    
C11   C37   A    
N3    Zn2   S    
C32   N2    A    
O5    Zn1   S    
N4    O14   S    
C12   C36   A    
O15   H11   S    
C39   H3    S    
C40   C42   A    
C5    C29   A    
C10   C21   A    
C35   I4    S    
C13   C19   A    
C14   C20   A    
C4    C6    A    
C5    C7    A    
C15   C26   A    
C6    C8    A    
N4    Zn1   S    
O2    Zn2   S    
C37   H1    S    
C23   O5    A    
C38   H2    S    
C3    C9    A    
C36   I3    S    
C1    O3    A    
O17   H13   S    
C24   O6    A    
C8    I2    S    
O6    Zn2   S    
C4    C17   A    
C6    C30   A    
C20   C22   A    
O3    Zn2   S    
C4    C10   A    
C28   O18   S    
C29   N1    A    
C16   C25   A    
C15   C17   A    
C30   N2    A    
C24   O8    A    
C31   N1    A    
C3    C5    A    
O1    Zn1   S    
C2    O4    A    
N3    N4    D    
C12   C24   S    
C7    C25   A    
C13   C17   A    
C33   C41   A    
C27   O17   S    
C1    O1    A    
O14   H10   S    
C37   C39   A    
C2    O2    A    
C38   C40   A    
O7    Zn2   S    
C11   C35   A    
C33   C35   A    
C34   C36   A    
C12   C38   A    
O13   H9    S    
C25   H7    S    
C9    C31   A    
O16   H12   S    
C10   C32   A    
O4    Zn1   S    
C23   O7    A    
C39   C41   A    
C16   C18   A    
C13   C16   A    
C21   O15   S    
C27   C28   D    
C1    C27   S    
C33   H6    S    
C14   C15   A    
C2    C28   S    
C34   H5    S    
C19   I5    S    
C41   N1    S    
C42   N2    S    
C32   O11   S    
