data_mof_unit_16568.cif
_audit_creation_date              2012-12-10T20:38:24-0500
_audit_creation_method            fapswitch 2.2
_symmetry_space_group_name_H-M    P1
_symmetry_Int_Tables_number       1
_space_group_crystal_system       triclinic
_cell_length_a                    9.888656
_cell_length_b                    10.709136
_cell_length_c                    16.478907
_cell_angle_alpha                 90.673927
_cell_angle_beta                  83.8
_cell_angle_gamma                 89.703606
_cell_volume                      1734.7355466

loop_
_atom_site_label
_atom_site_type_symbol
_atom_type_description
_atom_site_fract_x
_atom_site_fract_y
_atom_site_fract_z
_atom_type_partial_charge
C1    C     C_R   0.498918 0.739398 0.503143 0.950265
C2    C     C_R   0.535278 0.515451 0.258216 -0.167409
C3    C     C_R   0.378979 0.937284 0.502573 0.006984
C4    C     C_R   0.479141 0.505166 0.653637 0.892199
C5    C     C_R   0.495610 0.870423 0.513648 -0.206346
C6    C     C_R   0.611103 0.932831 0.533437 -0.282228
C7    C     C_R   0.619303 0.060755 0.524226 0.465379
C8    C     C_R   0.500972 0.127740 0.508240 -0.218028
C9    C     C_R   0.378960 0.064635 0.504074 0.005529
C10   C     C_3   0.277377 0.073750 0.442837 -0.552459
C11   C     C_3   0.280272 0.931314 0.439399 0.368274
C12   C     C_R   0.367266 0.485628 0.796403 0.347134
C13   C     C_R   0.916598 0.511584 0.571363 -0.031733
C14   C     C_R   0.942240 0.471197 0.430829 0.419368
C15   C     C_R   0.085345 0.475379 0.430674 -0.116850
C16   C     C_R   0.500782 0.259879 0.500333 0.879320
C17   C     C_R   0.058566 0.509605 0.571453 0.055510
C18   C     C_3   0.058294 0.608919 0.635530 0.227464
C19   C     C_3   0.903973 0.616575 0.633006 0.240211
C20   C     C_R   0.520461 0.500768 0.346131 0.894270
C21   C     C_R   0.459875 0.546485 0.738440 -0.209649
C22   C     C_R   0.519678 0.660570 0.758624 0.411496
C23   C     C_R   0.435073 0.501335 0.131077 0.523713
C24   C     C_R   0.496296 0.707274 0.838483 -0.362485
C25   C     C_R   0.410774 0.643747 0.896488 -0.128734
C26   C     C_R   0.342748 0.536360 0.874740 -0.133585
C27   C     C_3   0.814874 0.122767 0.448410 0.123613
C28   C     C_3   0.891510 0.000989 0.423183 -0.424364
C29   C     C_3   0.978274 0.014704 0.341365 -0.907543
C30   C     C_3   0.461303 0.905093 0.329790 0.113105
C31   C     C_3   0.470489 0.908870 0.236740 -0.332195
C32   C     C_3   0.613825 0.942222 0.199782 -0.932950
C33   C     C_3   0.166473 0.793027 0.669731 0.137362
C34   C     C_R   0.432780 0.472460 0.213480 -0.345836
C35   C     C_3   0.097773 0.920986 0.666809 -0.351379
C36   C     C_3   0.155524 0.014391 0.724434 -0.916470
C37   C     C_3   0.219661 0.777873 0.003517 0.072219
C38   C     C_3   0.117018 0.832457 0.070795 -0.289100
C39   C     C_3   0.009292 0.911688 0.035499 -0.926048
C40   C     C_R   0.645027 0.582421 0.220095 -0.186441
C41   C     C_R   0.648342 0.615232 0.138425 0.385162
C42   C     C_R   0.539010 0.578910 0.094598 0.023790
C43   C     C_2   0.423143 0.665755 0.983348 0.554959
C44   C     C_2   0.534727 0.614732 0.009547 -0.269065
H1    H     H_    0.700483 0.882384 0.547022 0.238866
H2    H     H_    0.619061 0.583402 0.965989 0.123137
H3    H     H_    0.278653 0.486145 0.920742 0.211422
H4    H     H_    0.549209 0.789734 0.856582 0.147268
H5    H     H_    0.630405 0.803938 0.723097 0.342755
H6    H     H_    0.744509 0.710243 0.049387 0.330925
H7    H     H_    0.891142 0.198239 0.449692 0.163920
H8    H     H_    0.746996 0.148590 0.401265 0.110368
H9    H     H_    0.957242 0.975328 0.470980 0.225306
H10   H     H_    0.818641 0.924156 0.416375 0.219733
H11   H     H_    0.912313 0.033438 0.292343 0.262390
H12   H     H_    0.178630 0.112299 0.471259 0.187587
H13   H     H_    0.036070 0.926876 0.325984 0.290114
H14   H     H_    0.051480 0.092480 0.344082 0.266064
H15   H     H_    0.529350 0.829196 0.346800 0.132327
H16   H     H_    0.499085 0.995323 0.352009 0.127345
H17   H     H_    0.442534 0.816143 0.212728 0.246445
H18   H     H_    0.397520 0.979604 0.218150 0.223692
H19   H     H_    0.640119 0.038052 0.219024 0.251914
H20   H     H_    0.619073 0.938550 0.132143 0.280276
H21   H     H_    0.689345 0.875231 0.219731 0.288128
H22   H     H_    0.818341 0.373765 0.377214 0.345272
H23   H     H_    0.317191 0.120774 0.385478 0.200634
H24   H     H_    0.278650 0.804674 0.660403 0.171262
H25   H     H_    0.141950 0.754568 0.732208 0.099625
H26   H     H_    0.112803 0.957736 0.603833 0.221257
H27   H     H_    0.986708 0.911355 0.684489 0.252234
H28   H     H_    0.140557 0.980484 0.788218 0.259227
H29   H     H_    0.102479 0.105634 0.721632 0.281735
H30   H     H_    0.265844 0.028333 0.706152 0.268921
H31   H     H_    0.906409 0.741595 0.546151 0.350003
H32   H     H_    0.272874 0.402402 0.119749 0.332488
H33   H     H_    0.344212 0.338010 0.728503 0.329318
H34   H     H_    0.182373 0.889674 0.464700 0.133788
H35   H     H_    0.163750 0.718858 0.962372 0.153492
H36   H     H_    0.270801 0.856159 0.968539 0.134126
H37   H     H_    0.066087 0.755169 0.106483 0.264363
H38   H     H_    0.171183 0.891234 0.112841 0.219005
H39   H     H_    0.057538 0.991730 0.001503 0.261339
H40   H     H_    0.935614 0.948466 0.085871 0.278990
H41   H     H_    0.953172 0.854496 0.993690 0.263558
H42   H     H_    0.149650 0.455334 0.374709 0.169891
H43   H     H_    0.090920 0.568289 0.692376 0.057875
H44   H     H_    0.350235 0.417492 0.242996 0.155950
H45   H     H_    0.844787 0.590734 0.691495 0.125234
H46   H     H_    0.725109 0.615214 0.254870 0.204833
N1    N     N_R   0.857140 0.500860 0.500530 -0.132284
N2    N     N_R   0.142780 0.500820 0.500530 -0.102630
O1    O     O_R   0.385310 0.683210 0.499990 -0.567047
O2    O     O_3   0.757251 0.685600 0.105663 -0.777313
O3    O     O_3   0.744448 0.116681 0.528074 -0.620857
O4    O     O_3   0.325414 0.877864 0.361148 -0.619850
O5    O     O_3   0.892277 0.432789 0.360386 -0.771160
O6    O     O_3   0.128940 0.716229 0.605318 -0.603197
O7    O     O_3   0.859090 0.729466 0.601797 -0.713486
O8    O     O_3   0.337555 0.454644 0.084913 -0.750176
O9    O     O_3   0.302581 0.375275 0.780545 -0.765871
O10   O     O_3   0.315416 0.704857 0.039882 -0.615010
O11   O     O_R   0.614650 0.683240 0.500000 -0.590829
O12   O     O_R   0.371780 0.500000 0.615800 -0.614987
O13   O     O_R   0.601120 0.500040 0.615800 -0.556517
O14   O     O_R   0.385350 0.316760 0.500000 -0.613336
O15   O     O_R   0.614690 0.316790 0.500010 -0.609400
O16   O     O_R   0.398880 0.499960 0.384200 -0.616610
O17   O     O_R   0.628220 0.500000 0.384200 -0.617833
O18   O     O_3   0.598740 0.725341 0.699158 -0.736940
Zn1   Zn    Zn3+2 0.346870 0.499980 0.499990 0.989061
Zn2   Zn    Zn3+2 0.653130 0.500020 0.500010 0.995441

loop_
_geom_bond_atom_site_label_1
_geom_bond_atom_site_label_2
_ccdc_geom_bond_type
C11   O4    S    
C6    H1    S    
C41   C42   A    
C31   H17   S    
H33   O9    S    
C35   C36   S    
C25   C43   S    
C7    C8    A    
C10   H23   S    
C37   H35   S    
C23   C42   A    
C3    C9    A    
H22   O5    S    
C28   C29   S    
C39   H40   S    
C33   O6    S    
C38   C39   S    
C18   C19   S    
O15   Zn2   S    
C30   O4    S    
C16   O15   A    
C15   N2    A    
C27   O3    S    
C31   C32   S    
C35   H26   S    
C27   H7    S    
C8    C9    A    
C22   O18   S    
C30   H16   S    
C10   H12   S    
C9    C10   S    
C1    O11   A    
C33   H25   S    
C2    C34   A    
C23   O8    S    
C35   H27   S    
C8    C16   S    
C21   C22   A    
C38   H38   S    
C31   H18   S    
C17   N2    A    
C42   C44   S    
C44   H2    S    
O14   Zn1   S    
C37   H36   S    
C13   C19   S    
C2    C20   S    
C24   H4    S    
C24   C25   A    
C32   H20   S    
C36   H29   S    
O17   Zn2   S    
C19   O7    S    
H6    O2    S    
C29   H11   S    
C25   C26   A    
C12   C21   A    
C37   O10   S    
C12   C26   A    
O11   Zn2   S    
N1    Zn2   S    
C43   C44   D    
C37   C38   S    
C19   H45   S    
C11   H34   S    
C41   O2    S    
C30   C31   S    
C23   C34   A    
C30   H15   S    
H31   O7    S    
C17   C18   S    
C34   H44   S    
C36   H30   S    
C26   H3    S    
O1    Zn1   S    
C15   H42   S    
C40   C41   A    
O13   Zn2   S    
C29   H13   S    
C38   H37   S    
C1    C5    S    
C39   H41   S    
C27   H8    S    
C14   O5    S    
C28   H10   S    
C32   H19   S    
C3    C5    A    
O12   Zn1   S    
C28   H9    S    
N2    Zn1   S    
C6    C7    A    
C16   O14   A    
H32   O8    S    
C7    O3    S    
C4    O13   A    
C18   H43   S    
O16   Zn1   S    
C13   C17   A    
C43   O10   S    
C39   H39   S    
C12   O9    S    
C4    C21   S    
C5    C6    A    
C4    O12   A    
C33   C35   S    
C22   C24   A    
C14   N1    A    
C3    C11   S    
C10   C11   S    
C20   O17   A    
C2    C40   A    
C29   H14   S    
C1    O1    A    
C27   C28   S    
C14   C15   A    
C32   H21   S    
C18   O6    S    
C40   H46   S    
C13   N1    A    
C36   H28   S    
C33   H24   S    
H5    O18   S    
C20   O16   A    
