data_mof_unit_34992.cif
_audit_creation_date              2012-12-10T19:10:39-0500
_audit_creation_method            fapswitch 2.2
_symmetry_space_group_name_H-M    P1
_symmetry_Int_Tables_number       1
_space_group_crystal_system       triclinic
_cell_length_a                    13.052964
_cell_length_b                    9.087775
_cell_length_c                    7.787123
_cell_angle_alpha                 90.038743
_cell_angle_beta                  95.46052
_cell_angle_gamma                 89.952701
_cell_volume                      919.534870287

loop_
_atom_site_label
_atom_site_type_symbol
_atom_type_description
_atom_site_fract_x
_atom_site_fract_y
_atom_site_fract_z
_atom_type_partial_charge
C1    C     C_R   0.499864 0.220052 0.499950 0.828829
C2    C     C_R   0.499901 0.779956 0.500021 0.842529
C3    C     C_R   0.300636 0.499925 0.469241 0.850460
C4    C     C_R   0.699785 0.499477 0.530314 0.860043
C5    C     C_R   0.811921 0.491044 0.544462 -0.210138
C6    C     C_R   0.189215 0.506592 0.453172 -0.239183
C7    C     C_R   0.034047 0.613385 0.312911 0.541871
C8    C     C_R   0.969330 0.400149 0.700307 0.564201
C9    C     C_R   0.139721 0.593040 0.323196 -0.329755
C10   C     C_R   0.862947 0.422761 0.688316 -0.396085
C11   C     C_R   0.133476 0.435795 0.574762 0.486277
C12   C     C_R   0.867236 0.544522 0.411181 0.449209
C13   C     C_R   0.026402 0.458055 0.569982 -0.165397
C14   C     C_R   0.975450 0.539173 0.430156 -0.196278
C15   C     C_1   0.499770 0.065399 0.499938 -0.182974
C16   C     C_1   0.499787 0.934624 0.500030 -0.175376
Cu1   Cu    Cu3+1 0.500010 0.500000 0.669080 1.013099
Cu2   Cu    Cu3+1 0.499990 0.500000 0.330920 1.016124
H1    H     H_    0.819077 0.382981 0.789695 0.165512
H2    H     H_    0.183703 0.649825 0.232264 0.193791
N1    N     N_1   0.499980 0.500000 0.076820 -0.045298
N2    N     N_1   0.500020 0.500000 0.923180 -0.046907
O1    O     O_R   0.500000 0.288400 0.642760 -0.577951
O2    O     O_R   0.500000 0.711600 0.357240 -0.573896
O3    O     O_R   0.500000 0.288400 0.357240 -0.583421
O4    O     O_R   0.500000 0.711600 0.642760 -0.582373
O5    O     O_R   0.349000 0.500000 0.619590 -0.539856
O6    O     O_R   0.651000 0.500000 0.380410 -0.557571
O7    O     O_R   0.348990 0.500000 0.334020 -0.585723
O8    O     O_R   0.651010 0.500000 0.665980 -0.606735
O9    O     O_3   0.814855 0.607297 0.266243 -0.536876
C17   C     C_3   0.807716 0.502463 0.131373 -0.175132
H3    H     H_    0.758955 0.549033 0.020106 0.190938
H4    H     H_    0.771123 0.398267 0.169135 0.123628
H5    H     H_    0.884362 0.477378 0.087575 0.187757
O10   O     O_3   0.184505 0.346376 0.699134 -0.508290
C18   C     C_3   0.193874 0.204395 0.628586 -0.245257
H6    H     H_    0.245277 0.205016 0.522571 0.123894
H7    H     H_    0.117480 0.157610 0.581565 0.130049
H8    H     H_    0.229009 0.130519 0.731223 0.189167
O11   O     O_3   0.989146 0.706456 0.186879 -0.535805
C19   C     C_3   0.993804 0.851521 0.251660 -0.271137
H9    H     H_    0.074840 0.889844 0.276298 0.130791
H10   H     H_    0.953523 0.861554 0.370963 0.161785
H11   H     H_    0.954143 0.925460 0.153349 0.178636
O12   O     O_3   0.019696 0.337389 0.847725 -0.520427
C20   C     C_3   0.978502 0.197424 0.879749 -0.315984
H12   H     H_    0.959549 0.132566 0.759364 0.142526
H13   H     H_    0.909881 0.208044 0.952881 0.140147
H14   H     H_    0.037181 0.134162 0.961624 0.192563

loop_
_geom_bond_atom_site_label_1
_geom_bond_atom_site_label_2
_ccdc_geom_bond_type
C20   H12   S    
C8    C13   A    
C1    C15   S    
C20   H14   S    
Cu2   N1    S    
C2    C16   S    
O11   C19   S    
C9    H2    S    
Cu1   N2    S    
C10   H1    S    
C3    C6    S    
C17   H3    S    
C6    C9    A    
C3    O5    A    
Cu1   Cu2   S    
C5    C10   A    
C2    O4    A    
Cu2   O7    S    
C13   C14   A    
C1    O3    A    
Cu1   O8    S    
C11   C13   A    
C3    O7    A    
Cu1   O1    S    
Cu2   O3    S    
C19   H10   S    
Cu2   O2    S    
Cu1   O4    S    
C8    C10   A    
O10   C18   S    
C4    O6    A    
C18   H6    S    
C12   C14   A    
C1    O1    A    
C18   H8    S    
C7    O11   S    
C12   O9    S    
C2    O2    A    
C18   H7    S    
C8    O12   S    
C19   H9    S    
C15   C16   T    
Cu1   O5    S    
C17   H5    S    
Cu2   O6    S    
C5    C12   A    
C20   H13   S    
C6    C11   A    
C7    C9    A    
O12   C20   S    
C11   O10   S    
N1    N2    T    
C7    C14   A    
C4    O8    A    
O9    C17   S    
C4    C5    S    
C19   H11   S    
C17   H4    S    
