data_mof_unit_15671.cif
_audit_creation_date              2013-03-05T15:41:37-0500
_audit_creation_method            fapswitch 2.2
_symmetry_space_group_name_H-M    P1
_symmetry_Int_Tables_number       1
_space_group_crystal_system       triclinic
_cell_length_a                    8.03107
_cell_length_b                    8.710792
_cell_length_c                    15.724507
_cell_angle_alpha                 93.520255
_cell_angle_beta                  84.084139
_cell_angle_gamma                 92.598789
_cell_volume                      1091.27247239

loop_
_atom_site_label
_atom_site_type_symbol
_atom_site_description
_atom_site_fract_x
_atom_site_fract_y
_atom_site_fract_z
_atom_type_partial_charge
O1    O     O_R   0.389240 0.738570 0.505550 -0.599043
O2    O     O_R   0.678400 0.711630 0.491050 -0.587751
C1    C     C_R   0.543399 0.792711 0.496103 0.965101
O3    O     O_R   0.355360 0.513470 0.630110 -0.577461
O4    O     O_R   0.644510 0.486530 0.615610 -0.580198
C2    C     C_R   0.499339 0.503741 0.660900 0.891374
Zn1   Zn    Zn3+2 0.306930 0.517990 0.509680 1.148888
Zn2   Zn    Zn3+2 0.693070 0.482010 0.490320 1.108240
O5    O     O_R   0.321600 0.288370 0.508950 -0.554040
O6    O     O_R   0.610760 0.261430 0.494450 -0.635081
O7    O     O_R   0.355490 0.513470 0.384390 -0.591974
O8    O     O_R   0.644640 0.486530 0.369890 -0.590156
C3    C     C_R   0.456857 0.206873 0.502602 0.828609
C4    C     C_R   0.500352 0.495372 0.339213 0.845078
C5    C     C_3   0.382763 0.642862 0.966506 0.224660
C6    C     C_3   0.667815 0.499425 0.941801 0.030277
C7    C     C_3   0.677989 0.522829 0.041216 0.264217
H1    H     H_    0.702833 0.380305 0.929729 0.135404
C8    C     C_1   0.500889 0.483931 0.250517 -0.046996
C9    C     C_3   0.480572 0.498916 0.917526 -0.006196
C10   C     C_3   0.373235 0.624820 0.068889 0.220447
C11   C     C_3   0.490896 0.483631 0.083977 -0.050077
C12   C     C_3   0.417820 0.315450 0.043861 0.349974
C13   C     C_3   0.396300 0.333288 0.942264 0.161930
C14   C     C_1   0.498298 0.478398 0.175305 0.115829
C15   C     C_1   0.488091 0.508782 0.825442 0.061794
C16   C     C_1   0.495400 0.508854 0.749877 -0.054968
C17   C     C_2   0.561305 0.952115 0.480354 -0.143723
C18   C     C_2   0.441295 0.047007 0.517663 0.130120
N1    N     N_2   0.950340 0.457950 0.477370 0.025386
N2    N     N_2   0.049660 0.542050 0.522630 0.027763
C19   C     C_3   0.414183 0.781339 0.120688 -0.718025
H2    H     H_    0.314420 0.864737 0.117508 0.257806
H3    H     H_    0.419502 0.765520 0.189859 0.242971
H4    H     H_    0.528813 0.846134 0.099047 0.258601
C20   C     C_3   0.208159 0.666302 0.933996 -0.679253
H5    H     H_    0.109496 0.585601 0.955773 0.246815
H6    H     H_    0.157131 0.779205 0.957856 0.280857
H7    H     H_    0.215779 0.663714 0.863018 0.271628
C21   C     C_3   0.193311 0.594404 0.111845 -0.734986
H8    H     H_    0.142651 0.487619 0.088538 0.235544
H9    H     H_    0.189819 0.587431 0.182371 0.286520
H10   H     H_    0.106498 0.685230 0.100971 0.286783
C22   C     C_3   0.536619 0.184065 0.057215 -0.815490
H11   H     H_    0.466304 0.073868 0.060771 0.251530
H12   H     H_    0.634995 0.159639 0.005196 0.226831
H13   H     H_    0.589756 0.199523 0.119671 0.252362
C23   C     C_3   0.695654 0.996686 0.409560 -0.726619
H14   H     H_    0.745827 0.893881 0.371787 0.252490
H15   H     H_    0.643257 0.068364 0.363460 0.232115
H16   H     H_    0.802602 0.059055 0.437493 0.302404
N3    N     N_R   0.316195 0.999909 0.584668 0.215685
O9    O     O_R   0.361165 0.938024 0.651655 -0.382296
O10   O     O_R   0.161354 0.037994 0.584385 -0.295825
N4    N     N_R   0.025530 0.402599 0.398919 0.305125
O11   O     O_R   0.999625 0.469220 0.329977 -0.351836
O12   O     O_R   0.085250 0.265671 0.391732 -0.347919
N5    N     N_R   0.974379 0.598263 0.600786 0.314282
O13   O     O_R   0.001323 0.532922 0.669888 -0.286183
O14   O     O_R   0.915341 0.735448 0.607495 -0.297482
C24   C     C_3   0.474428 0.796094 0.940258 -0.765600
H17   H     H_    0.485767 0.807561 0.869867 0.272878
H18   H     H_    0.401267 0.892848 0.969332 0.220741
H19   H     H_    0.597571 0.815614 0.962716 0.298025
N6    N     N_R   0.799190 0.576805 0.884238 0.260287
O15   O     O_R   0.779854 0.709814 0.854230 -0.322639
O16   O     O_R   0.918467 0.494126 0.845780 -0.386880
N7    N     N_R   0.742349 0.678289 0.069839 0.203022
O17   O     O_R   0.750499 0.709319 0.151541 -0.404125
O18   O     O_R   0.843311 0.759719 0.018743 -0.393145
C25   C     C_3   0.812008 0.417906 0.067400 -0.811455
H20   H     H_    0.827059 0.302347 0.037047 0.232841
H21   H     H_    0.925113 0.472976 0.040284 0.228998
H22   H     H_    0.815601 0.415830 0.137704 0.290579
C26   C     C_3   0.210794 0.315534 0.919989 -0.675606
H23   H     H_    0.121040 0.353971 0.971808 0.218608
H24   H     H_    0.193463 0.372677 0.860706 0.262933
H25   H     H_    0.167733 0.193804 0.907388 0.274560
C27   C     C_3   0.475015 0.199741 0.879417 -0.798765
H26   H     H_    0.417634 0.088142 0.897124 0.256871
H27   H     H_    0.444884 0.210876 0.812674 0.257732
H28   H     H_    0.611556 0.185983 0.872857 0.235940
N8    N     N_R   0.258355 0.258692 0.091708 0.199125
O19   O     O_R   0.232358 0.284068 0.174352 -0.352743
O20   O     O_R   0.175460 0.140484 0.059736 -0.404042

loop_
_geom_bond_atom_site_label_1
_geom_bond_atom_site_label_2
_geom_bond_distance
_ccdc_geom_bond_type
N4    O11   1.300001 A    
C22   H11   1.092866 S    
Zn1   O7    1.966853 S    
C15   C16   1.183649 T    
C12   N8    1.496748 S    
N2    N5    1.383995 S    
C3    C18   1.424626 S    
C17   C18   1.361056 D    
O4    C2    1.311679 A    
O7    C4    1.309778 A    
N5    O14   1.299821 A    
C24   H18   1.098530 S    
O5    C3    1.316344 A    
C21   H10   1.110161 S    
C17   C23   1.523687 S    
N8    O19   1.301624 A    
N3    O10   1.302000 A    
C6    C7    1.574070 S    
N6    O16   1.300643 A    
C11   C14   1.447009 S    
C20   H5    1.078151 S    
C12   C13   1.641969 S    
C22   H13   1.108910 S    
C6    C9    1.588883 S    
C21   H9    1.111775 S    
C10   C11   1.627638 S    
O3    Zn1   1.975175 S    
C22   H12   1.095087 S    
C23   H16   1.109924 S    
C5    C9    1.621250 S    
C10   C19   1.583871 S    
Zn1   N2    2.074049 S    
C19   H4    1.092597 S    
C9    C13   1.617717 S    
O3    C2    1.306891 A    
C27   H27   1.111934 S    
N7    O17   1.304210 A    
N5    O13   1.298858 A    
C12   C22   1.560130 S    
O1    C1    1.301935 A    
C19   H3    1.110118 S    
C24   H19   1.086759 S    
C26   H23   1.078400 S    
C27   H28   1.102065 S    
C13   C27   1.589410 S    
C2    C16   1.394237 S    
Zn2   O8    1.975174 S    
C5    C24   1.552361 S    
C26   H24   1.107307 S    
C6    H1    1.087690 S    
C21   H8    1.058125 S    
N8    O20   1.303634 A    
O8    C4    1.307400 A    
C7    C25   1.545989 S    
N4    O12   1.299854 A    
O4    Zn2   1.966853 S    
C1    C17   1.423659 S    
C5    C20   1.567133 S    
N3    O9    1.302443 A    
C25   H21   1.069016 S    
Zn1   O5    2.008226 S    
C23   H14   1.111388 S    
C7    N7    1.487675 S    
O1    Zn1   2.006081 S    
C4    C8    1.391709 S    
C20   H7    1.110336 S    
O2    Zn2   2.008227 S    
O6    C3    1.300590 A    
C25   H22   1.110110 S    
C13   C26   1.564022 S    
N1    N4    1.385165 S    
C7    C11   1.612382 S    
Zn2   N1    2.074049 S    
C19   H2    1.112502 S    
C20   H6    1.111516 S    
O2    C1    1.313558 A    
C25   H20   1.093536 S    
N1    N2    1.295922 D    
C10   C21   1.549353 S    
C9    C15   1.450664 S    
C23   H15   1.111163 S    
C24   H17   1.111482 S    
C8    C14   1.182994 T    
C26   H25   1.112790 S    
C27   H26   1.095935 S    
C5    C10   1.620795 S    
Zn2   O6    2.006081 S    
N6    O15   1.299120 A    
N7    O18   1.299876 A    
C11   C12   1.665355 S    
C6    N6    1.483366 S    
C18   N3    1.444066 S    
