data_mof_unit_9865.cif
_audit_creation_date              2012-12-10T19:00:01-0500
_audit_creation_method            fapswitch 2.2
_symmetry_space_group_name_H-M    P1
_symmetry_Int_Tables_number       1
_space_group_crystal_system       triclinic
_cell_length_a                    10.696453
_cell_length_b                    10.672847
_cell_length_c                    9.949185
_cell_angle_alpha                 89.918657
_cell_angle_beta                  91.588987
_cell_angle_gamma                 89.8141
_cell_volume                      1135.37090776

loop_
_atom_site_label
_atom_site_type_symbol
_atom_type_description
_atom_site_fract_x
_atom_site_fract_y
_atom_site_fract_z
_atom_type_partial_charge
C1    C     C_R   0.500027 0.260301 0.500020 0.899599
C2    C     C_R   0.542608 0.063909 0.615298 -0.083372
C3    C     C_R   0.500584 0.872307 0.499913 -0.039936
C4    C     C_R   0.500229 0.127719 0.500076 -0.040303
C5    C     C_R   0.475873 0.607134 0.070669 -0.095866
C6    C     C_R   0.527792 0.393840 0.929492 0.067867
C7    C     C_R   0.477335 0.607472 0.927746 -0.032498
C8    C     C_R   0.527839 0.393839 0.072532 -0.038954
C9    C     C_R   0.259693 0.490693 0.498245 0.947806
C10   C     C_R   0.739848 0.491414 0.501909 0.963588
C11   C     C_R   0.138575 0.587470 0.050249 -0.423519
C12   C     C_R   0.500230 0.739697 0.499993 0.891790
C13   C     C_R   0.810521 0.551008 0.963788 -0.416205
C14   C     C_R   0.096066 0.573419 0.179463 0.390683
C15   C     C_R   0.855196 0.483181 0.855225 0.434806
C16   C     C_R   0.106141 0.456360 0.243819 -0.085960
C17   C     C_R   0.904273 0.546530 0.744168 -0.147898
C18   C     C_R   0.160956 0.352969 0.178571 0.358142
C19   C     C_R   0.909071 0.680026 0.745099 0.220036
C20   C     C_R   0.203544 0.368859 0.048320 0.457256
C21   C     C_R   0.863237 0.746031 0.855524 0.421982
C22   C     C_R   0.192041 0.485794 0.983722 0.309640
C23   C     C_R   0.871426 0.462923 0.505736 -0.218860
C24   C     C_R   0.813795 0.682355 0.964908 0.328828
C25   C     C_R   0.928287 0.423210 0.387413 0.398661
C26   C     C_R   0.070039 0.443859 0.618592 0.403203
C27   C     C_R   0.126826 0.463672 0.496380 -0.290826
C28   C     C_R   0.944959 0.474738 0.625177 -0.011252
C29   C     C_R   0.055313 0.444063 0.377804 -0.049684
C30   C     C_R   0.458269 0.064480 0.384706 -0.114830
C31   C     C_R   0.542840 0.935537 0.615201 -0.124876
C32   C     C_R   0.458439 0.936144 0.384635 -0.114558
Cl1   Cl    Cl    0.031709 0.705279 0.259101 -0.529049
Cl2   Cl    Cl    0.841818 0.318805 0.858928 -0.453513
Cl3   Cl    Cl    0.272673 0.239753 0.968496 -0.440453
Cl4   Cl    Cl    0.866927 0.911109 0.856297 -0.355776
Cl5   Cl    Cl    0.846308 0.347579 0.253143 -0.543445
Cl6   Cl    Cl    0.115028 0.304872 0.700855 -0.388398
H1    H     H_    0.457525 0.693706 0.874050 0.145446
H2    H     H_    0.549416 0.308099 0.877213 0.171397
H3    H     H_    0.217978 0.586515 0.825019 0.336160
H4    H     H_    0.738976 0.691812 0.140581 0.363210
H5    H     H_    0.145605 0.237620 0.331001 0.366753
H6    H     H_    0.990472 0.694540 0.571449 0.358493
H7    H     H_    0.549767 0.308146 0.126362 0.188067
H8    H     H_    0.130342 0.678081 0.001540 0.216011
H9    H     H_    0.770556 0.501431 0.046634 0.238891
H10   H     H_    0.424355 0.113913 0.295623 0.199736
H11   H     H_    0.576912 0.886062 0.704199 0.175289
H12   H     H_    0.424516 0.887191 0.295570 0.171820
H13   H     H_    0.576557 0.112905 0.704336 0.187300
H14   H     H_    0.455146 0.693109 0.122944 0.160690
N1    N     N_R   0.499970 0.499970 0.857200 -0.076884
N2    N     N_R   0.500030 0.500030 0.142800 -0.117031
O1    O     O_R   0.499990 0.316750 0.614620 -0.609337
O2    O     O_3   0.768604 0.750525 0.071044 -0.652143
O3    O     O_3   0.174687 0.236006 0.237590 -0.675312
O4    O     O_3   0.955884 0.749892 0.640684 -0.661800
O5    O     O_R   0.500010 0.683250 0.385380 -0.628384
O6    O     O_R   0.499990 0.316780 0.385290 -0.624724
O7    O     O_R   0.500010 0.683220 0.614710 -0.645308
O8    O     O_R   0.316760 0.500000 0.614660 -0.548126
O9    O     O_R   0.683240 0.500000 0.385340 -0.575469
O10   O     O_R   0.316760 0.500020 0.385330 -0.630028
O11   O     O_R   0.683240 0.499980 0.614670 -0.624231
O12   O     O_3   0.235675 0.499828 0.856605 -0.676904
Zn1   Zn    Zn3+2 0.500000 0.499980 0.653120 1.021680
Zn2   Zn    Zn3+2 0.500000 0.500020 0.346880 0.990882

loop_
_geom_bond_atom_site_label_1
_geom_bond_atom_site_label_2
_ccdc_geom_bond_type
C19   C21   A    
O1    Zn1   S    
C5    H14   S    
H3    O12   S    
O5    Zn2   S    
C27   C29   A    
C9    O10   A    
C5    C7    A    
O7    Zn1   S    
C15   Cl2   S    
C2    C4    A    
C10   O9    A    
C9    C27   S    
C3    C31   A    
C1    C4    S    
C25   Cl5   S    
C14   Cl1   S    
C23   C25   A    
C1    O1    A    
C4    C30   A    
C21   Cl4   S    
C23   C28   A    
C30   C32   A    
C12   O7    A    
C12   O5    A    
C32   H12   S    
C26   C27   A    
O8    Zn1   S    
C31   H11   S    
C18   O3    S    
N1    Zn1   S    
O10   Zn2   S    
C30   H10   S    
C13   H9    S    
C17   C19   A    
C20   C22   A    
C18   C20   A    
C13   C15   A    
C19   O4    S    
C25   C29   A    
C3    C32   A    
C10   C23   S    
C11   C14   A    
C14   C16   A    
C1    O6    A    
C24   O2    S    
C2    H13   S    
C7    N1    A    
C6    N1    A    
C9    O8    A    
C5    N2    A    
C6    H2    S    
N2    Zn2   S    
C6    C8    A    
O6    Zn2   S    
C16   C18   A    
C21   C24   A    
C8    N2    A    
C15   C17   A    
H5    O3    S    
C8    H7    S    
C22   O12   S    
C11   H8    S    
C7    H1    S    
C3    C12   S    
C11   C22   A    
H4    O2    S    
C16   C29   S    
O9    Zn2   S    
C17   C28   S    
C26   C28   A    
C20   Cl3   S    
C26   Cl6   S    
C13   C24   A    
H6    O4    S    
C2    C31   A    
O11   Zn1   S    
C10   O11   A    
