data_mof_unit_31996.cif
_audit_creation_date              2012-12-11T16:22:48-0500
_audit_creation_method            fapswitch 2.2
_symmetry_space_group_name_H-M    P1
_symmetry_Int_Tables_number       1
_space_group_crystal_system       triclinic
_cell_length_a                    16.964618
_cell_length_b                    16.873354
_cell_length_c                    19.429439
_cell_angle_alpha                 117.856574
_cell_angle_beta                  62.870959
_cell_angle_gamma                 100.249483
_cell_volume                      4371.84491817

loop_
_atom_site_label
_atom_site_type_symbol
_atom_type_description
_atom_site_fract_x
_atom_site_fract_y
_atom_site_fract_z
_atom_type_partial_charge
C1    C     C_R   0.038979 0.757683 0.011010 -0.071736
C2    C     C_R   0.237798 0.573575 0.833907 -0.195076
C3    C     C_R   0.184074 0.490257 0.087325 -0.123210
C4    C     C_R   0.754659 0.443651 0.172189 -0.262463
C5    C     C_R   0.992581 0.339361 0.758153 -0.095090
C6    C     C_R   0.257870 0.539197 0.063751 0.056009
C7    C     C_R   0.946895 0.262727 0.755982 0.018104
C8    C     C_R   0.234730 0.552166 0.757123 -0.069720
C9    C     C_R   0.033123 0.224401 0.000334 0.044591
C10   C     C_R   0.890557 0.922128 0.490476 -0.392987
C11   C     C_R   0.927354 0.844556 0.415155 0.796605
C12   C     C_R   0.750455 0.482508 0.254243 -0.028694
C13   C     C_R   0.942756 0.840708 0.336252 -0.188107
C14   C     C_R   0.917276 0.914195 0.334491 -0.381514
C15   C     C_R   0.881263 0.992690 0.410317 0.787419
C16   C     C_R   0.804632 0.557824 0.958628 -0.106824
C17   C     C_R   0.870573 0.997831 0.488370 -0.208652
C18   C     C_R   0.930800 0.144532 0.545174 -0.084151
C19   C     C_R   0.955033 0.204993 0.609967 -0.195253
C20   C     C_R   0.912315 0.207200 0.692027 0.136256
C21   C     C_R   0.838644 0.154785 0.710794 -0.160153
C22   C     C_R   0.814451 0.093913 0.645573 -0.171980
C23   C     C_R   0.723455 0.543485 0.015618 0.042366
C24   C     C_R   0.864441 0.084491 0.561188 0.240945
C25   C     C_R   0.526738 0.595601 0.410663 -0.157923
C26   C     C_R   0.601844 0.555533 0.334566 -0.248755
C27   C     C_R   0.669891 0.517725 0.333663 -0.082668
C28   C     C_R   0.966736 0.673204 0.249414 -0.069197
C29   C     C_R   0.663701 0.523343 0.410244 0.857661
C30   C     C_R   0.589018 0.564607 0.486497 -0.357332
C31   C     C_R   0.519535 0.598736 0.486440 0.030093
C32   C     C_R   0.420391 0.666603 0.642145 -0.170610
C33   C     C_R   0.351307 0.652007 0.709158 -0.163758
C34   C     C_R   0.982054 0.759068 0.256582 0.140449
C35   C     C_R   0.296162 0.580010 0.690769 0.176307
C36   C     C_R   0.305548 0.528670 0.606047 -0.091694
C37   C     C_R   0.371997 0.545447 0.539996 -0.178003
C38   C     C_R   0.432746 0.610669 0.557204 0.155119
C39   C     C_R   0.637348 0.586248 0.049444 0.128583
C40   C     C_R   0.738511 0.478808 0.033604 -0.110497
C41   C     C_R   0.325090 0.566698 0.097266 0.125460
C42   C     C_R   0.405867 0.537366 0.158932 -0.208648
C43   C     C_R   0.329808 0.529319 0.146556 -0.146256
C44   C     C_R   0.391631 0.622603 0.071168 -0.258646
C45   C     C_R   0.250327 0.566867 0.010177 -0.107371
C46   C     C_R   0.470247 0.625196 0.077455 0.177696
C47   C     C_R   0.478640 0.578930 0.118464 0.180849
C48   C     C_R   0.562013 0.564301 0.108122 -0.267096
C49   C     C_R   0.627929 0.641694 0.017501 -0.154541
C50   C     C_R   0.544054 0.662816 0.033175 -0.201408
C51   C     C_R   0.828816 0.172897 0.126699 0.110303
C52   C     C_R   0.033466 0.751843 0.174109 -0.134372
C53   C     C_R   0.962140 0.859608 0.990688 -0.068272
C54   C     C_R   0.892494 0.938712 0.953472 -0.107782
C55   C     C_R   0.932099 0.861065 0.934766 -0.271822
C56   C     C_R   0.924693 0.261724 0.833699 -0.125248
C57   C     C_R   0.956103 0.939820 0.064247 0.691895
C58   C     C_R   0.916540 0.018663 0.083368 -0.077624
C59   C     C_R   0.882120 0.017642 0.028702 -0.043305
C60   C     C_R   0.836930 0.095312 0.051869 0.389799
C61   C     C_R   0.864886 0.174649 0.179006 -0.251477
C62   C     C_R   0.908102 0.097984 0.157977 -0.100694
C63   C     C_R   0.834143 0.510321 0.247014 0.716204
C64   C     C_R   0.961449 0.688618 0.934312 -0.098229
C65   C     C_R   0.988854 0.772395 0.977502 0.099983
C66   C     C_R   0.156182 0.509625 0.760173 0.427731
C67   C     C_R   0.054419 0.309045 0.049940 -0.093355
C68   C     C_R   0.976735 0.240402 0.973260 -0.100826
Cl1   Cl    Cl    0.097553 0.511490 0.706039 -0.723599
Cl2   Cl    Cl    0.786578 0.098412 0.991420 -0.707020
F1    F     F_    0.954201 0.776340 0.419209 -0.683493
F2    F     F_    0.861807 0.065079 0.406950 -0.683071
F3    F     F_    0.726842 0.484427 0.410628 -0.638967
F4    F     F_    0.982975 0.940290 0.120469 -0.739176
F5    F     F_    0.864941 0.529055 0.305942 -0.661175
H1    H     H_    0.080644 0.805267 0.038017 0.147813
H2    H     H_    0.703020 0.406953 0.153876 0.157302
H3    H     H_    0.971292 0.137561 0.480336 0.153273
H4    H     H_    0.011731 0.244885 0.593511 0.139632
H5    H     H_    0.802439 0.157367 0.774300 0.137975
H6    H     H_    0.762861 0.047936 0.658849 0.141583
H7    H     H_    0.472307 0.619726 0.409749 0.141870
H8    H     H_    0.606579 0.553783 0.276335 0.155201
H9    H     H_    0.582206 0.563384 0.544237 0.173908
H10   H     H_    0.468080 0.716349 0.655608 0.136249
H11   H     H_    0.816043 0.599711 0.927400 0.097261
H12   H     H_    0.878381 0.218648 0.859139 0.133629
H13   H     H_    0.344559 0.693512 0.774206 0.120450
H14   H     H_    0.266696 0.470616 0.589183 0.164090
H15   H     H_    0.382483 0.500081 0.474293 0.134831
H16   H     H_    0.567713 0.526796 0.138163 0.114179
H17   H     H_    0.684743 0.663817 0.975766 0.124954
H18   H     H_    0.411093 0.502921 0.191928 0.134086
H19   H     H_    0.538066 0.700217 0.003006 0.137393
H20   H     H_    0.278117 0.488550 0.170326 0.126782
H21   H     H_    0.387715 0.655779 0.036803 0.118923
H22   H     H_    0.929692 0.655378 0.301393 0.227298
H23   H     H_    0.095656 0.322728 0.082950 0.111134
H24   H     H_    0.858324 0.235443 0.236568 0.193180
H25   H     H_    0.868713 0.935711 0.909281 0.195957
H26   H     H_    0.934176 0.100772 0.200583 0.211901
H27   H     H_    0.937158 0.801262 0.876985 0.168917
H28   H     H_    0.689938 0.446272 0.069956 0.097081
H29   H     H_    0.060005 0.806543 0.157393 0.134850
H30   H     H_    0.931063 0.672882 0.891602 0.120503
H31   H     H_    0.288831 0.615249 0.987839 0.089649
H32   H     H_    0.946466 0.190051 0.933978 0.153116
H33   H     H_    0.283384 0.616997 0.858336 0.120102
H34   H     H_    0.161905 0.469126 0.137649 0.109234
H35   H     H_    0.005717 0.368625 0.715418 0.171023
H36   H     H_    0.885632 0.925549 0.549416 0.199908
H37   H     H_    0.926640 0.911371 0.274376 0.229942
N1    N     N_R   0.034930 0.670790 0.995440 -0.061226
N2    N     N_R   0.867000 0.509260 0.948460 -0.039757
N3    N     N_R   0.003780 0.616410 0.165900 -0.063371
N4    N     N_R   0.825670 0.461520 0.995440 -0.040548
N5    N     N_R   0.045120 0.664150 0.118920 -0.054453
N6    N     N_R   0.884940 0.497570 0.165910 -0.124494
N7    N     N_R   0.985840 0.628110 0.948460 -0.042868
N8    N     N_R   0.174330 0.538480 0.004560 -0.042455
N9    N     N_R   0.954880 0.335850 0.881080 -0.046724
N10   N     N_R   0.115060 0.502430 0.834090 -0.075669
N11   N     N_R   0.014160 0.371890 0.051540 -0.049687
N12   N     N_R   0.965070 0.329210 0.004560 -0.045520
N13   N     N_R   0.164150 0.545120 0.881070 -0.060418
N14   N     N_R   0.133000 0.490740 0.051540 -0.043863
N15   N     N_R   0.996220 0.383590 0.834100 -0.043007
N16   N     N_R   0.835850 0.454880 0.118930 -0.072781
Ni1   Ni    Ni4+2 0.103690 0.603690 0.000000 0.205511
Ni2   Ni    Ni4+2 0.896310 0.396310 0.000000 0.234193
Ni3   Ni    Ni4+2 0.991110 0.505800 0.892250 0.267782
Ni4   Ni    Ni4+2 0.008890 0.494200 0.107750 0.263267

loop_
_geom_bond_atom_site_label_1
_geom_bond_atom_site_label_2
_ccdc_geom_bond_type
C28   H22   S    
C36   H14   S    
C58   C62   A    
C26   H8    S    
C6    C45   A    
N11   Ni4   S    
C27   C29   A    
C42   H18   S    
N2    Ni3   S    
C54   C55   A    
C35   C36   A    
C51   C61   A    
N9    Ni2   S    
C3    C6    A    
C68   N12   A    
C3    N14   A    
C64   H30   S    
C14   H37   S    
C15   F2    S    
C55   H27   S    
C26   C27   A    
C29   C30   A    
C64   N7    A    
N1    Ni1   S    
C37   H15   S    
C18   C24   A    
C36   C37   A    
C33   H13   S    
N9    N15   A    
C30   C31   A    
C11   F1    S    
C66   Cl1   S    
C29   F3    S    
C5    H35   S    
C10   C17   A    
C23   C40   A    
C15   C17   A    
C18   C19   A    
C16   N2    A    
C67   H23   S    
N1    N7    A    
N6    N16   A    
C19   C20   A    
N3    N5    A    
C6    C41   S    
C1    C65   A    
C43   H20   S    
C66   N10   A    
C8    C66   A    
C68   H32   S    
C32   C38   A    
C4    C12   A    
C53   C65   S    
C54   C59   A    
C62   H26   S    
C52   N5    A    
C28   C34   A    
C59   C60   A    
C13   C14   A    
C16   H11   S    
C41   C43   A    
C54   H25   S    
C61   H24   S    
C1    N1    A    
C7    C56   A    
C44   C46   A    
N3    Ni4   S    
C53   C55   A    
N14   Ni4   S    
C17   C24   S    
C4    N16   A    
C12   C27   S    
N8    Ni1   S    
C22   H6    S    
N11   N12   A    
C5    C7    A    
C12   C63   A    
C53   C57   A    
C50   H19   S    
C56   H12   S    
C25   C26   A    
C48   H16   S    
C67   N11   A    
C8    C35   S    
C57   F4    S    
C9    C67   A    
C37   C38   A    
C44   H21   S    
C28   N3    A    
N7    Ni3   S    
C47   C48   A    
C60   Cl2   S    
C18   H3    S    
C5    N15   A    
N12   Ni2   S    
C10   H36   S    
C56   N9    A    
C19   H4    S    
C45   N8    A    
C39   C49   A    
C7    C20   S    
C16   C23   A    
C25   H7    S    
C41   C44   A    
C22   C24   A    
C42   C43   A    
C49   H17   S    
N10   Ni3   S    
N5    Ni1   S    
C45   H31   S    
C63   N6    A    
C46   C47   A    
C52   H29   S    
C1    H1    S    
C25   C31   A    
C2    C8    A    
N16   Ni2   S    
N2    N4    A    
C46   C50   A    
C34   C52   A    
C31   C38   S    
C32   C33   A    
N10   N13   A    
C58   C59   A    
C9    C68   A    
C4    H2    S    
C64   C65   A    
C40   H28   S    
C11   C13   A    
C57   C58   A    
C40   N4    A    
C63   F5    S    
C3    H34   S    
C23   C39   S    
C32   H10   S    
C21   H5    S    
C2    H33   S    
C33   C35   A    
N8    N14   A    
C42   C47   A    
C30   H9    S    
C61   C62   A    
N15   Ni3   S    
N6    Ni4   S    
C10   C11   A    
C2    N13   A    
N13   Ni1   S    
C13   C34   S    
N4    Ni2   S    
C20   C21   A    
C49   C50   A    
C14   C15   A    
C51   C60   A    
C21   C22   A    
C39   C48   A    
