data_mof_unit_44620.cif
_audit_creation_date              2013-03-05T16:13:53-0500
_audit_creation_method            fapswitch 2.2
_symmetry_space_group_name_H-M    P1
_symmetry_Int_Tables_number       1
_space_group_crystal_system       triclinic
_cell_length_a                    20.192692
_cell_length_b                    22.748331
_cell_length_c                    6.939962
_cell_angle_alpha                 90.010381
_cell_angle_beta                  88.895796
_cell_angle_gamma                 89.997598
_cell_volume                      3187.27979128

loop_
_atom_site_label
_atom_site_type_symbol
_atom_site_description
_atom_site_fract_x
_atom_site_fract_y
_atom_site_fract_z
_atom_type_partial_charge
O1    O     O_R   0.751270 0.447300 0.600030 -0.589805
O2    O     O_R   0.248730 0.947300 0.399970 -0.589763
O3    O     O_R   0.613530 0.440160 0.952150 -0.589188
O4    O     O_R   0.386470 0.940160 0.047850 -0.589201
O5    O     O_R   0.613050 0.552700 0.122560 -0.588459
O6    O     O_R   0.386950 0.052700 0.877440 -0.588450
C1    C     C_R   0.591507 0.425510 0.784622 0.930286
C2    C     C_R   0.408495 0.925511 0.215350 0.930333
O7    O     O_R   0.750780 0.440350 0.929820 -0.602966
O8    O     O_R   0.249220 0.940350 0.070180 -0.603043
O9    O     O_R   0.751280 0.552900 0.100070 -0.590063
O10   O     O_R   0.248720 0.052900 0.899930 -0.590017
C3    C     C_R   0.772760 0.424957 0.760840 0.953129
C4    C     C_R   0.227240 0.924953 0.239124 0.953147
O11   O     O_R   0.613040 0.447100 0.622520 -0.589492
O12   O     O_R   0.386960 0.947100 0.377480 -0.589478
O13   O     O_3   0.682160 0.536920 0.777780 -0.268948
O14   O     O_3   0.317840 0.036920 0.222220 -0.268918
V1    V     V_3+5 0.682160 0.493150 0.052630 1.173033
V2    V     V_3+5 0.317840 0.993150 0.947370 1.173083
O15   O     O_R   0.750790 0.559840 0.429870 -0.602958
O16   O     O_R   0.249210 0.059840 0.570130 -0.602916
C5    C     C_R   0.772543 0.575411 0.260862 0.946528
C6    C     C_R   0.227467 0.075420 0.739171 0.946396
O17   O     O_R   0.613540 0.559650 0.452200 -0.588204
O18   O     O_R   0.386460 0.059650 0.547800 -0.588228
C7    C     C_R   0.591580 0.574325 0.284686 0.927553
C8    C     C_R   0.408416 0.074326 0.715342 0.927512
V3    V     V_3+5 0.682160 0.506850 0.552630 1.173379
V4    V     V_3+5 0.317840 0.006850 0.447370 1.173414
O19   O     O_3   0.682150 0.463080 0.277610 -0.268930
O20   O     O_3   0.317850 0.963080 0.722390 -0.268919
C9    C     C_R   0.580355 0.861872 0.218668 -0.149288
C10   C     C_R   0.419645 0.361910 0.780046 -0.149141
H1    H     H_    0.539100 0.948501 0.201028 0.113771
H2    H     H_    0.460900 0.448539 0.797638 0.113770
H3    H     H_    0.671786 0.778532 0.232637 0.155834
H4    H     H_    0.328213 0.278588 0.765499 0.155885
H5    H     H_    0.630718 0.878321 0.211558 0.130460
H6    H     H_    0.369281 0.378377 0.786545 0.130522
C11   C     C_R   0.462830 0.882356 0.221504 -0.098912
C12   C     C_R   0.537172 0.382360 0.778353 -0.098898
C13   C     C_R   0.472030 0.594647 0.288130 -0.171436
C14   C     C_R   0.527968 0.094621 0.712755 -0.171511
C15   C     C_R   0.417825 0.632211 0.282962 -0.071410
C16   C     C_R   0.582173 0.132174 0.718270 -0.071272
C17   C     C_R   0.426743 0.692804 0.268264 -0.163033
C18   C     C_R   0.573255 0.192776 0.732634 -0.162840
C19   C     C_R   0.490940 0.717721 0.258291 0.084588
C20   C     C_R   0.509059 0.217715 0.741895 0.084509
C21   C     C_R   0.546585 0.678720 0.263807 0.095838
C22   C     C_R   0.453413 0.178727 0.735968 0.095817
C23   C     C_R   0.501728 0.779907 0.243027 0.089838
C24   C     C_R   0.498272 0.279911 0.756852 0.089850
C25   C     C_R   0.567873 0.801308 0.233751 0.162477
C26   C     C_R   0.432127 0.301335 0.765359 0.162374
C27   C     C_R   0.621320 0.762296 0.239580 -0.193951
C28   C     C_R   0.378679 0.262334 0.759136 -0.193624
C29   C     C_R   0.610981 0.702070 0.254346 -0.197768
C30   C     C_R   0.389018 0.202099 0.744708 -0.197738
C31   C     C_R   0.449480 0.821863 0.236587 -0.230313
C32   C     C_R   0.550522 0.321855 0.763696 -0.230251
C33   C     C_R   0.528299 0.901965 0.212610 -0.169784
C34   C     C_R   0.471703 0.401992 0.786439 -0.169787
C35   C     C_R   0.536468 0.616982 0.278736 -0.171923
C36   C     C_R   0.463529 0.116978 0.721407 -0.171858
H7    H     H_    0.398064 0.809211 0.242976 0.106389
H8    H     H_    0.601938 0.309185 0.757885 0.106378
H9    H     H_    0.463673 0.547701 0.299518 0.113068
H10   H     H_    0.536324 0.047666 0.701696 0.113067
H11   H     H_    0.382270 0.718865 0.265066 0.126364
H12   H     H_    0.617729 0.218828 0.736150 0.126424
H13   H     H_    0.368225 0.614172 0.290381 0.132189
H14   H     H_    0.631774 0.114118 0.711413 0.132232
H15   H     H_    0.654114 0.673839 0.258319 0.116405
H16   H     H_    0.345884 0.173877 0.740414 0.116358
C37   C     C_R   0.176033 0.877651 0.239518 -0.177504
C38   C     C_R   0.823977 0.377669 0.760286 -0.176788
C39   C     C_R   0.171291 0.841321 0.075969 -0.285491
C40   C     C_R   0.828585 0.341167 0.923411 -0.285237
C41   C     C_R   0.121179 0.798900 0.058564 0.332189
C42   C     C_R   0.878756 0.298808 0.940673 0.332944
C43   C     C_R   0.073739 0.792172 0.209751 0.105817
C44   C     C_R   0.926350 0.292264 0.789904 0.105976
C45   C     C_R   0.079742 0.827460 0.377294 -0.096361
C46   C     C_R   0.920491 0.327706 0.622730 -0.097001
C47   C     C_R   0.130437 0.869503 0.391907 -0.140817
C48   C     C_R   0.869756 0.369722 0.608193 -0.142734
C49   C     C_R   0.876979 0.702684 0.439825 0.332816
C50   C     C_R   0.123339 0.202964 0.560837 0.332748
C51   C     C_R   0.827068 0.660076 0.422317 -0.289096
C52   C     C_R   0.173171 0.160271 0.578200 -0.289190
C53   C     C_R   0.925024 0.709012 0.290090 0.106617
C54   C     C_R   0.075186 0.209213 0.710326 0.107050
N1    N     N_2   0.022820 0.748760 0.190546 -0.028236
N2    N     N_2   0.977200 0.248784 0.809051 -0.028782
N3    N     N_2   0.975899 0.752465 0.309742 -0.028555
N4    N     N_2   0.024380 0.252741 0.690814 -0.028398
C55   C     C_R   0.823239 0.623090 0.260143 -0.175891
C56   C     C_R   0.176828 0.123147 0.740024 -0.175542
H17   H     H_    0.791175 0.655133 0.539153 0.189895
H18   H     H_    0.209145 0.155379 0.461542 0.189791
H19   H     H_    0.045272 0.822700 0.497592 0.194646
H20   H     H_    0.955100 0.323086 0.502696 0.195011
H21   H     H_    0.133008 0.896451 0.520211 0.140924
H22   H     H_    0.867294 0.396811 0.480217 0.140922
C57   C     C_R   0.869303 0.630925 0.108818 -0.142410
C58   C     C_R   0.130669 0.130916 0.891161 -0.142802
C59   C     C_R   0.919728 0.673192 0.123491 -0.099225
C60   C     C_R   0.080310 0.173255 0.876605 -0.099934
H23   H     H_    0.867366 0.603495 0.981487 0.140918
H24   H     H_    0.132482 0.103379 0.018238 0.140787
H25   H     H_    0.954626 0.677615 0.004096 0.194560
H26   H     H_    0.045335 0.177633 0.995840 0.193919
H27   H     H_    0.206705 0.846557 0.958079 0.189711
H28   H     H_    0.793068 0.346241 0.041148 0.189061
N5    N     N_R   0.878199 0.738459 0.611842 0.234165
O21   O     O_R   0.825600 0.742947 0.722302 -0.408060
O22   O     O_R   0.932349 0.763990 0.666386 -0.374962
N6    N     N_R   0.122302 0.238893 0.389196 0.234286
O23   O     O_R   0.175002 0.243435 0.279175 -0.407730
O24   O     O_R   0.068226 0.264514 0.334516 -0.374403
N7    N     N_R   0.119187 0.763714 0.885258 0.234155
O25   O     O_R   0.170950 0.760367 0.771004 -0.408272
O26   O     O_R   0.065154 0.737363 0.833803 -0.375605
N8    N     N_R   0.880695 0.263466 0.113496 0.233858
O27   O     O_R   0.828365 0.258814 0.224961 -0.407352
O28   O     O_R   0.935254 0.238593 0.167820 -0.375902

loop_
_geom_bond_atom_site_label_1
_geom_bond_atom_site_label_2
_geom_bond_distance
_ccdc_geom_bond_type
C9    C25   1.404178 A    
C5    C55   1.491405 S    
C10   C26   1.404179 A    
N8    O27   1.301822 A    
O11   V3    2.001263 S    
C39   H27   1.082784 S    
O13   V3    1.705589 S    
C14   C36   1.397233 A    
C11   C31   1.405816 A    
O4    C2    1.296221 A    
V1    O19   1.704731 S    
C13   C35   1.397235 A    
N7    O25   1.301949 A    
C17   C19   1.415298 A    
O9    V1    1.980301 S    
C9    H5    1.083866 S    
C41   N7    1.445824 S    
C10   H6    1.083871 S    
C18   H12   1.076651 S    
O3    C1    1.296281 A    
N5    O22   1.300822 A    
C44   N2    1.433690 S    
C38   C40   1.408606 A    
C4    C37   1.492327 S    
C54   N4    1.434089 S    
C28   C30   1.389367 A    
C46   C48   1.406131 A    
C15   H13   1.082700 S    
C21   C35   1.422741 A    
C15   C17   1.393600 A    
O7    C3    1.294078 A    
C42   N8    1.445191 S    
C22   C30   1.405018 A    
H4    C28   1.084127 S    
C23   C31   1.423997 A    
O7    V1    2.010724 S    
O6    C8    1.294939 A    
C40   H28   1.082902 S    
O8    V2    2.010976 S    
C19   C21   1.432722 A    
N2    N4    1.248591 D    
C20   C22   1.432730 A    
O3    V1    1.974062 S    
O14   V4    1.705816 S    
C49   C51   1.405255 A    
C60   H26   1.082069 S    
C45   H19   1.082054 S    
C52   H18   1.082960 S    
C18   C20   1.415293 A    
C46   H20   1.082082 S    
C2    O12   1.295081 A    
O5    C7    1.294952 A    
C57   C59   1.405597 A    
C29   H15   1.082912 S    
C51   H17   1.082953 S    
O1    V3    1.976989 S    
C41   C43   1.415368 A    
N6    O24   1.300776 A    
C50   C54   1.415267 A    
C16   C18   1.393599 A    
C23   C25   1.421915 A    
O17   V3    1.971241 S    
C24   C26   1.421921 A    
C56   C58   1.400843 A    
C45   C47   1.406041 A    
C2    C11   1.473446 S    
C40   C42   1.404947 A    
O8    C4    1.293999 A    
C39   C41   1.405184 A    
C1    O11   1.295073 A    
C24   C32   1.424019 A    
O15   V3    2.013554 S    
C30   H16   1.082914 S    
C58   H24   1.083019 S    
C50   N6    1.445235 S    
C8    C36   1.477681 S    
C1    C12   1.473468 S    
C7    C35   1.477664 S    
C48   H22   1.083011 S    
C31   H7    1.077474 S    
C50   C52   1.405298 A    
C47   H21   1.083026 S    
C9    C33   1.392908 A    
C43   N1    1.433718 S    
O10   V2    1.980302 S    
C10   C34   1.392916 A    
C37   C39   1.408658 A    
C20   C24   1.434953 A    
C14   H10   1.083853 S    
C13   C15   1.389594 A    
C17   H11   1.076653 S    
C43   C45   1.419909 A    
C49   N5    1.445280 S    
O18   V4    1.971158 S    
C42   C44   1.414842 A    
O15   C5    1.293995 A    
O16   C6    1.294068 A    
C27   C29   1.389363 A    
O1    C3    1.308049 A    
C11   C33   1.395486 A    
C53   N3    1.434046 S    
C16   H14   1.082706 S    
C22   C36   1.422749 A    
N6    O23   1.301854 A    
C52   C56   1.408357 A    
V2    O20   1.704504 S    
C38   C48   1.401297 A    
C12   C32   1.405822 A    
C3    C38   1.492145 S    
N8    O28   1.300774 A    
O16   V4    2.013300 S    
C6    C56   1.491329 S    
C57   H23   1.083016 S    
C44   C46   1.419746 A    
C12   C34   1.395489 A    
N1    N3    1.248539 D    
O5    V1    1.997899 S    
C59   H25   1.082029 S    
O17   C7    1.295982 A    
C55   C57   1.400806 A    
O10   C6    1.307651 A    
O18   C8    1.296041 A    
C32   H8    1.077483 S    
O2    V4    1.976986 S    
C25   C27   1.398430 A    
C54   C60   1.419996 A    
V3    O19   2.152580 S    
N5    O21   1.301826 A    
V4    O20   2.152900 S    
C58   C60   1.405645 A    
O6    V2    1.998102 S    
C19   C23   1.434947 A    
O9    C5    1.307699 A    
O13   V1    2.151851 S    
C26   C28   1.398440 A    
O14   V2    2.151531 S    
C49   C53   1.415254 A    
O2    C4    1.308148 A    
N7    O26   1.300861 A    
O4    V2    1.974147 S    
C21   C29   1.405021 A    
C37   C47   1.401107 A    
C13   H9    1.083853 S    
H1    C33   1.083556 S    
C51   C55   1.408400 A    
H2    C34   1.083561 S    
O12   V4    2.001066 S    
C14   C16   1.389594 A    
H3    C27   1.084124 S    
C53   C59   1.420074 A    
