data_mof_unit_57627.cif
_audit_creation_date              2013-03-05T15:50:07-0500
_audit_creation_method            fapswitch 2.2
_symmetry_space_group_name_H-M    P1
_symmetry_Int_Tables_number       1
_space_group_crystal_system       triclinic
_cell_length_a                    12.26195
_cell_length_b                    12.735301
_cell_length_c                    15.631868
_cell_angle_alpha                 85.080888
_cell_angle_beta                  114.494802
_cell_angle_gamma                 87.494761
_cell_volume                      2204.71207673

loop_
_atom_site_label
_atom_site_type_symbol
_atom_site_description
_atom_site_fract_x
_atom_site_fract_y
_atom_site_fract_z
_atom_type_partial_charge
O1    O     O_R   0.580150 0.341050 0.504560 -0.596212
O2    O     O_R   0.419850 0.658950 0.495440 -0.554897
O3    O     O_R   0.388090 0.353760 0.493600 -0.559795
O4    O     O_R   0.611910 0.646240 0.506400 -0.579922
C1    C     C_R   0.478801 0.302297 0.487763 0.949921
C2    C     C_R   0.517247 0.701764 0.501657 0.950893
O5    O     O_R   0.650890 0.490020 0.640860 -0.614641
O6    O     O_R   0.349110 0.509980 0.359140 -0.608987
O7    O     O_R   0.458830 0.502730 0.629890 -0.533743
O8    O     O_R   0.541170 0.497270 0.370110 -0.532268
C3    C     C_R   0.574900 0.493633 0.679063 0.925467
C4    C     C_R   0.424793 0.508627 0.320642 0.918535
Zn1   Zn    Zn3+2 0.628240 0.491510 0.507320 1.091499
Zn2   Zn    Zn3+2 0.371760 0.508490 0.492680 1.105521
C5    C     C_R   0.618526 0.477868 0.781268 -0.187801
C6    C     C_R   0.379341 0.531348 0.218210 -0.170342
C7    C     C_R   0.739182 0.377840 0.932199 -0.237115
C8    C     C_R   0.249399 0.634129 0.069970 -0.250710
C9    C     C_R   0.716881 0.405099 0.837674 0.520580
C10   C     C_R   0.276877 0.601948 0.165070 0.520654
C11   C     C_R   0.547501 0.524896 0.820042 -0.204429
C12   C     C_R   0.449877 0.492540 0.175605 -0.170898
C13   C     C_R   0.557840 0.488145 0.909719 0.119357
C14   C     C_R   0.430378 0.532443 0.083996 0.121722
C15   C     C_R   0.662012 0.420196 0.968700 0.020163
C16   C     C_R   0.324552 0.598260 0.029111 0.035548
C17   C     C_R   0.473866 0.522494 0.945454 -0.073499
C18   C     C_R   0.511803 0.504545 0.045132 -0.105209
C19   C     C_R   0.631823 0.462344 0.103727 0.352366
C20   C     C_R   0.355538 0.574883 0.888809 0.375428
C21   C     C_R   0.696315 0.405848 0.065515 -0.219351
C22   C     C_R   0.290725 0.621831 0.932906 -0.253009
H1    H     H_    0.784302 0.366993 0.111816 0.197263
H2    H     H_    0.205266 0.667096 0.890246 0.189699
H3    H     H_    0.520901 0.431033 0.215093 0.214438
H4    H     H_    0.483929 0.590144 0.778433 0.228618
H5    H     H_    0.816530 0.323578 0.976880 0.176713
H6    H     H_    0.170386 0.688083 0.028605 0.164357
C23   C     C_R   0.522904 0.816485 0.502062 -0.217681
C24   C     C_R   0.466331 0.200315 0.452730 -0.273090
C25   C     C_R   0.349347 0.069524 0.364511 0.591559
C26   C     C_R   0.649892 0.960004 0.550819 0.517546
C27   C     C_R   0.355695 0.173097 0.387537 -0.211788
C28   C     C_R   0.633040 0.853231 0.557423 -0.214782
C29   C     C_R   0.569199 0.135945 0.466338 0.461552
C30   C     C_R   0.423339 0.889665 0.447445 0.478401
C31   C     C_R   0.556928 0.029369 0.481199 -0.192356
C32   C     C_R   0.443554 0.993482 0.426206 -0.169741
H7    H     H_    0.705991 0.798070 0.607476 0.212811
H8    H     H_    0.279271 0.231483 0.352778 0.203115
N1    N     N_R   0.799120 0.480200 0.517090 -0.181457
N2    N     N_R   0.200880 0.519800 0.482910 -0.192863
C33   C     C_R   0.042684 0.633939 0.494675 0.551619
C34   C     C_R   0.962252 0.360567 0.519301 0.543806
C35   C     C_R   0.150334 0.617333 0.481722 -0.113658
C36   C     C_R   0.855521 0.381150 0.534003 -0.151295
C37   C     C_R   0.149526 0.433971 0.512225 0.563446
C38   C     C_R   0.852478 0.562603 0.487582 0.582016
C39   C     C_R   0.027985 0.446298 0.506930 -0.195961
C40   C     C_R   0.973883 0.548075 0.495898 -0.179495
H9    H     H_    0.810032 0.316659 0.549400 0.201759
H10   H     H_    0.202982 0.680545 0.485075 0.264404
O9    O     O_3   0.016867 0.725201 0.528404 -0.577164
C41   C     C_3   0.027596 0.819577 0.479552 -0.003264
H11   H     H_    0.030311 0.809786 0.410556 0.150657
H12   H     H_    0.106320 0.857200 0.526951 0.221011
H13   H     H_    0.948135 0.875471 0.464060 0.226728
O10   O     O_3   0.994443 0.260893 0.502254 -0.551157
C42   C     C_3   0.975543 0.177905 0.558861 -0.001862
H14   H     H_    0.881766 0.157681 0.524906 0.236890
H15   H     H_    0.997904 0.196287 0.632354 0.150833
H16   H     H_    0.034646 0.107135 0.563552 0.196408
O11   O     O_3   0.211612 0.647871 0.208244 -0.571849
C43   C     C_3   0.101416 0.601854 0.181631 -0.173331
H17   H     H_    0.053293 0.633698 0.221586 0.229726
H18   H     H_    0.115631 0.514336 0.199835 0.159637
H19   H     H_    0.042928 0.622632 0.104964 0.140797
O12   O     O_3   0.784439 0.354263 0.798810 -0.573713
C44   C     C_3   0.894382 0.400627 0.824465 -0.183892
H20   H     H_    0.879714 0.487260 0.801248 0.155208
H21   H     H_    0.945143 0.364422 0.788290 0.214474
H22   H     H_    0.950693 0.385215 0.901998 0.151790
S1    S     S_3+6 0.719485 0.523071 0.204600 0.048876
O13   O     O_2   0.730113 0.459751 0.293648 -0.239728
O14   O     O_2   0.843927 0.533653 0.210322 -0.330697
O15   O     O_3   0.651511 0.644264 0.192746 -0.465785
H23   H     H_    0.659327 0.683626 0.138385 0.355187
S2    S     S_3+6 0.268036 0.564894 0.767082 0.009480
O16   O     O_2   0.309524 0.465667 0.740724 -0.207082
O17   O     O_2   0.137650 0.560032 0.747818 -0.317667
O18   O     O_3   0.279961 0.670523 0.700173 -0.544074
H24   H     H_    0.239586 0.731078 0.714743 0.374958
S3    S     S_3+6 0.285448 0.868576 0.451917 -0.012735
O19   O     O_2   0.314501 0.813619 0.548801 -0.332785
O20   O     O_2   0.210678 0.969861 0.440843 -0.328143
O21   O     O_3   0.210549 0.794362 0.365160 -0.550165
H25   H     H_    0.140980 0.841004 0.318387 0.398976
S4    S     S_3+6 0.628127 0.163770 0.381221 0.039654
O22   O     O_2   0.677783 0.269745 0.388675 -0.298652
O23   O     O_2   0.724642 0.079265 0.393522 -0.265256
O24   O     O_3   0.516420 0.165221 0.272456 -0.527845
H26   H     H_    0.551710 0.189760 0.228400 0.389840
S5    S     S_3+6 0.238571 0.042761 0.254292 0.081739
O25   O     O_2   0.116369 0.050144 0.255119 -0.265573
O26   O     O_2   0.238028 0.124185 0.178565 -0.265954
O27   O     O_3   0.270219 0.921974 0.230086 -0.513196
H27   H     H_    0.201877 0.911810 0.169882 0.392573
S6    S     S_3+6 0.785048 0.000869 0.634784 0.027825
O28   O     O_2   0.778960 0.118622 0.637158 -0.336747
O29   O     O_2   0.808115 0.947371 0.730997 -0.285348
O30   O     O_3   0.898087 0.961401 0.607411 -0.558180
H28   H     H_    0.972306 0.963178 0.665962 0.374168
S7    S     S_3+6 0.767710 0.680124 0.414632 0.125419
O31   O     O_2   0.638366 0.665481 0.355979 -0.204780
O32   O     O_2   0.775672 0.766202 0.476011 -0.292796
O33   O     O_3   0.827221 0.720039 0.339061 -0.530682
H29   H     H_    0.786867 0.791497 0.310209 0.389216
S8    S     S_3+6 0.239232 0.317208 0.586819 0.116879
O34   O     O_2   0.369214 0.331963 0.643044 -0.234100
O35   O     O_2   0.192183 0.283230 0.658679 -0.289674
O36   O     O_3   0.228542 0.218873 0.519178 -0.517027
H30   H     H_    0.273277 0.156081 0.564248 0.388173

loop_
_geom_bond_atom_site_label_1
_geom_bond_atom_site_label_2
_geom_bond_distance
_ccdc_geom_bond_type
C28   H7    1.084562 S    
C15   C21   1.385174 A    
C16   C22   1.384993 A    
O24   H26   0.990567 S    
C36   H9    1.077530 S    
C9    O12   1.382875 S    
O11   C43   1.409687 S    
O30   H28   0.990500 S    
C8    C16   1.402555 A    
C11   H4    1.073044 S    
O33   H29   0.990757 S    
C5    C9    1.403976 A    
C12   H3    1.079222 S    
S3    O19   1.503143 D    
C43   H18   1.114044 S    
O1    C1    1.289248 A    
C18   C19   1.422081 A    
C14   C16   1.407440 A    
C19   S1    1.765295 S    
C29   S4    1.776722 S    
C37   C39   1.458631 A    
C34   O10   1.392679 S    
O27   H27   0.990506 S    
C38   C40   1.441733 A    
C35   H10   1.045079 S    
S6    O28   1.502619 D    
N1    C36   1.361734 A    
O4    Zn1   1.970169 S    
C42   H15   1.113696 S    
S8    O34   1.496997 D    
Zn1   N1    2.034436 S    
C3    C5    1.451166 S    
C24   C27   1.397987 A    
Zn2   N2    2.034438 S    
C4    C6    1.457617 S    
O10   C42   1.408825 S    
C43   H19   1.112188 S    
C38   S7    1.791427 S    
C6    C12   1.390191 A    
C21   H1    1.084946 S    
C13   C17   1.429394 A    
N2    C35   1.358872 A    
C6    C10   1.408795 A    
S7    O33   1.682463 S    
C29   C31   1.382592 A    
C39   C40   1.393378 A    
S3    O20   1.503686 D    
C17   C20   1.443298 A    
C25   C27   1.393786 A    
O2    C2    1.304916 A    
C26   C28   1.385843 A    
C33   C40   1.413599 A    
C30   C32   1.393312 A    
C34   C39   1.431458 A    
C33   C35   1.425720 A    
C24   C29   1.401976 A    
C34   C36   1.436688 A    
C43   H17   1.109451 S    
C41   H13   1.108538 S    
C44   H20   1.114076 S    
O4    C2    1.304130 A    
O18   H24   0.990938 S    
C44   H21   1.109627 S    
O15   H23   0.990587 S    
O3    C1    1.306044 A    
C25   S5    1.769257 S    
S8    O36   1.682253 S    
C22   H2    1.084848 S    
C42   H16   1.109230 S    
O5    C3    1.299752 A    
O7    Zn2   1.952671 S    
S1    O13   1.500925 D    
S2    O18   1.681561 S    
C5    C11   1.392443 A    
O6    C4    1.298906 A    
O21   H25   0.989518 S    
S5    O26   1.502977 D    
N1    C38   1.403354 A    
C7    H5    1.084212 S    
O7    C3    1.301173 A    
O36   H30   0.990607 S    
O3    Zn2   1.970168 S    
O8    C4    1.304980 A    
C23   C30   1.409878 A    
S1    O14   1.503802 D    
S2    O17   1.504416 D    
S3    O21   1.684889 S    
S4    O23   1.503407 D    
C11   C13   1.391098 A    
C12   C14   1.395262 A    
O1    Zn1   2.028074 S    
C20   S2    1.774435 S    
C17   C18   1.423051 A    
S7    O31   1.496735 D    
O6    Zn2   1.986721 S    
O12   C44   1.410242 S    
C14   C18   1.414615 A    
C31   C32   1.418604 A    
O8    Zn1   1.952672 S    
C44   H22   1.112489 S    
C27   H8    1.083455 S    
C23   C28   1.395450 A    
S4    O24   1.681809 S    
S6    O30   1.680697 S    
C7    C15   1.402789 A    
C41   H11   1.110121 S    
C8    H6    1.083988 S    
C19   C21   1.384002 A    
C20   C22   1.395583 A    
C33   O9    1.392969 S    
C30   S3    1.752245 S    
C7    C9    1.395440 A    
C25   C32   1.421463 A    
S6    O29   1.503608 D    
C10   O11   1.382971 S    
S5    O27   1.682084 S    
C8    C10   1.399829 A    
C26   C31   1.408033 A    
C13   C15   1.421433 A    
C42   H14   1.101605 S    
O2    Zn2   2.028074 S    
S8    O35   1.502585 D    
N2    C37   1.419448 A    
O9    C41   1.408813 S    
O5    Zn1   1.986721 S    
S1    O15   1.679781 S    
S2    O16   1.494101 D    
S4    O22   1.498588 D    
C1    C24   1.442221 S    
S5    O25   1.502754 D    
C2    C23   1.466109 S    
C26   S6    1.768882 S    
C41   H12   1.103912 S    
C37   S8    1.810210 S    
S7    O32   1.497951 D    
