data_mof_unit_13423.cif
_audit_creation_date              2013-03-05T16:36:13-0500
_audit_creation_method            fapswitch 2.2
_symmetry_space_group_name_H-M    P1
_symmetry_Int_Tables_number       1
_space_group_crystal_system       triclinic
_cell_length_a                    27.899559
_cell_length_b                    9.079774
_cell_length_c                    7.771344
_cell_angle_alpha                 90.021453
_cell_angle_beta                  90.000097
_cell_angle_gamma                 89.999968
_cell_volume                      1968.64986091

loop_
_atom_site_label
_atom_site_type_symbol
_atom_site_description
_atom_site_fract_x
_atom_site_fract_y
_atom_site_fract_z
_atom_type_partial_charge
O1    O     O_R   0.500000 0.288390 0.642760 -0.572162
O2    O     O_R   0.500000 0.711610 0.357240 -0.572163
O3    O     O_R   0.500000 0.711610 0.642760 -0.573418
O4    O     O_R   0.500000 0.288390 0.357240 -0.573420
C1    C     C_R   0.500002 0.219990 0.499986 0.847287
C2    C     C_R   0.500002 0.780010 0.500014 0.847287
O5    O     O_R   0.430260 0.500000 0.642770 -0.573806
O6    O     O_R   0.569740 0.500000 0.357230 -0.574032
O7    O     O_R   0.569740 0.500000 0.642770 -0.574032
O8    O     O_R   0.430260 0.500000 0.357230 -0.573808
C3    C     C_R   0.407149 0.499999 0.500000 0.787470
C4    C     C_R   0.592834 0.500000 0.500000 0.787770
Cu1   Cu    Cu3+1 0.500000 0.500000 0.669080 1.049554
Cu2   Cu    Cu3+1 0.500000 0.500000 0.330920 1.049552
C5    C     C_R   0.177544 0.370354 0.475956 0.541862
C6    C     C_R   0.822409 0.629493 0.525311 0.541862
C7    C     C_R   0.177544 0.629663 0.524077 0.541865
C8    C     C_R   0.822409 0.370524 0.474711 0.541860
O9    O     O_2   0.202288 0.244388 0.451014 -0.516721
O10   O     O_2   0.797671 0.755274 0.551604 -0.517216
O11   O     O_2   0.202288 0.755629 0.549017 -0.516720
O12   O     O_2   0.797671 0.244744 0.448417 -0.517217
N1    N     N_R   0.201573 0.500009 0.500016 -0.464396
N2    N     N_R   0.798374 0.500009 0.500011 -0.464192
C9    C     C_R   0.277984 0.567521 0.365954 -0.132262
C10   C     C_R   0.721944 0.430326 0.632571 -0.131676
C11   C     C_R   0.277985 0.432489 0.634065 -0.132260
C12   C     C_R   0.721944 0.569686 0.367443 -0.131677
C13   C     C_R   0.328035 0.568458 0.364536 -0.072527
C14   C     C_R   0.671893 0.429344 0.633911 -0.072985
C15   C     C_R   0.328036 0.431540 0.635469 -0.072518
C16   C     C_R   0.671893 0.570661 0.366095 -0.072989
C17   C     C_R   0.252974 0.500009 0.500014 0.324107
C18   C     C_R   0.746964 0.500008 0.500009 0.323138
C19   C     C_R   0.101645 0.500009 0.500017 -0.043664
C20   C     C_R   0.898308 0.500009 0.500013 -0.043593
C21   C     C_R   0.127235 0.367936 0.475758 -0.022166
C22   C     C_R   0.872719 0.631928 0.525405 -0.022066
C23   C     C_R   0.127235 0.632081 0.524276 -0.022166
C24   C     C_R   0.872719 0.368089 0.474619 -0.022065
C25   C     C_R   0.102252 0.236535 0.451440 -0.144193
C26   C     C_R   0.897702 0.763184 0.550857 -0.144445
C27   C     C_R   0.102251 0.763482 0.548596 -0.144193
C28   C     C_R   0.897702 0.236834 0.449164 -0.144446
C29   C     C_R   0.353958 0.499999 0.500001 -0.124228
C30   C     C_R   0.645995 0.500001 0.500002 -0.123743
H1    H     H_    0.258128 0.380261 0.737339 0.151861
H2    H     H_    0.741789 0.623598 0.265317 0.152662
H3    H     H_    0.258126 0.619747 0.262681 0.151860
H4    H     H_    0.741789 0.376415 0.734698 0.152662
H5    H     H_    0.121096 0.133468 0.432388 0.186060
H6    H     H_    0.878858 0.866113 0.571018 0.186405
H7    H     H_    0.121096 0.866548 0.567650 0.186059
H8    H     H_    0.878858 0.133905 0.429001 0.186405
C31   C     C_R   0.974478 0.365528 0.474348 0.045141
C32   C     C_R   0.025474 0.634548 0.525219 0.045147
C33   C     C_R   0.974478 0.634489 0.525681 0.045141
C34   C     C_R   0.025474 0.365469 0.474813 0.045147
C35   C     C_R   0.949319 0.500008 0.500014 0.067675
C36   C     C_R   0.050632 0.500008 0.500016 0.067602
C37   C     C_R   0.947435 0.235210 0.448888 -0.207174
C38   C     C_R   0.052519 0.765064 0.549153 -0.206792
C39   C     C_R   0.947435 0.764807 0.551135 -0.207173
C40   C     C_R   0.052519 0.234953 0.450883 -0.206792
H9    H     H_    0.963323 0.128885 0.427705 0.131763
H10   H     H_    0.036627 0.871567 0.568913 0.131169
H11   H     H_    0.963323 0.871133 0.572313 0.131763
H12   H     H_    0.036627 0.128449 0.431127 0.131168
C41   C     C_1   0.500004 0.065388 0.499979 -0.147836
C42   C     C_1   0.500004 0.934612 0.500020 -0.147838
N3    N     N_1   0.500000 0.500000 0.076820 -0.025667
N4    N     N_1   0.500000 0.500000 0.923180 -0.025667
C43   C     C_1   0.351490 0.355581 0.775563 0.296249
N5    N     N_1   0.370189 0.294769 0.887927 -0.246195
C44   C     C_1   0.648387 0.648972 0.227891 0.295066
N6    N     N_1   0.629642 0.711692 0.117057 -0.245721
C45   C     C_1   0.351487 0.644388 0.224419 0.296248
N7    N     N_1   0.370185 0.705174 0.112033 -0.246194
C46   C     C_1   0.648387 0.351020 0.772104 0.295067
N8    N     N_1   0.629641 0.288289 0.882929 -0.245722

loop_
_geom_bond_atom_site_label_1
_geom_bond_atom_site_label_2
_geom_bond_distance
_ccdc_geom_bond_type
C31   C35   1.422416 A    
Cu2   N3    1.974698 S    
C20   C35   1.423187 A    
C16   C44   1.445606 S    
C45   N7    1.157549 T    
C11   C17   1.395892 A    
C5    O9    1.349868 S    
C7    N1    1.367521 A    
O1    C1    1.271334 A    
C40   H12   1.074791 S    
C19   C21   1.408249 A    
C22   C26   1.394672 A    
C10   H4    1.084591 S    
C7    C23   1.403777 A    
C15   C43   1.445573 S    
C34   C36   1.422365 A    
C32   C33   1.422776 A    
C43   N5    1.157551 T    
C8    C24   1.403796 A    
C5    C21   1.403774 A    
C20   C24   1.408257 A    
O7    Cu1   1.956426 S    
C27   H7    1.083515 S    
N1    C17   1.434062 S    
C1    C41   1.403747 S    
C8    N2    1.367620 A    
O3    Cu1   1.932304 S    
C6    O10   1.349895 S    
O3    C2    1.271549 A    
C5    N1    1.367523 A    
C12   C18   1.396199 A    
C6    N2    1.367618 A    
Cu1   Cu2   2.627958 S    
C21   C25   1.394577 A    
O2    C2    1.271334 A    
C10   C18   1.396198 A    
C33   C39   1.417147 A    
C9    C13   1.396476 A    
C39   H11   1.074927 S    
C38   H10   1.074791 S    
C11   C15   1.396473 A    
C12   C16   1.396471 A    
C4    C30   1.483171 S    
O8    Cu2   1.956429 S    
C23   C27   1.394577 A    
C34   C40   1.417072 A    
N2    C18   1.434302 S    
C32   C36   1.422364 A    
C13   C29   1.420643 A    
C19   C36   1.423221 A    
C19   C23   1.408250 A    
C44   N6    1.157615 T    
C37   H9    1.074928 S    
O5    C3    1.283268 A    
C24   C28   1.394672 A    
O6    C4    1.283036 A    
C9    C17   1.395891 A    
C14   C46   1.445606 S    
C10   C14   1.396471 A    
C32   C38   1.417072 A    
C3    C29   1.483997 S    
O1    Cu1   1.932152 S    
C11   H1    1.084536 S    
C2    C42   1.403747 S    
C12   H2    1.084591 S    
O6    Cu2   1.956426 S    
C8    O12   1.349896 S    
C16   C30   1.420243 A    
C14   C30   1.420241 A    
O4    C1    1.271549 A    
Cu1   N4    1.974698 S    
C28   C37   1.387614 A    
C20   C22   1.408257 A    
N3    N4    1.193990 T    
C31   C37   1.417148 A    
O4    Cu2   1.932305 S    
C41   C42   1.187421 T    
O2    Cu2   1.932152 S    
O7    C4    1.283035 A    
C9    H3    1.084534 S    
C33   C35   1.422417 A    
O8    C3    1.283269 A    
C46   N8    1.157617 T    
C28   H8    1.083634 S    
O5    Cu1   1.956428 S    
C13   C45   1.445573 S    
C15   C29   1.420641 A    
C31   C34   1.422776 A    
C6    C22   1.403798 A    
C25   C40   1.387604 A    
C26   C39   1.387612 A    
C25   H5    1.083515 S    
C27   C38   1.387607 A    
C26   H6    1.083635 S    
C7    O11   1.349868 S    
