data_mof_unit_16492.cif
_audit_creation_date              2012-10-26T21:13:19-0400
_audit_creation_method            fapswitch 2.2
_symmetry_space_group_name_H-M    P1
_symmetry_Int_Tables_number       1
_space_group_crystal_system       triclinic
_cell_length_a                    13.357301
_cell_length_b                    15.814712
_cell_length_c                    17.095312
_cell_angle_alpha                 84.516807
_cell_angle_beta                  91.112059
_cell_angle_gamma                 110.86558
_cell_volume                      3358.5594382

loop_
_atom_site_label
_atom_site_type_symbol
_atom_type_description
_atom_site_fract_x
_atom_site_fract_y
_atom_site_fract_z
_atom_type_partial_charge
C1    C     C_R   0.500738 0.509890 0.348543 0.543928
C2    C     C_R   0.823405 0.582975 0.490901 -0.034864
C3    C     C_R   0.502072 0.513832 0.262589 -0.029051
C4    C     C_R   0.704370 0.549623 0.495531 0.589789
C5    C     C_R   0.507673 0.440036 0.225638 -0.163689
C6    C     C_R   0.511514 0.443628 0.143740 0.155799
C7    C     C_R   0.509876 0.522571 0.098368 0.244762
C8    C     C_R   0.506492 0.596539 0.135389 -0.152318
C9    C     C_R   0.501690 0.592168 0.216907 -0.183800
C10   C     C_R   0.494478 0.561034 0.856498 0.178421
C11   C     C_R   0.514876 0.567015 0.775584 0.224028
C12   C     C_R   0.983335 0.542114 0.488814 -0.016806
C13   C     C_R   0.466840 0.475592 0.901455 0.198481
C14   C     C_R   0.494472 0.486742 0.737802 -0.024140
C15   C     C_R   0.462566 0.402374 0.782754 -0.217092
C16   C     C_R   0.499538 0.490414 0.651580 0.555707
C17   C     C_R   0.449724 0.397183 0.863811 -0.162267
C18   C     C_R   0.558233 0.260962 0.469279 -0.009649
C19   C     C_R   0.551382 0.170146 0.472032 -0.157612
C20   C     C_R   0.469129 0.101009 0.516382 0.199212
C21   C     C_R   0.394724 0.127010 0.557181 0.121172
C22   C     C_R   0.407590 0.220168 0.553755 0.064363
C23   C     C_R   0.876518 0.526872 0.465880 -0.007848
C24   C     C_R   0.458382 0.827691 0.545211 0.217501
C25   C     C_R   0.455550 0.737740 0.544266 0.028646
C26   C     C_R   0.517204 0.895225 0.485568 0.212389
C27   C     C_R   0.570731 0.778391 0.433155 0.017991
C28   C     C_R   0.296178 0.451089 0.499570 0.573241
C29   C     C_R   0.574648 0.869658 0.428715 0.081872
C30   C     C_R   0.016092 0.332721 0.424190 0.265652
C31   C     C_R   0.179712 0.422382 0.487352 -0.042300
C32   C     C_R   0.885701 0.668950 0.515631 0.259388
C33   C     C_R   0.996379 0.691574 0.525348 0.118618
C34   C     C_R   0.028230 0.474174 0.479697 -0.021278
C35   C     C_R   0.043602 0.627977 0.513752 -0.131229
C36   C     C_3   0.227007 0.312862 0.357960 0.014713
C37   C     C_3   0.283873 0.247341 0.344986 -0.352147
C38   C     C_3   0.395209 0.647746 0.902660 -0.301751
C39   C     C_3   0.429389 0.291775 0.104811 -0.302026
C40   C     C_3   0.444648 0.840733 0.676123 -0.011690
C41   C     C_3   0.387754 0.873361 0.736238 -0.378037
C42   C     C_3   0.203068 0.064030 0.590053 -0.318326
C43   C     C_3   0.673125 0.908607 0.300052 -0.335633
C44   C     C_3   0.949991 0.252955 0.316011 0.004811
C45   C     C_R   0.970625 0.398574 0.437605 -0.055829
C46   C     C_3   0.962868 0.167984 0.289770 -0.366192
C47   C     C_3   0.146390 0.486515 0.644686 -0.007663
C48   C     C_3   0.208502 0.546618 0.706793 -0.375494
C49   C     C_3   0.851687 0.794620 0.465897 0.011992
C50   C     C_3   0.842888 0.881243 0.491496 -0.355865
C51   C     C_3   0.145652 0.833586 0.497653 -0.304771
C52   C     C_3   0.787411 0.547265 0.302555 -0.308885
C53   C     C_3   0.660627 0.684549 0.726141 0.001425
C54   C     C_3   0.698487 0.781015 0.686603 -0.356623
C55   C     C_R   0.870940 0.392468 0.406100 -0.109505
C56   C     C_R   0.828373 0.459879 0.413993 0.140847
C57   C     C_R   0.127217 0.477398 0.512815 0.193010
C58   C     C_R   0.123298 0.347814 0.444792 0.218686
Cu1   Cu    Cu3+1 0.505120 0.585970 0.496130 0.961419
Cu2   Cu    Cu3+1 0.494880 0.414030 0.503870 0.935584
H1    H     H_    0.507255 0.657769 0.100657 0.123819
H2    H     H_    0.610219 0.154636 0.439285 0.130463
H3    H     H_    0.620936 0.312295 0.434743 0.142173
H4    H     H_    0.129202 0.650515 0.519089 0.196632
H5    H     H_    0.287833 0.382428 0.357575 0.134618
H6    H     H_    0.173642 0.312791 0.307655 0.107569
H7    H     H_    0.325908 0.266422 0.287152 0.079601
H8    H     H_    0.343331 0.249921 0.391619 0.183520
H9    H     H_    0.225157 0.176833 0.346115 0.137048
H10   H     H_    0.554785 0.700231 0.867738 0.264901
H11   H     H_    0.340820 0.586582 0.938077 0.163643
H12   H     H_    0.498740 0.650392 0.244070 0.131881
H13   H     H_    0.404868 0.708183 0.934386 0.127630
H14   H     H_    0.358859 0.655702 0.844639 0.136867
H15   H     H_    0.589136 0.354711 0.129891 0.234183
H16   H     H_    0.405990 0.257197 0.164812 0.113902
H17   H     H_    0.444603 0.243595 0.067685 0.136889
H18   H     H_    0.362402 0.310642 0.078959 0.168783
H19   H     H_    0.531397 0.883682 0.675494 0.138971
H20   H     H_    0.434489 0.768938 0.695475 0.156839
H21   H     H_    0.300384 0.833595 0.736787 0.149516
H22   H     H_    0.419686 0.864175 0.795644 0.093344
H23   H     H_    0.446468 0.340064 0.755185 0.146877
H24   H     H_    0.401215 0.946540 0.721618 0.169228
H25   H     H_    0.309776 0.995504 0.608639 0.291432
H26   H     H_    0.196900 0.126046 0.611428 0.158301
H27   H     H_    0.142723 0.004463 0.623277 0.143196
H28   H     H_    0.183838 0.062247 0.526535 0.158266
H29   H     H_    0.618587 0.994463 0.358305 0.271206
H30   H     H_    0.714870 0.969203 0.258710 0.133134
H31   H     H_    0.603283 0.862701 0.269834 0.140581
H32   H     H_    0.731275 0.874495 0.316114 0.130478
H33   H     H_    0.010550 0.314692 0.285104 0.091423
H34   H     H_    0.426788 0.331562 0.897799 0.132109
H35   H     H_    0.870005 0.251772 0.296191 0.116568
H36   H     H_    0.895533 0.106593 0.313642 0.160461
H37   H     H_    0.962656 0.171066 0.224607 0.078081
H38   H     H_    0.039114 0.162085 0.311267 0.169298
H39   H     H_    0.166397 0.423528 0.650121 0.124909
H40   H     H_    0.059085 0.468351 0.656176 0.138783
H41   H     H_    0.190595 0.610290 0.703234 0.152868
H42   H     H_    0.185541 0.510184 0.766233 0.090951
H43   H     H_    0.295914 0.564078 0.697500 0.174201
H44   H     H_    0.788282 0.765961 0.422834 0.122561
H45   H     H_    0.511576 0.380197 0.260145 0.123437
H46   H     H_    0.930601 0.814125 0.435189 0.124500
H47   H     H_    0.906170 0.910535 0.534583 0.160821
H48   H     H_    0.853180 0.931817 0.439722 0.121538
H49   H     H_    0.763315 0.866682 0.518904 0.155536
H50   H     H_    0.084042 0.772862 0.607807 0.256016
H51   H     H_    0.177048 0.903622 0.515486 0.163610
H52   H     H_    0.116951 0.836462 0.436388 0.130971
H53   H     H_    0.212331 0.807032 0.499860 0.171418
H54   H     H_    0.708055 0.410680 0.333079 0.225470
H55   H     H_    0.813552 0.611283 0.331622 0.136599
H56   H     H_    0.407117 0.685329 0.587377 0.174385
H57   H     H_    0.722451 0.548335 0.261641 0.145883
H58   H     H_    0.855329 0.544348 0.267725 0.131428
H59   H     H_    0.687587 0.642011 0.689335 0.166437
H60   H     H_    0.699037 0.685891 0.784732 0.112294
H61   H     H_    0.786562 0.806213 0.676562 0.133491
H62   H     H_    0.658339 0.782324 0.629341 0.172919
H63   H     H_    0.678749 0.826320 0.724510 0.118388
H64   H     H_    0.827943 0.338614 0.370675 0.112750
H65   H     H_    0.353791 0.241482 0.586447 0.142583
H66   H     H_    0.613140 0.756778 0.390853 0.130406
N1    N     N_2   0.519070 0.532430 0.015710 -0.193405
N2    N     N_2   0.637914 0.936939 0.369347 -0.520570
N3    N     N_2   0.059097 0.777591 0.550621 -0.497793
N4    N     N_2   0.748908 0.468686 0.359895 -0.497426
N5    N     N_2   0.457045 0.465776 0.984482 -0.217721
N6    N     N_R   0.487180 0.284900 0.509690 -0.254788
N7    N     N_2   0.458358 0.006538 0.520974 -0.182212
N8    N     N_2   0.526073 0.989292 0.482014 -0.248474
N9    N     N_R   0.512820 0.715120 0.490310 -0.279091
N10   N     N_2   0.498765 0.640267 0.892000 -0.481220
N11   N     N_2   0.525582 0.371327 0.107413 -0.486078
N12   N     N_2   0.309218 0.060760 0.603187 -0.542065
O1    O     O_R   0.504790 0.580580 0.382450 -0.517934
O2    O     O_3   0.399385 0.847966 0.601509 -0.561437
O3    O     O_3   0.953539 0.249295 0.399138 -0.525926
O4    O     O_3   0.175304 0.534757 0.569878 -0.568305
O5    O     O_3   0.839146 0.730713 0.532321 -0.536706
O6    O     O_3   0.547714 0.651560 0.733307 -0.579643
O7    O     O_R   0.496140 0.435390 0.388990 -0.508758
O8    O     O_R   0.657420 0.608020 0.495150 -0.470001
O9    O     O_R   0.648770 0.462830 0.501690 -0.475211
O10   O     O_R   0.503860 0.564610 0.611010 -0.459797
O11   O     O_R   0.495210 0.419420 0.617550 -0.515363
O12   O     O_R   0.351230 0.537170 0.498310 -0.463307
O13   O     O_R   0.342580 0.391980 0.504850 -0.488622
O14   O     O_3   0.168574 0.284626 0.429763 -0.525794

loop_
_geom_bond_atom_site_label_1
_geom_bond_atom_site_label_2
_ccdc_geom_bond_type
H10   N10   S    
C55   C56   A    
C39   N11   S    
C28   O12   A    
C51   H52   S    
C37   H9    S    
C42   N12   S    
C30   C45   A    
C1    O7    A    
C19   C20   A    
C9    H12   S    
C54   H63   S    
C4    O8    A    
Cu2   N6    S    
C49   H44   S    
C51   N3    S    
C53   H60   S    
C7    C8    A    
C5    H45   S    
C53   C54   S    
C24   O2    S    
C37   H7    S    
C12   C23   A    
C51   H53   S    
C30   O3    S    
C57   O4    S    
C3    C9    A    
C39   H17   S    
C31   C58   A    
C36   C37   S    
C10   N10   S    
C5    C6    A    
C11   C14   A    
C36   H6    S    
C18   H3    S    
Cu1   O12   S    
C27   C29   A    
C41   H22   S    
C19   H2    S    
C37   H8    S    
C49   O5    S    
C47   H39   S    
H50   N3    S    
C2    C32   A    
C18   C19   A    
C32   O5    S    
C44   H33   S    
C33   C35   A    
C55   H64   S    
C18   N6    A    
C58   O14   S    
C8    C9    A    
C34   C57   A    
C40   H20   S    
C35   H4    S    
C42   H26   S    
Cu2   O9    S    
C38   N10   S    
C20   N7    S    
C11   O6    S    
C1    O1    A    
C8    H1    S    
C52   H57   S    
C54   H62   S    
C41   H21   S    
Cu1   Cu2   S    
C21   C22   A    
C50   H48   S    
H54   N4    S    
C21   N12   S    
C44   C46   S    
C6    C7    A    
C43   H30   S    
C39   H18   S    
C23   C56   A    
C24   C25   A    
H15   N11   S    
C25   H56   S    
C36   H5    S    
C36   O14   S    
C22   H65   S    
C15   H23   S    
C17   H34   S    
C48   H43   S    
C50   H49   S    
C43   H31   S    
C47   H40   S    
C1    C3    S    
Cu2   O13   S    
C2    C4    S    
C26   N8    S    
C47   C48   S    
C47   O4    S    
Cu1   O1    S    
C48   H42   S    
C13   N5    S    
C40   H19   S    
C34   C45   A    
C39   H16   S    
C12   C35   A    
C16   O11   A    
C26   C29   A    
C40   C41   S    
C46   H37   S    
N7    N8    D    
C14   C16   S    
C42   H28   S    
Cu2   O7    S    
C12   C34   A    
C38   H14   S    
C52   H55   S    
C33   N3    S    
C15   C17   A    
C38   H11   S    
C51   H51   S    
C22   N6    A    
C54   H61   S    
C28   C31   S    
C24   C26   A    
C3    C5    A    
C10   C13   A    
C43   N2    S    
C53   H59   S    
C49   H46   S    
C4    O9    A    
C43   H32   S    
C13   C17   A    
C16   O10   A    
C53   O6    S    
C27   N9    A    
C32   C33   A    
C31   C57   A    
C6    N11   S    
C52   N4    S    
C44   H35   S    
Cu1   O10   S    
C41   H24   S    
C50   H47   S    
C44   O3    S    
C48   H41   S    
C30   C58   A    
Cu1   N9    S    
C27   H66   S    
C40   O2    S    
Cu2   O11   S    
C46   H38   S    
C25   N9    A    
N1    N5    D    
C10   C11   A    
Cu1   O8    S    
C46   H36   S    
C20   C21   A    
C45   C55   A    
C28   O13   A    
C49   C50   S    
C29   N2    S    
C2    C23   A    
C14   C15   A    
C42   H27   S    
C7    N1    S    
H25   N12   S    
H29   N2    S    
C56   N4    S    
C38   H13   S    
C52   H58   S    
