data_mof_unit_67194.cif
_audit_creation_date              2012-12-11T18:15:16-0500
_audit_creation_method            fapswitch 2.2
_symmetry_space_group_name_H-M    P1
_symmetry_Int_Tables_number       1
_space_group_crystal_system       triclinic
_cell_length_a                    20.03708
_cell_length_b                    21.106435
_cell_length_c                    8.685769
_cell_angle_alpha                 90.638194
_cell_angle_beta                  92.42329
_cell_angle_gamma                 89.644842
_cell_volume                      3669.73716698

loop_
_atom_site_label
_atom_site_type_symbol
_atom_type_description
_atom_site_fract_x
_atom_site_fract_y
_atom_site_fract_z
_atom_type_partial_charge
Ba1   Ba    Ba6+2 0.999980 0.452130 0.155200 1.772466
Ba2   Ba    Ba6+2 0.999980 0.547870 0.655200 1.762908
Ba3   Ba    Ba6+2 0.499980 0.952130 0.155200 1.772452
Ba4   Ba    Ba6+2 0.499980 0.047870 0.655200 1.762909
C1    C     C_3   0.995970 0.129674 0.432090 0.157289
C2    C     C_3   0.991574 0.880836 0.892864 0.154866
C3    C     C_3   0.495971 0.629674 0.432082 0.157360
C4    C     C_3   0.491585 0.380840 0.892850 0.154869
C5    C     C_R   0.151050 0.347708 0.825032 0.101938
C6    C     C_R   0.153791 0.649643 0.315659 0.063618
C7    C     C_R   0.651049 0.847707 0.825034 0.101942
C8    C     C_R   0.653792 0.149643 0.315659 0.063617
C9    C     C_R   0.118235 0.342725 0.679204 0.119529
C10   C     C_R   0.121070 0.655302 0.167117 0.123832
C11   C     C_R   0.618234 0.842724 0.679206 0.119544
C12   C     C_R   0.621070 0.155303 0.167118 0.123829
C13   C     C_R   0.129634 0.291527 0.578831 -0.058536
C14   C     C_R   0.131102 0.707740 0.073144 -0.013564
C15   C     C_R   0.629633 0.791527 0.578832 -0.058520
C16   C     C_R   0.631102 0.207740 0.073145 -0.013565
C17   C     C_R   0.174816 0.243395 0.623796 0.050464
C18   C     C_R   0.177608 0.754316 0.118313 0.036644
C19   C     C_R   0.674816 0.743394 0.623797 0.050470
C20   C     C_R   0.677609 0.254315 0.118313 0.036639
C21   C     C_R   0.208067 0.244833 0.771820 -0.071221
C22   C     C_R   0.210408 0.753102 0.266242 -0.073513
C23   C     C_R   0.708066 0.744832 0.771822 -0.071217
C24   C     C_R   0.710409 0.253101 0.266241 -0.073521
C25   C     C_R   0.201056 0.299564 0.867911 -0.172478
C26   C     C_R   0.203321 0.698628 0.360371 -0.115574
C27   C     C_R   0.701055 0.799563 0.867913 -0.172475
C28   C     C_R   0.703323 0.198627 0.360369 -0.115578
C29   C     C_R   0.796769 0.699009 0.948885 -0.169703
C30   C     C_R   0.798669 0.300068 0.445062 -0.142329
C31   C     C_R   0.296770 0.199010 0.948884 -0.169700
C32   C     C_R   0.298666 0.800070 0.445066 -0.142327
C33   C     C_R   0.789808 0.753713 0.045322 -0.035725
C34   C     C_R   0.792510 0.245112 0.538554 -0.087150
C35   C     C_R   0.289808 0.253714 0.045320 -0.035725
C36   C     C_R   0.292506 0.745114 0.538559 -0.087154
C37   C     C_R   0.848227 0.651993 0.988557 0.082584
C38   C     C_R   0.849660 0.347769 0.486989 0.061704
C39   C     C_R   0.348227 0.151994 0.988555 0.082584
C40   C     C_R   0.349659 0.847769 0.486990 0.061714
C41   C     C_R   0.884799 0.659301 0.129563 -0.138966
C42   C     C_R   0.888105 0.338542 0.626237 -0.149732
C43   C     C_R   0.384801 0.159302 0.129561 -0.138969
C44   C     C_R   0.388105 0.838543 0.626237 -0.149735
C45   C     C_3   0.998361 0.190621 0.883157 0.482811
C46   C     C_3   0.995114 0.808468 0.398068 0.468599
C47   C     C_3   0.498370 0.690626 0.883167 0.482815
C48   C     C_3   0.495113 0.308467 0.398068 0.468599
C49   C     C_R   0.871876 0.709209 0.233306 -0.061734
C50   C     C_R   0.875666 0.288863 0.724853 0.032181
C51   C     C_R   0.371876 0.209210 0.233304 -0.061740
C52   C     C_R   0.375666 0.788864 0.724852 0.032200
C53   C     C_R   0.825935 0.756464 0.190142 0.110065
C54   C     C_R   0.829951 0.242487 0.682008 0.058351
C55   C     C_R   0.325936 0.256464 0.190141 0.110072
C56   C     C_R   0.329949 0.742488 0.682011 0.058352
C57   C     C_R   0.751363 0.693504 0.819436 0.427182
C58   C     C_R   0.753380 0.304661 0.315356 0.424275
C59   C     C_R   0.251364 0.193505 0.819435 0.427190
C60   C     C_R   0.253378 0.804662 0.315358 0.424271
C61   C     C_3   0.994919 0.117846 0.883421 -0.086013
C62   C     C_3   0.012444 0.876285 0.449460 -0.081446
C63   C     C_3   0.494929 0.617851 0.883411 -0.086022
C64   C     C_3   0.512436 0.376287 0.449445 -0.081443
C65   C     C_3   0.791826 0.469103 0.828824 0.982708
C66   C     C_3   0.784193 0.528145 0.325767 1.013764
C67   C     C_3   0.291825 0.969103 0.828823 0.982708
C68   C     C_3   0.284193 0.028145 0.325766 1.013766
C69   C     C_3   0.721969 0.438771 0.834672 0.617682
C70   C     C_3   0.710748 0.552255 0.335107 0.798305
C71   C     C_3   0.221968 0.938772 0.834669 0.617684
C72   C     C_3   0.210749 0.052255 0.335103 0.798390
C73   C     C_3   0.214340 0.529131 0.963018 0.398547
C74   C     C_3   0.215948 0.470954 0.467870 0.437915
C75   C     C_3   0.714340 0.029130 0.963019 0.398551
C76   C     C_3   0.715947 0.970954 0.467871 0.437910
C77   C     C_3   0.278318 0.554522 0.898866 -0.357824
C78   C     C_3   0.284449 0.445639 0.424921 -0.330284
C79   C     C_3   0.778318 0.054522 0.898867 -0.357824
C80   C     C_3   0.784448 0.945638 0.424924 -0.330278
C81   C     C_3   0.995784 0.201474 0.397785 0.610067
C82   C     C_3   0.014747 0.813696 0.943283 0.452759
C83   C     C_3   0.495789 0.701473 0.397785 0.610032
C84   C     C_3   0.514752 0.313699 0.943277 0.452760
C85   C     C_R   0.246015 0.304574 0.998458 0.422241
C86   C     C_R   0.248743 0.694318 0.489914 0.405560
C87   C     C_R   0.746014 0.804574 0.998459 0.422240
C88   C     C_R   0.748747 0.194316 0.489909 0.405535
H1    H     H_    0.725878 0.388041 0.800578 -0.005931
H2    H     H_    0.708080 0.603239 0.302204 -0.295400
H3    H     H_    0.225876 0.888042 0.800575 -0.005935
H4    H     H_    0.208081 0.103239 0.302195 -0.295502
H5    H     H_    0.170363 0.552901 0.906096 0.059935
H6    H     H_    0.176142 0.444584 0.402202 -0.017751
H7    H     H_    0.670363 0.052901 0.906097 0.059935
H8    H     H_    0.676141 0.944584 0.402202 -0.017744
H9    H     H_    0.321849 0.524698 0.936449 0.146956
H10   H     H_    0.324617 0.477259 0.472541 0.143268
H11   H     H_    0.821850 0.024698 0.936452 0.146957
H12   H     H_    0.824617 0.977258 0.472546 0.143277
H13   H     H_    0.287053 0.602516 0.946768 0.091726
H14   H     H_    0.293131 0.398212 0.474977 0.074451
H15   H     H_    0.787053 0.102516 0.946768 0.091719
H16   H     H_    0.793130 0.898211 0.474979 0.074447
H17   H     H_    0.275649 0.554026 0.771819 0.146733
H18   H     H_    0.288417 0.442561 0.298518 0.121391
H19   H     H_    0.775650 0.054025 0.771820 0.146733
H20   H     H_    0.788418 0.942561 0.298521 0.121388
H21   H     H_    0.991887 0.227508 0.509314 -0.194895
H22   H     H_    0.048354 0.819448 0.047783 -0.044221
H23   H     H_    0.491894 0.727507 0.509315 -0.194860
H24   H     H_    0.548360 0.319450 0.047776 -0.044214
H25   H     H_    0.037293 0.120184 0.518116 0.046177
H26   H     H_    0.034914 0.904656 0.842497 0.082140
H27   H     H_    0.537289 0.620180 0.518117 0.046147
H28   H     H_    0.534923 0.404650 0.842450 0.082145
H29   H     H_    0.988740 0.206452 0.762928 -0.036888
H30   H     H_    0.973658 0.810573 0.278279 -0.019224
H31   H     H_    0.488756 0.706463 0.762939 -0.036873
H32   H     H_    0.473658 0.310567 0.278276 -0.019230
H33   H     H_    0.997589 0.100325 0.003188 0.140496
H34   H     H_    0.029854 0.876529 0.572451 0.145183
H35   H     H_    0.497593 0.600325 0.003175 0.140502
H36   H     H_    0.529846 0.376537 0.572435 0.145163
H37   H     H_    0.946033 0.102413 0.831611 0.073000
H38   H     H_    0.966802 0.906409 0.437023 0.071717
H39   H     H_    0.446045 0.602418 0.831584 0.072996
H40   H     H_    0.466791 0.406407 0.437003 0.071711
O1    O     O_2   0.130070 0.404060 0.104920 -0.481988
O2    O     O_2   0.130070 0.595940 0.604920 -0.466758
O3    O     O_2   0.630070 0.904060 0.104920 -0.481991
O4    O     O_2   0.630070 0.095940 0.604920 -0.466759
O5    O     O_3   0.785307 0.465434 0.374786 -0.540269
O6    O     O_3   0.787198 0.532293 0.876460 -0.599071
O7    O     O_3   0.285307 0.965435 0.374786 -0.540277
O8    O     O_3   0.287198 0.032294 0.876460 -0.599069
O9    O     O_3   0.950107 0.213797 0.983451 -0.569921
O10   O     O_3   0.947986 0.784433 0.498525 -0.583567
O11   O     O_3   0.450108 0.713796 0.983447 -0.569948
O12   O     O_3   0.447985 0.284432 0.498525 -0.583567
O13   O     O_3   0.924190 0.533610 0.949240 -0.414906
O14   O     O_3   0.924190 0.466390 0.449240 -0.482031
O15   O     O_3   0.424190 0.033610 0.949240 -0.414907
O16   O     O_3   0.424190 0.966390 0.449240 -0.482029
O17   O     O_3   0.075780 0.466370 0.861070 -0.449943
O18   O     O_3   0.075780 0.533630 0.361070 -0.505446
O19   O     O_3   0.575780 0.966370 0.861070 -0.449942
O20   O     O_3   0.575780 0.033630 0.361070 -0.505443
O21   O     O_3   0.022320 0.344950 0.359800 -0.505421
O22   O     O_3   0.022320 0.655050 0.859800 -0.410162
O23   O     O_3   0.522320 0.844950 0.359800 -0.505454
O24   O     O_3   0.522320 0.155050 0.859800 -0.410160
O25   O     O_2   0.137489 0.304299 0.260670 -0.498963
O26   O     O_2   0.134675 0.697114 0.753506 -0.512750
O27   O     O_2   0.637492 0.804301 0.260673 -0.498966
O28   O     O_2   0.634676 0.197111 0.753510 -0.512746
O29   O     O_3   0.214810 0.464035 0.936956 -0.581269
O30   O     O_3   0.214803 0.534915 0.434378 -0.576394
O31   O     O_3   0.714810 0.964035 0.936955 -0.581268
O32   O     O_3   0.714803 0.034915 0.434378 -0.576397
O33   O     O_3   0.055153 0.215718 0.323567 -0.620090
O34   O     O_3   0.049714 0.784687 0.822739 -0.600983
O35   O     O_3   0.555157 0.715718 0.323563 -0.620110
O36   O     O_3   0.549717 0.284686 0.822734 -0.600990
O37   O     O_2   0.869860 0.403670 0.205810 -0.346055
O38   O     O_2   0.869860 0.596330 0.705810 -0.369496
O39   O     O_2   0.369860 0.903670 0.205810 -0.346058
O40   O     O_2   0.369860 0.096330 0.705810 -0.369496
O41   O     O_3   0.977590 0.344880 0.951200 -0.449233
O42   O     O_3   0.977590 0.655120 0.451200 -0.482481
O43   O     O_3   0.477590 0.844880 0.951200 -0.449257
O44   O     O_3   0.477590 0.155120 0.451200 -0.482480
O45   O     O_2   0.863725 0.300912 0.042092 -0.439568
O46   O     O_2   0.863905 0.696611 0.552053 -0.434157
O47   O     O_2   0.363724 0.800912 0.042090 -0.439584
O48   O     O_2   0.363904 0.196610 0.552052 -0.434153
P1    P     P_3+3 0.136530 0.426510 0.931350 1.049410
P2    P     P_3+3 0.136530 0.573490 0.431350 1.019773
P3    P     P_3+3 0.636530 0.926510 0.931350 1.049404
P4    P     P_3+3 0.636530 0.073490 0.431350 1.019770
P5    P     P_3+3 0.863410 0.426100 0.379280 1.188860
P6    P     P_3+3 0.863410 0.573900 0.879280 1.189219
P7    P     P_3+3 0.363410 0.926100 0.379280 1.188855
P8    P     P_3+3 0.363410 0.073900 0.879280 1.189219
P9    P     P_3+3 0.916933 0.286873 0.922023 1.015727
P10   P     P_3+3 0.914923 0.712035 0.429484 0.953707
P11   P     P_3+3 0.416933 0.786873 0.922022 1.015672
P12   P     P_3+3 0.414922 0.212035 0.429484 0.953712
P13   P     P_3+3 0.085372 0.711750 0.881058 0.984151
P14   P     P_3+3 0.086662 0.289573 0.383726 0.931361
P15   P     P_3+3 0.585373 0.211749 0.881058 0.984151
P16   P     P_3+3 0.586664 0.789573 0.383725 0.931314
N1    N     N_3   0.938235 0.217683 0.296437 -0.394408
H41   H     H_    0.937396 0.266662 0.282245 0.196409
H42   H     H_    0.894285 0.207214 0.350932 0.152039
N2    N     N_3   0.956828 0.776277 0.981595 -0.511856
H43   H     H_    0.935862 0.755354 0.881195 0.215264
H44   H     H_    0.974134 0.740097 0.053615 0.108177
N3    N     N_3   0.438238 0.717680 0.296445 -0.394427
H45   H     H_    0.437440 0.766650 0.282101 0.196542
H46   H     H_    0.394293 0.707280 0.351031 0.151949
N4    N     N_3   0.456831 0.276285 0.981593 -0.511845
H47   H     H_    0.435862 0.255363 0.881195 0.215268
H48   H     H_    0.474134 0.240103 0.053612 0.108173
O49   O     O_3   0.676087 0.467792 0.730493 -0.746372
H49   H     H_    0.666414 0.510563 0.772637 0.319234
O50   O     O_3   0.668421 0.515906 0.236420 -0.716130
H50   H     H_    0.658396 0.541457 0.142886 0.288464
O51   O     O_3   0.176087 0.967794 0.730489 -0.746373
H51   H     H_    0.166413 0.010564 0.772634 0.319235
O52   O     O_3   0.168422 0.015903 0.236422 -0.716113
H52   H     H_    0.158388 0.041458 0.142888 0.288459
O53   O     O_3   0.699570 0.443134 0.985184 -0.684544
H53   H     H_    0.651189 0.433135 0.979987 0.299564
O54   O     O_3   0.689999 0.547139 0.486097 -0.700129
H54   H     H_    0.641800 0.558260 0.484034 0.303529
O55   O     O_3   0.199567 0.943136 0.985181 -0.684542
H55   H     H_    0.151187 0.933136 0.979982 0.299568
O56   O     O_3   0.190000 0.047142 0.486095 -0.700133
H56   H     H_    0.141800 0.058261 0.484029 0.303526
N5    N     N_3   0.216772 0.541474 0.127484 -0.527594
H57   H     H_    0.265252 0.534277 0.173568 0.205602
H58   H     H_    0.187240 0.507204 0.175665 0.169346
N6    N     N_3   0.211309 0.464825 0.631463 -0.466480
H59   H     H_    0.219487 0.417575 0.659699 0.122028
H60   H     H_    0.163258 0.478741 0.657852 0.186758
N7    N     N_3   0.716772 0.041473 0.127485 -0.527596
H61   H     H_    0.765252 0.034276 0.173569 0.205600
H62   H     H_    0.687240 0.007203 0.175665 0.169348
N8    N     N_3   0.711308 0.964825 0.631463 -0.466479
H63   H     H_    0.719485 0.917575 0.659700 0.122026
H64   H     H_    0.663256 0.978741 0.657852 0.186757
N9    N     N_3   0.932618 0.110376 0.494740 -0.464502
H65   H     H_    0.922197 0.140585 0.586394 0.152158
H66   H     H_    0.938728 0.065007 0.540723 0.175396
N10   N     N_3   0.970480 0.919572 0.023400 -0.517549
H67   H     H_    0.012630 0.930875 0.092764 0.189504
H68   H     H_    0.937906 0.893816 0.089460 0.198500
N11   N     N_3   0.432614 0.610381 0.494713 -0.464473
H69   H     H_    0.422200 0.640577 0.586388 0.152151
H70   H     H_    0.438711 0.565005 0.540656 0.175379
N12   N     N_3   0.470512 0.419586 0.023389 -0.517540
H71   H     H_    0.512677 0.430908 0.092692 0.189504
H72   H     H_    0.437962 0.393831 0.089516 0.198481
N13   N     N_3   0.007552 0.092699 0.292267 -0.459051
H73   H     H_    0.057169 0.098854 0.263053 0.181564
H74   H     H_    0.003063 0.044611 0.317161 0.177765
N14   N     N_3   0.937230 0.877545 0.774758 -0.453091
H75   H     H_    0.929441 0.923049 0.730684 0.168657
H76   H     H_    0.892878 0.864993 0.825753 0.215093
N15   N     N_3   0.507557 0.592702 0.292257 -0.459038
H77   H     H_    0.557179 0.598847 0.263072 0.181558
H78   H     H_    0.503051 0.544613 0.317131 0.177758
N16   N     N_3   0.437228 0.377551 0.774776 -0.453092
H79   H     H_    0.429445 0.423053 0.730686 0.168653
H80   H     H_    0.392879 0.365013 0.825806 0.215108
N17   N     N_3   0.048898 0.089407 0.798106 -0.536745
H81   H     H_    0.092816 0.092050 0.867238 0.175920
H82   H     H_    0.038510 0.041165 0.783354 0.188365
N18   N     N_3   0.064813 0.902432 0.357564 -0.515135
H83   H     H_    0.110421 0.882723 0.396093 0.217985
H84   H     H_    0.068168 0.950780 0.383747 0.218364
N19   N     N_3   0.548914 0.589418 0.798106 -0.536749
H85   H     H_    0.592827 0.592053 0.867259 0.175905
H86   H     H_    0.538524 0.541177 0.783324 0.188369
N20   N     N_3   0.564801 0.402436 0.357542 -0.515137
H87   H     H_    0.610411 0.382731 0.396069 0.217993
H88   H     H_    0.568153 0.450784 0.383720 0.218350
O57   O     O_3   0.081318 0.393856 0.629238 -0.750959
H89   H     H_    0.093781 0.404058 0.523903 0.291212
O58   O     O_3   0.079704 0.609042 0.105299 -0.736246
H90   H     H_    0.099804 0.567227 0.121806 0.301605
O59   O     O_3   0.581317 0.893855 0.629240 -0.750958
H91   H     H_    0.593780 0.904058 0.523906 0.291213
O60   O     O_3   0.579704 0.109042 0.105301 -0.736244
H92   H     H_    0.599805 0.067227 0.121806 0.301605
N21   N     N_3   0.191447 0.195334 0.513770 -0.429942
H93   H     H_    0.148271 0.170028 0.483679 0.189185
H94   H     H_    0.209232 0.216471 0.415537 0.189397
N22   N     N_3   0.196681 0.800043 0.007697 -0.432830
H95   H     H_    0.154636 0.825646 0.970674 0.167423
H96   H     H_    0.215694 0.776807 0.912538 0.179468
N23   N     N_3   0.691446 0.695334 0.513772 -0.429950
H97   H     H_    0.648270 0.670027 0.483682 0.189184
H98   H     H_    0.709232 0.716471 0.415539 0.189395
N24   N     N_3   0.696684 0.300041 0.007696 -0.432831
H99   H     H_    0.654639 0.325644 0.970671 0.167421
H100  H     H_    0.715697 0.276805 0.912538 0.179468
N25   N     N_3   0.814539 0.806779 0.297348 -0.502113
H101  H     H_    0.858505 0.832532 0.315268 0.183242
H102  H     H_    0.799321 0.788406 0.401264 0.178208
N26   N     N_3   0.820773 0.194945 0.794202 -0.492798
H103  H     H_    0.839164 0.151717 0.755061 0.199086
H104  H     H_    0.771023 0.194103 0.824267 0.170887
N27   N     N_3   0.314540 0.306780 0.297347 -0.502112
H105  H     H_    0.358506 0.332532 0.315266 0.183245
H106  H     H_    0.299322 0.288406 0.401263 0.178207
N28   N     N_3   0.320773 0.694946 0.794203 -0.492786
H107  H     H_    0.339163 0.651718 0.755060 0.199089
H108  H     H_    0.271024 0.694104 0.824276 0.170884
N29   N     N_3   0.937137 0.615403 0.165138 -0.432162
H109  H     H_    0.925345 0.588254 0.259619 0.233068
H110  H     H_    0.979820 0.641867 0.187994 0.203776
N30   N     N_3   0.941345 0.379655 0.672246 -0.457615
H111  H     H_    0.971647 0.382277 0.579967 0.238865
H112  H     H_    0.923659 0.424277 0.702841 0.239047
N31   N     N_3   0.437139 0.115405 0.165134 -0.432159
H113  H     H_    0.425348 0.088255 0.259614 0.233066
H114  H     H_    0.479821 0.141870 0.187992 0.203774
N32   N     N_3   0.441345 0.879655 0.672245 -0.457608
H115  H     H_    0.471646 0.882277 0.579966 0.238869
H116  H     H_    0.423659 0.924277 0.702841 0.239047
O61   O     O_3   0.256949 0.362992 0.063256 -0.696394
H117  H     H_    0.233795 0.363089 0.161051 0.342195
O62   O     O_3   0.260692 0.636114 0.550411 -0.704915
H118  H     H_    0.234134 0.635197 0.642714 0.318043
O63   O     O_3   0.756950 0.862992 0.063254 -0.696397
H119  H     H_    0.733796 0.863090 0.161050 0.342198
O64   O     O_3   0.760697 0.136111 0.550405 -0.704919
H120  H     H_    0.734136 0.135193 0.642705 0.318046
O65   O     O_3   0.745173 0.635725 0.746857 -0.664538
H121  H     H_    0.696828 0.625783 0.739165 0.311006
O66   O     O_3   0.747506 0.361728 0.242392 -0.626281
H122  H     H_    0.699201 0.371908 0.231664 0.337225
O67   O     O_3   0.245173 0.135725 0.746857 -0.664535
H123  H     H_    0.196828 0.125783 0.739166 0.311002
O68   O     O_3   0.247506 0.861729 0.242391 -0.626281
H124  H     H_    0.199201 0.871910 0.231662 0.337230
N33   N     N_3   0.065093 0.211228 0.936445 -0.518298
H125  H     H_    0.065195 0.260444 0.947433 0.179873
H126  H     H_    0.075990 0.193083 0.046051 0.214755
N34   N     N_3   0.056244 0.770378 0.402856 -0.510801
H127  H     H_    0.048777 0.732330 0.327182 0.108803
H128  H     H_    0.065119 0.752625 0.513723 0.237550
N35   N     N_3   0.565099 0.711233 0.936483 -0.518301
H129  H     H_    0.565191 0.760446 0.947563 0.179953
H130  H     H_    0.576004 0.693056 0.046053 0.214714
N36   N     N_3   0.556246 0.270382 0.402869 -0.510799
H131  H     H_    0.548783 0.232330 0.327201 0.108808
H132  H     H_    0.565119 0.252632 0.513740 0.237557
O69   O     O_3   0.812697 0.466076 0.679060 -0.821362
H133  H     H_    0.789019 0.501183 0.626332 0.356090
O70   O     O_3   0.804214 0.530001 0.175084 -0.699984
H134  H     H_    0.787142 0.570807 0.134857 0.204748
O71   O     O_3   0.312697 0.966077 0.679060 -0.821363
H135  H     H_    0.289019 0.001183 0.626332 0.356089
O72   O     O_3   0.304215 0.030001 0.175082 -0.699982
H136  H     H_    0.287143 0.070806 0.134856 0.204756
O73   O     O_3   0.836917 0.436753 0.926312 -0.640548
H137  H     H_    0.837537 0.392822 0.887370 0.257459
O74   O     O_3   0.826982 0.565111 0.420530 -0.728285
H138  H     H_    0.819046 0.609583 0.390045 0.256588
O75   O     O_3   0.336915 0.936752 0.926312 -0.640546
H139  H     H_    0.337534 0.892822 0.887369 0.257462
O76   O     O_3   0.326982 0.065112 0.420528 -0.728284
H140  H     H_    0.319046 0.109583 0.390041 0.256591

loop_
_geom_bond_atom_site_label_1
_geom_bond_atom_site_label_2
_ccdc_geom_bond_type
N15   H78   S    
O75   H139  S    
C50   P9    S    
C51   C55   A    
C47   H31   S    
O56   H56   S    
C30   C38   A    
O34   P13   S    
C41   N29   S    
C25   C85   A    
C71   H3    S    
N33   H125  S    
N3    H46   S    
C80   H20   S    
C75   H7    S    
N22   H95   S    
Ba4   O16   S    
C34   C88   A    
N1    H42   S    
C17   N21   S    
C7    C11   A    
C68   O7    S    
C83   O35   S    
O21   P14   S    
C8    C12   A    
C84   O36   S    
C82   O34   S    
C66   C70   S    
N23   H98   S    
C69   H1    S    
C49   P10   S    
C64   H36   S    
C83   H23   S    
C9    O57   S    
C52   P11   S    
N8    H64   S    
N6    H59   S    
C60   O68   S    
C45   N33   S    
C58   O66   S    
C77   H13   S    
C21   C25   A    
O26   P13   D    
C23   C27   A    
O64   H120  S    
C3    H27   S    
C24   C28   A    
O24   P15   S    
Ba1   P1    S    
N36   H131  S    
N32   H115  S    
C13   C17   A    
C15   C19   A    
O52   H52   S    
C74   C78   S    
O74   H138  S    
C12   C16   A    
Ba1   O18   S    
C48   O12   S    
C75   N7    S    
N26   H103  S    
Ba1   P5    S    
C6    P2    S    
N20   H88   S    
C32   C40   A    
N34   H127  S    
Ba3   P7    S    
C47   O11   S    
O15   P8    S    
C56   N28   S    
C70   O50   S    
C81   O33   S    
Ba4   P8    S    
C67   O75   S    
C18   N22   S    
C72   H4    S    
C48   H32   S    
C72   O52   S    
C28   C88   A    
C29   C57   A    
N36   H132  S    
C4    N16   S    
O47   P11   D    
N2    H44   S    
O63   H119  S    
O76   H140  S    
C37   C41   A    
C31   C59   A    
C59   O67   S    
C32   C60   A    
C39   C43   A    
C35   C85   A    
C33   C53   A    
C40   C44   A    
C61   H33   S    
N14   H75   S    
Ba3   O15   S    
O71   H135  S    
C36   C56   A    
O14   P5    S    
Ba1   O13   S    
O72   H136  S    
O3    P3    D    
C77   H9    S    
Ba1   O41   S    
N13   H73   S    
O55   H55   S    
C79   H11   S    
C69   O49   S    
C86   O62   S    
N17   H81   S    
O38   P6    D    
C54   N26   S    
C57   O65   S    
C5    C9    A    
O23   P16   S    
N18   H83   S    
N29   H110  S    
C73   H5    S    
C31   C39   A    
C88   O64   S    
C1    C81   S    
C41   C49   A    
C15   P16   S    
Ba2   O22   S    
N9    H65   S    
C13   P14   S    
O2    P2    D    
Ba1   O1    S    
N30   H112  S    
O57   H89   S    
N28   H108  S    
C6    C10   A    
O53   H53   S    
C71   O51   S    
C62   H34   S    
C4    C84   S    
N25   H101  S    
C46   C62   S    
C45   H29   S    
O49   H49   S    
C78   H10   S    
C47   C63   S    
C38   P5    S    
O1    P1    D    
C22   C26   A    
C27   C87   A    
N31   H114  S    
C18   C22   A    
C80   H12   S    
C6    C26   A    
Ba3   Ba4   S    
C42   N30   S    
C65   O6    S    
C17   C21   A    
N12   H71   S    
O11   P11   S    
Ba4   O40   S    
C14   C18   A    
C68   O72   S    
C61   N17   S    
C20   C24   A    
N19   H85   S    
Ba2   O2    S    
O19   P3    S    
C67   O8    S    
N21   H94   S    
C2    C82   S    
C9    C13   A    
N22   H96   S    
N16   H79   S    
C48   N36   S    
N10   H67   S    
N5    H58   S    
C37   P6    S    
C78   H14   S    
O29   P1    S    
N1    H41   S    
C5    P1    S    
C40   P7    S    
Ba3   P3    S    
C20   N24   S    
C46   O10   S    
C24   C58   A    
C73   N5    S    
C70   H2    S    
O58   H90   S    
C46   H30   S    
C76   C80   S    
O33   P14   S    
N6    H60   S    
O73   H137  S    
O18   P2    S    
O51   H51   S    
Ba2   O13   S    
C11   C15   A    
Ba3   O20   S    
C1    N9    S    
O6    P6    S    
O46   P10   D    
N4    H48   S    
N32   H116  S    
N11   H69   S    
O10   P10   S    
C47   N35   S    
C30   C58   A    
C43   N31   S    
N24   H99   S    
C38   C42   A    
C64   H40   S    
C85   O61   S    
C76   O32   S    
C34   C54   A    
O22   P13   S    
C3    C83   S    
O36   P15   S    
C45   O9    S    
O60   H92   S    
C65   C69   S    
C16   P15   S    
C68   C72   S    
Ba4   O4    S    
N26   H104  S    
C4    N12   S    
O17   P1    S    
C62   N18   S    
C83   N3    S    
O5    P5    S    
N33   H126  S    
C72   O56   S    
C73   O29   S    
O25   P14   D    
O8    P8    S    
C1    N13   S    
C11   O59   S    
O9    P9    S    
N34   H128  S    
C84   N4    S    
O70   H134  S    
C49   C53   A    
O12   P12   S    
Ba4   O15   S    
O31   P3    S    
C29   C33   A    
C52   C56   A    
C31   C35   A    
N27   H105  S    
C76   N8    S    
N35   H129  S    
C73   C77   S    
C35   C55   A    
C42   C50   A    
Ba3   O23   S    
N7    H62   S    
Ba1   O21   S    
O42   P10   S    
O28   P15   D    
C55   N27   S    
Ba3   O43   S    
Ba4   O24   S    
C77   H17   S    
C79   H19   S    
N8    H63   S    
O54   H54   S    
N14   H76   S    
C3    N15   S    
N4    H47   S    
C61   H37   S    
C2    N14   S    
C29   C37   A    
C51   P12   S    
O66   H122  S    
C75   C79   S    
N19   H86   S    
C8    P4    S    
C39   P8    S    
C65   O69   S    
C81   H21   S    
C80   H16   S    
Ba3   O3    S    
O65   H121  S    
C87   O63   S    
O62   H118  S    
O35   P16   S    
C66   O5    S    
N18   H84   S    
N29   H109  S    
Ba4   O44   S    
N20   H87   S    
C36   C86   A    
C26   C86   A    
C19   N23   S    
N31   H113  S    
O67   H123  S    
C10   C14   A    
C21   C59   A    
O68   H124  S    
O16   P7    S    
C45   C61   S    
C78   H18   S    
O30   P2    S    
C12   O60   S    
O43   P11   S    
O44   P12   S    
C66   O74   S    
Ba1   Ba2   S    
Ba2   P2    S    
O41   P9    S    
C22   C60   A    
C23   C57   A    
C10   O58   S    
C66   O70   S    
N2    H43   S    
N11   H70   S    
C46   N34   S    
C70   O54   S    
C74   H6    S    
C67   O71   S    
C68   O76   S    
C19   C23   A    
O20   P4    S    
C48   C64   S    
C5    C25   A    
Ba2   O17   S    
C7    C27   A    
Ba3   O16   S    
C8    C28   A    
C14   P13   S    
O4    P4    D    
Ba1   O14   S    
O7    P7    S    
C74   N6    S    
O27   P16   D    
N12   H72   S    
N13   H74   S    
O45   P9    D    
C33   C87   A    
C16   C20   A    
C32   C36   A    
C7    P3    S    
O48   P12   D    
N17   H82   S    
N21   H93   S    
C2    N10   S    
C1    H25   S    
C65   O73   S    
C84   H24   S    
N16   H80   S    
Ba2   P6    S    
O50   H50   S    
C64   N20   S    
O32   P4    S    
C63   H35   S    
C63   N19   S    
N10   H68   S    
N5    H57   S    
C69   O53   S    
Ba4   P4    S    
C44   N32   S    
N27   H106  S    
N35   H130  S    
Ba2   O38   S    
C74   O30   S    
N9    H66   S    
N23   H97   S    
N15   H77   S    
N30   H111  S    
C4    H28   S    
C43   C51   A    
C50   C54   A    
C81   N1    S    
C44   C52   A    
Ba4   O19   S    
N28   H107  S    
C30   C34   A    
C63   H39   S    
C75   O31   S    
Ba2   O14   S    
O39   P7    D    
O13   P6    S    
C82   H22   S    
O37   P5    D    
N25   H102  S    
Ba2   O42   S    
C67   C71   S    
Ba3   O39   S    
O40   P8    D    
Ba1   O37   S    
C79   H15   S    
N24   H100  S    
O61   H117  S    
C53   N25   S    
C71   O55   S    
C3    N11   S    
N7    H61   S    
N3    H45   S    
O69   H133  S    
O59   H91   S    
C2    H26   S    
C76   H8    S    
C82   N2    S    
C62   H38   S    
