data_mof_unit_57432.cif
_audit_creation_date              2012-12-11T16:44:23-0500
_audit_creation_method            fapswitch 2.2
_symmetry_space_group_name_H-M    P1
_symmetry_Int_Tables_number       1
_space_group_crystal_system       triclinic
_cell_length_a                    27.181461
_cell_length_b                    7.200773
_cell_length_c                    22.829082
_cell_angle_alpha                 89.989484
_cell_angle_beta                  101.576917
_cell_angle_gamma                 89.993893
_cell_volume                      4377.37783787

loop_
_atom_site_label
_atom_site_type_symbol
_atom_type_description
_atom_site_fract_x
_atom_site_fract_y
_atom_site_fract_z
_atom_type_partial_charge
O1    O     O_R   0.707300 0.594030 0.176840 -0.531975
O2    O     O_R   0.292700 0.405970 0.823160 -0.531975
O3    O     O_R   0.792700 0.094030 0.323160 -0.531971
O4    O     O_R   0.207300 0.905970 0.676840 -0.531971
O5    O     O_R   0.697330 0.262360 0.295660 -0.540645
O6    O     O_R   0.302670 0.737640 0.704340 -0.540645
O7    O     O_R   0.802670 0.762360 0.204340 -0.540640
O8    O     O_R   0.197330 0.237640 0.795660 -0.540640
C1    C     C_R   0.684764 0.432475 0.311726 0.675783
C2    C     C_R   0.315236 0.567524 0.688274 0.675783
C3    C     C_R   0.815236 0.932482 0.188273 0.675830
C4    C     C_R   0.184764 0.067518 0.811727 0.675829
O9    O     O_R   0.701410 0.264250 0.175600 -0.534231
O10   O     O_R   0.298590 0.735750 0.824400 -0.534230
O11   O     O_R   0.798590 0.764250 0.324400 -0.534255
O12   O     O_R   0.201410 0.235750 0.675600 -0.534255
O13   O     O_R   0.796800 0.094950 0.202240 -0.539116
O14   O     O_R   0.203200 0.905050 0.797760 -0.539115
O15   O     O_R   0.703200 0.594950 0.297760 -0.539110
O16   O     O_R   0.296800 0.405050 0.702240 -0.539110
C5    C     C_R   0.689730 0.432510 0.153421 0.691676
C6    C     C_R   0.310270 0.567490 0.846579 0.691676
C7    C     C_R   0.810273 0.932461 0.346582 0.691661
C8    C     C_R   0.189727 0.067539 0.653418 0.691661
O17   O     O_3   0.781290 0.427390 0.258880 -0.373047
O18   O     O_3   0.218710 0.572610 0.741120 -0.373047
O19   O     O_3   0.718710 0.927390 0.241120 -0.373031
O20   O     O_3   0.281290 0.072610 0.758880 -0.373031
V1    V     V_3+5 0.744190 0.152150 0.248350 1.416113
V2    V     V_3+5 0.255810 0.847850 0.751650 1.416114
V3    V     V_3+5 0.755810 0.652150 0.251650 1.416120
V4    V     V_3+5 0.244190 0.347850 0.748350 1.416120
C9    C     C_R   0.155103 0.062999 0.594632 -0.050288
C10   C     C_R   0.844897 0.937001 0.405368 -0.050288
C11   C     C_R   0.344887 0.562730 0.905362 -0.050159
C12   C     C_R   0.655113 0.437269 0.094638 -0.050160
C13   C     C_R   0.140741 0.125477 0.488254 -0.045567
C14   C     C_R   0.859258 0.874525 0.511746 -0.045567
C15   C     C_R   0.359139 0.623404 0.011829 -0.045565
C16   C     C_R   0.640860 0.376584 0.988171 -0.045564
C17   C     C_R   0.172510 0.120196 0.544434 -0.191111
C18   C     C_R   0.827490 0.879805 0.455566 -0.191110
C19   C     C_R   0.327397 0.618674 0.955627 -0.191231
C20   C     C_R   0.672602 0.381315 0.044373 -0.191230
C21   C     C_R   0.104362 0.017570 0.589389 -0.202744
C22   C     C_R   0.895637 0.982429 0.410611 -0.202743
C23   C     C_R   0.395667 0.517970 0.910569 -0.202693
C24   C     C_R   0.604333 0.482036 0.089430 -0.202694
C25   C     C_R   0.069616 0.030362 0.533608 0.085002
C26   C     C_R   0.930384 0.969638 0.466392 0.085002
C27   C     C_R   0.430375 0.530157 0.966389 0.085018
C28   C     C_R   0.569625 0.469846 0.033611 0.085019
C29   C     C_R   0.088875 0.075079 0.481351 0.039930
C30   C     C_R   0.911124 0.924921 0.518648 0.039930
C31   C     C_R   0.411051 0.573650 0.018692 0.039900
C32   C     C_R   0.588949 0.426347 0.981308 0.039900
C33   C     C_R   0.016498 0.999442 0.528532 0.055741
C34   C     C_R   0.983502 0.000557 0.471468 0.055740
C35   C     C_R   0.483517 0.499770 0.971458 0.055741
C36   C     C_R   0.516483 0.500234 0.028542 0.055741
C37   C     C_R   0.004763 0.027135 0.420755 -0.216385
C38   C     C_R   0.995237 0.972864 0.579245 -0.216384
C39   C     C_R   0.495176 0.525681 0.079270 -0.216392
C40   C     C_R   0.504825 0.474322 0.920730 -0.216391
C41   C     C_R   0.055588 0.065725 0.424783 -0.075644
C42   C     C_R   0.944412 0.934274 0.575217 -0.075644
C43   C     C_R   0.444322 0.563739 0.075263 -0.075665
C44   C     C_R   0.555678 0.436261 0.924737 -0.075665
H1    H     H_    0.906489 0.026965 0.370009 0.098860
H2    H     H_    0.093511 0.973034 0.629990 0.098860
H3    H     H_    0.593429 0.525683 0.130086 0.098732
H4    H     H_    0.406572 0.474330 0.869913 0.098730
H5    H     H_    0.788429 0.838854 0.450717 0.112671
H6    H     H_    0.211571 0.161149 0.549284 0.112671
H7    H     H_    0.711706 0.340943 0.049187 0.112585
H8    H     H_    0.288293 0.659039 0.950813 0.112584
H9    H     H_    0.982568 0.014946 0.376195 0.126116
H10   H     H_    0.017432 0.985053 0.623804 0.126116
H11   H     H_    0.517356 0.512992 0.123823 0.126129
H12   H     H_    0.482644 0.487013 0.876177 0.126129
C45   C     C_R   0.872110 0.117648 0.135817 -0.154105
C46   C     C_R   0.127890 0.882352 0.864183 -0.154105
C47   C     C_R   0.627881 0.617625 0.364168 -0.154121
C48   C     C_R   0.372119 0.382375 0.635832 -0.154121
H13   H     H_    0.858830 0.245155 0.152448 0.125557
H14   H     H_    0.141170 0.754845 0.847552 0.125557
H15   H     H_    0.641155 0.745135 0.347527 0.125570
H16   H     H_    0.358845 0.254865 0.652473 0.125570
C49   C     C_R   0.907737 0.130320 0.099489 -0.133144
C50   C     C_R   0.092263 0.869680 0.900510 -0.133144
C51   C     C_R   0.592254 0.630294 0.400496 -0.133163
C52   C     C_R   0.407746 0.369706 0.599504 -0.133164
H17   H     H_    0.921091 0.266517 0.089961 0.103021
H18   H     H_    0.078909 0.733483 0.910038 0.103021
H19   H     H_    0.578896 0.766493 0.410014 0.103017
H20   H     H_    0.421104 0.233507 0.589986 0.103017
C53   C     C_R   0.926394 0.969758 0.076493 0.097775
C54   C     C_R   0.073606 0.030242 0.923507 0.097775
C55   C     C_R   0.573604 0.469731 0.423505 0.097785
C56   C     C_R   0.426396 0.530269 0.576495 0.097785
C57   C     C_R   0.908700 0.795660 0.091390 -0.131080
C58   C     C_R   0.091300 0.204340 0.908610 -0.131080
C59   C     C_R   0.591303 0.295631 0.408619 -0.131077
C60   C     C_R   0.408697 0.704369 0.591381 -0.131076
H21   H     H_    0.921754 0.669055 0.073946 0.102406
H22   H     H_    0.078246 0.330945 0.926054 0.102407
H23   H     H_    0.578252 0.169024 0.426072 0.102399
H24   H     H_    0.421748 0.830976 0.573928 0.102399
C61   C     C_R   0.873037 0.782802 0.127918 -0.151809
C62   C     C_R   0.126963 0.217198 0.872082 -0.151809
C63   C     C_R   0.626966 0.282775 0.372090 -0.151793
C64   C     C_R   0.373034 0.717225 0.627910 -0.151794
H25   H     H_    0.860015 0.646517 0.137896 0.121121
H26   H     H_    0.139986 0.353483 0.862105 0.121121
H27   H     H_    0.639993 0.146489 0.362123 0.121121
H28   H     H_    0.360007 0.853511 0.637877 0.121121
C65   C     C_R   0.854052 0.943809 0.150482 -0.051267
C66   C     C_R   0.145948 0.056191 0.849518 -0.051267
C67   C     C_R   0.645946 0.443788 0.349516 -0.051267
C68   C     C_R   0.354053 0.556212 0.650484 -0.051267
C69   C     C_R   0.003483 0.855719 0.041603 -0.137522
C70   C     C_R   0.996517 0.144281 0.958397 -0.137522
C71   C     C_R   0.496516 0.355745 0.458406 -0.137517
C72   C     C_R   0.503484 0.644255 0.541594 -0.137516
H29   H     H_    0.007522 0.744625 0.074182 0.118615
H30   H     H_    0.992477 0.255375 0.925818 0.118615
H31   H     H_    0.492476 0.244674 0.425833 0.118612
H32   H     H_    0.507524 0.755326 0.574167 0.118612
C73   C     C_R   0.038962 0.870924 0.005031 -0.139416
C74   C     C_R   0.961037 0.129076 0.994969 -0.139416
C75   C     C_R   0.461037 0.370970 0.494977 -0.139421
C76   C     C_R   0.538963 0.629030 0.505023 -0.139421
H33   H     H_    0.069276 0.770870 0.010503 0.116936
H34   H     H_    0.930724 0.229130 0.989497 0.116936
H35   H     H_    0.430723 0.270951 0.489511 0.116929
H36   H     H_    0.569277 0.729048 0.510489 0.116929
C77   C     C_R   0.035973 0.015349 0.962866 0.078063
C78   C     C_R   0.964027 0.984651 0.037134 0.078063
C79   C     C_R   0.464027 0.515368 0.537134 0.078057
C80   C     C_R   0.535973 0.484632 0.462866 0.078057
C81   C     C_1   0.071549 0.084359 0.368280 0.321981
N1    N     N_1   0.083705 0.098447 0.322698 -0.304411
C82   C     C_1   0.928451 0.915641 0.631720 0.321981
N2    N     N_1   0.916295 0.901552 0.677302 -0.304411
C83   C     C_1   0.428325 0.581267 0.131775 0.321909
N3    N     N_1   0.416142 0.594475 0.177365 -0.304393
C84   C     C_1   0.571675 0.418735 0.868225 0.321910
N4    N     N_1   0.583859 0.405528 0.822635 -0.304393
C85   C     C_1   0.163378 0.193532 0.440261 0.314065
N5    N     N_1   0.182031 0.248736 0.402348 -0.297861
C86   C     C_1   0.836622 0.806471 0.559740 0.314065
N6    N     N_1   0.817968 0.751269 0.597652 -0.297862
C87   C     C_1   0.336410 0.690161 0.059905 0.314088
N7    N     N_1   0.317681 0.744329 0.097883 -0.297805
C88   C     C_1   0.663588 0.309812 0.940096 0.314089
N8    N     N_1   0.682316 0.255631 0.902119 -0.297806

loop_
_geom_bond_atom_site_label_1
_geom_bond_atom_site_label_2
_ccdc_geom_bond_type
O17   V3    S    
C55   C59   A    
O1    C5    A    
O19   V1    S    
C9    C21   A    
C14   C86   S    
C72   C79   A    
O3    C7    A    
C84   N4    T    
C10   C18   A    
O1    V3    S    
O15   V3    S    
C62   C66   A    
C83   N3    T    
C61   C65   A    
C33   C38   A    
C5    C12   S    
C39   H11   S    
O7    C3    A    
C6    C11   S    
C35   C40   A    
C26   C30   A    
C15   C87   S    
C36   C39   A    
C40   C44   A    
O2    V4    S    
O9    V1    S    
C14   C18   A    
C75   H35   S    
O4    C8    A    
C57   C61   A    
C82   N2    T    
C45   C65   A    
C60   H24   S    
C52   H20   S    
O13   V1    S    
C48   C68   A    
C72   C76   A    
C59   C63   A    
C47   C67   A    
O3    V1    S    
C22   H1    S    
C28   C36   A    
C17   H6    S    
C1    O15   A    
C56   C60   A    
C15   C31   A    
C76   C80   A    
C37   H9    S    
C16   C32   A    
O2    C6    A    
C86   N6    T    
C16   C88   S    
C58   H22   S    
C10   C22   A    
C11   C19   A    
C62   H26   S    
C16   C20   A    
C12   C20   A    
C76   H36   S    
C72   H32   S    
C13   C29   A    
C34   C37   A    
O11   C7    A    
C11   C23   A    
C35   C36   A    
O12   C8    A    
C13   C17   A    
C40   H12   S    
C74   H34   S    
O10   V2    S    
C50   H18   S    
O5    V1    S    
C57   H21   S    
C39   C43   A    
O7    V3    S    
C38   C42   A    
C54   C77   S    
O8    V4    S    
C2    C68   S    
C2    O16   A    
C64   C68   A    
O18   V4    S    
C15   C19   A    
C42   C82   S    
C32   C44   A    
C71   C80   A    
O4    V2    S    
C49   C53   A    
C26   C34   A    
C69   C78   A    
C70   H30   S    
C20   H7    S    
C43   C83   S    
C56   C79   S    
C41   C81   S    
C71   H31   S    
C14   C30   A    
C21   C25   A    
O8    C4    A    
C7    C10   S    
C13   C85   S    
O9    C5    A    
C44   C84   S    
C4    C66   S    
C63   C67   A    
O6    V2    S    
C69   H29   S    
O14   V2    S    
C1    C67   S    
C73   H33   S    
C55   C80   S    
C58   C62   A    
C27   C35   A    
C46   C66   A    
C24   H3    S    
C3    C65   S    
C53   C78   S    
C64   H28   S    
C29   C41   A    
C52   C56   A    
C60   C64   A    
O16   V4    S    
C19   H8    S    
C3    O13   A    
C18   H5    S    
C71   C75   A    
C21   H2    S    
C38   H10   S    
C48   H16   S    
C70   C77   A    
O5    C1    A    
C47   H15   S    
O6    C2    A    
C25   C33   A    
C23   C27   A    
O11   V3    S    
C30   C42   A    
C61   H25   S    
O12   V4    S    
C47   C51   A    
C22   C26   A    
C8    C9    S    
C46   C50   A    
C9    C17   A    
O10   C6    A    
O20   V2    S    
C69   C73   A    
C45   C49   A    
C31   C43   A    
C54   C58   A    
C81   N1    T    
C46   H14   S    
C33   C34   A    
C25   C29   A    
C70   C74   A    
C12   C24   A    
C27   C31   A    
C49   H17   S    
C45   H13   S    
C23   H4    S    
C75   C79   A    
C51   H19   S    
C37   C41   A    
C24   C28   A    
C73   C77   A    
C63   H27   S    
C4    O14   A    
C88   N8    T    
C59   H23   S    
C48   C52   A    
C51   C55   A    
C87   N7    T    
C85   N5    T    
C50   C54   A    
C53   C57   A    
C28   C32   A    
C74   C78   A    
