data_mof_unit_28953.cif
_audit_creation_date              2012-12-11T15:41:23-0500
_audit_creation_method            fapswitch 2.2
_symmetry_space_group_name_H-M    P1
_symmetry_Int_Tables_number       1
_space_group_crystal_system       triclinic
_cell_length_a                    19.08854
_cell_length_b                    11.383543
_cell_length_c                    18.845896
_cell_angle_alpha                 90.04786
_cell_angle_beta                  89.837266
_cell_angle_gamma                 91.143866
_cell_volume                      4094.28921388

loop_
_atom_site_label
_atom_site_type_symbol
_atom_type_description
_atom_site_fract_x
_atom_site_fract_y
_atom_site_fract_z
_atom_type_partial_charge
C1    C     C_R   0.726581 0.954157 0.853295 0.565074
C2    C     C_R   0.313479 0.386009 0.027206 0.014280
C3    C     C_R   0.760489 0.864632 0.351680 0.531440
C4    C     C_2   0.500404 0.183839 0.920959 -0.120101
C5    C     C_2   0.490885 0.165210 0.075640 -0.019502
C6    C     C_2   0.000403 0.683836 0.920959 -0.120095
C7    C     C_2   0.990888 0.665210 0.075640 -0.019500
C8    C     C_2   0.448489 0.106558 0.029432 -0.131483
C9    C     C_2   0.462089 0.100513 0.952361 -0.205299
C10   C     C_2   0.948497 0.606547 0.029434 -0.131482
C11   C     C_2   0.962098 0.600502 0.952363 -0.205299
C12   C     C_R   0.749600 0.400155 0.080783 -0.030697
C13   C     C_R   0.185879 0.917919 0.969846 -0.006928
C14   C     C_R   0.239582 0.405285 0.924677 -0.001271
C15   C     C_R   0.249600 0.900149 0.080785 -0.030696
C16   C     C_R   0.739580 0.905291 0.924679 -0.001277
C17   C     C_3   0.602821 0.543337 0.615232 -0.031449
C18   C     C_3   0.364522 0.581551 0.352546 0.025464
C19   C     C_3   0.102821 0.043337 0.615232 -0.031446
C20   C     C_3   0.864522 0.081551 0.352546 0.025462
C21   C     C_2   0.631139 0.497404 0.423023 0.233419
C22   C     C_2   0.363016 0.531705 0.570565 0.196603
C23   C     C_2   0.131139 0.997404 0.423023 0.233419
C24   C     C_R   0.813479 0.886006 0.027206 0.014263
C25   C     C_2   0.863016 0.031706 0.570565 0.196603
C26   C     C_3   0.714649 0.220022 0.448706 -0.109965
C27   C     C_3   0.286440 0.226612 0.563370 -0.112015
C28   C     C_3   0.214648 0.720022 0.448706 -0.109965
C29   C     C_3   0.786440 0.726612 0.563370 -0.112018
C30   C     C_3   0.890260 0.251992 0.927216 -0.107918
C31   C     C_3   0.085611 0.357632 0.106333 -0.093008
C32   C     C_3   0.390267 0.752010 0.927215 -0.107917
C33   C     C_3   0.585615 0.857662 0.106345 -0.093001
C34   C     C_3   0.900938 0.271033 0.091940 -0.070294
C35   C     C_R   0.781935 0.282660 0.977741 0.258304
C36   C     C_3   0.064640 0.401070 0.941341 -0.056519
C37   C     C_3   0.400945 0.771040 0.091937 -0.070296
C38   C     C_3   0.564637 0.901103 0.941353 -0.056533
C39   C     C_3   0.585230 0.594955 0.863765 -0.080065
C40   C     C_3   0.491268 0.476335 0.066249 -0.109012
C41   C     C_3   0.085154 0.094851 0.863790 -0.080088
C42   C     C_3   0.991246 0.976338 0.066299 -0.108957
C43   C     C_2   0.503133 0.938972 0.564491 0.212566
C44   C     C_2   0.538619 0.959184 0.405029 0.291927
C45   C     C_2   0.003133 0.438972 0.564491 0.212567
C46   C     C_R   0.188541 0.401521 0.044307 0.261011
C47   C     C_2   0.038620 0.459184 0.405029 0.291927
C48   C     C_R   0.281941 0.782668 0.977739 0.258309
C49   C     C_R   0.688542 0.901539 0.044311 0.261023
C50   C     C_R   0.788554 0.307337 0.050732 0.272661
C51   C     C_R   0.180897 0.386829 0.970360 0.257451
C52   C     C_R   0.288560 0.807340 0.050731 0.272661
C53   C     C_R   0.272985 0.956142 0.146888 0.561960
C54   C     C_R   0.680895 0.886848 0.970364 0.257462
C55   C     C_3   0.679724 0.574471 0.026282 -0.177638
C56   C     C_3   0.374494 0.442632 0.939005 -0.212789
C57   C     C_3   0.179694 0.074443 0.026296 -0.177625
C58   C     C_3   0.874492 0.942624 0.939002 -0.212750
C59   C     C_3   0.667065 0.540295 0.949192 0.196408
C60   C     C_3   0.380669 0.455630 0.019113 0.176440
C61   C     C_3   0.167026 0.040268 0.949207 0.196426
C62   C     C_3   0.880669 0.955626 0.019108 0.176460
C63   C     C_R   0.731341 0.341385 0.936015 -0.053389
C64   C     C_R   0.226582 0.454156 0.853294 0.565085
C65   C     C_R   0.256234 0.402756 0.073412 -0.002789
C66   C     C_R   0.231341 0.841384 0.936016 -0.053395
C67   C     C_R   0.756236 0.902761 0.073414 -0.002783
C68   C     C_R   0.510061 0.168297 0.419244 -0.068371
C69   C     C_R   0.518827 0.159969 0.567322 -0.058913
C70   C     C_R   0.010061 0.668297 0.419244 -0.068372
C71   C     C_R   0.018827 0.659969 0.567322 -0.058912
C72   C     C_R   0.513652 0.269144 0.459797 -0.021762
C73   C     C_R   0.520824 0.264182 0.531507 0.061503
C74   C     C_R   0.013652 0.769144 0.459797 -0.021762
C75   C     C_R   0.772986 0.456143 0.146887 0.561970
C76   C     C_R   0.020824 0.764182 0.531507 0.061504
C77   C     C_R   0.518244 0.052340 0.527869 -0.021031
C78   C     C_R   0.521654 0.059201 0.452023 0.000152
C79   C     C_R   0.018244 0.552340 0.527869 -0.021032
C80   C     C_R   0.021654 0.559201 0.452023 0.000151
C81   C     C_R   0.529712 0.179260 0.849552 0.530063
C82   C     C_R   0.467402 0.177988 0.148784 0.564855
C83   C     C_R   0.029712 0.679259 0.849552 0.530071
C84   C     C_R   0.967402 0.677988 0.148784 0.564850
C85   C     C_3   0.458741 0.359345 0.466901 -0.158719
C86   C     C_R   0.696533 0.449215 0.039998 -0.109837
C87   C     C_3   0.469409 0.355533 0.544855 -0.201129
C88   C     C_3   0.958741 0.859344 0.466902 -0.158719
C89   C     C_3   0.969408 0.855533 0.544855 -0.201130
C90   C     C_R   0.760612 0.462053 0.432391 -0.052064
C91   C     C_R   0.235361 0.468116 0.565075 -0.072669
C92   C     C_R   0.260612 0.962052 0.432391 -0.052064
C93   C     C_R   0.735361 0.968116 0.565075 -0.072668
C94   C     C_R   0.814215 0.420487 0.471972 -0.003177
C95   C     C_R   0.185951 0.407247 0.528110 -0.010043
C96   C     C_R   0.314215 0.920487 0.471972 -0.003176
C97   C     C_R   0.305254 0.388613 0.953980 -0.102246
C98   C     C_R   0.685951 0.907247 0.528110 -0.010043
C99   C     C_R   0.810029 0.407329 0.544840 -0.135320
C100  C     C_R   0.190201 0.389217 0.456300 -0.120047
C101  C     C_R   0.310029 0.907329 0.544839 -0.135320
C102  C     C_R   0.690201 0.889217 0.456299 -0.120048
C103  C     C_R   0.689225 0.469002 0.541159 0.315403
C104  C     C_R   0.303208 0.492526 0.453131 0.313703
C105  C     C_R   0.189225 0.969002 0.541159 0.315402
C106  C     C_R   0.803207 0.992526 0.453131 0.313704
C107  C     C_R   0.695472 0.483613 0.466256 -0.014885
C108  C     C_R   0.196525 0.949193 0.040004 -0.109817
C109  C     C_R   0.298603 0.502933 0.529054 -0.009250
C110  C     C_R   0.195471 0.983613 0.466256 -0.014884
C111  C     C_R   0.798603 0.002933 0.529054 -0.009250
C112  C     C_3   0.836248 0.298269 0.462403 0.214906
C113  C     C_3   0.165914 0.283061 0.542578 0.182377
C114  C     C_3   0.336247 0.798268 0.462403 0.214906
C115  C     C_3   0.665914 0.783062 0.542578 0.182378
C116  C     C_3   0.838241 0.287530 0.540342 -0.160353
C117  C     C_3   0.164263 0.265147 0.463936 -0.160776
C118  C     C_3   0.338241 0.787530 0.540342 -0.160353
C119  C     C_R   0.805252 0.888610 0.953980 -0.102264
C120  C     C_3   0.664263 0.765147 0.463935 -0.160775
C121  C     C_R   0.748431 0.427815 0.580589 -0.006000
C122  C     C_R   0.248697 0.426599 0.417724 -0.043174
C123  C     C_R   0.248431 0.927814 0.580589 -0.006000
C124  C     C_R   0.748697 0.926600 0.417724 -0.043174
C125  C     C_R   0.725079 0.316979 0.859863 0.587840
C126  C     C_R   0.262665 0.362280 0.146702 0.582356
C127  C     C_R   0.225079 0.816980 0.859863 0.587841
C128  C     C_R   0.762665 0.862280 0.146703 0.582354
C129  C     C_R   0.715818 0.990380 0.639344 0.560014
C130  C     C_R   0.685890 0.417942 0.969839 -0.006915
C131  C     C_R   0.274880 0.968224 0.356015 0.556630
C132  C     C_R   0.215818 0.490380 0.639344 0.560013
C133  C     C_R   0.774880 0.468224 0.356015 0.556631
C134  C     C_R   0.534267 0.174337 0.642703 0.529921
C135  C     C_R   0.471662 0.176796 0.353032 0.527952
C136  C     C_R   0.034267 0.674337 0.642704 0.529923
C137  C     C_R   0.971662 0.676796 0.353032 0.527954
C138  C     C_R   0.739146 0.364107 0.647811 0.547429
C139  C     C_R   0.260489 0.364632 0.351680 0.531439
C140  C     C_R   0.239146 0.864107 0.647811 0.547435
Cr1   Cr    Cr6+3 0.769260 0.163750 0.750730 0.993359
Cr2   Cr    Cr6+3 0.385810 0.322400 0.252290 1.010029
Cr3   Cr    Cr6+3 0.114190 0.822400 0.747710 0.985294
Cr4   Cr    Cr6+3 0.885810 0.822400 0.252290 1.009998
Cr5   Cr    Cr6+3 0.230740 0.163750 0.249270 0.996819
Cr6   Cr    Cr6+3 0.269260 0.663750 0.750730 0.993371
Cr7   Cr    Cr6+3 0.730740 0.663750 0.249270 0.996825
Cr8   Cr    Cr6+3 0.612640 0.009910 0.748780 0.986319
Cr9   Cr    Cr6+3 0.387360 0.009910 0.251220 1.025686
Cr10  Cr    Cr6+3 0.112640 0.509910 0.748780 0.986333
Cr11  Cr    Cr6+3 0.887360 0.509910 0.251220 1.025688
Cr12  Cr    Cr6+3 0.614190 0.322400 0.747710 0.985328
H1    H     H_    0.401261 0.062049 0.048568 0.124288
H2    H     H_    0.423606 0.321386 0.575100 0.071834
H3    H     H_    0.121971 0.168874 0.851163 0.156315
H4    H     H_    0.031392 0.129779 0.861196 0.100805
H5    H     H_    0.976702 0.019946 0.116886 0.111378
H6    H     H_    0.001816 0.043203 0.024519 0.149092
H7    H     H_    0.040414 0.928480 0.075394 0.155742
H8    H     H_    0.484424 0.937198 0.618748 0.123112
H9    H     H_    0.583465 0.967474 0.369778 0.085522
H10   H     H_    0.984424 0.437198 0.618748 0.123111
H11   H     H_    0.083464 0.467475 0.369778 0.085524
H12   H     H_    0.975437 0.942574 0.441798 0.271424
H13   H     H_    0.923606 0.821386 0.575100 0.071833
H14   H     H_    0.889125 0.293953 0.439331 0.235043
H15   H     H_    0.114662 0.279701 0.568635 0.189965
H16   H     H_    0.389125 0.793953 0.439331 0.235044
H17   H     H_    0.614662 0.779701 0.568635 0.189965
H18   H     H_    0.801684 0.219163 0.559357 0.169721
H19   H     H_    0.202439 0.201214 0.444501 0.164252
H20   H     H_    0.301684 0.719162 0.559357 0.169721
H21   H     H_    0.441698 0.027195 0.921672 0.108922
H22   H     H_    0.702439 0.701215 0.444501 0.164252
H23   H     H_    0.890515 0.286198 0.564882 0.208006
H24   H     H_    0.110698 0.255334 0.442085 0.226390
H25   H     H_    0.390515 0.786197 0.564882 0.208007
H26   H     H_    0.610698 0.755335 0.442084 0.226390
H27   H     H_    0.538434 0.211110 0.058965 0.107185
H28   H     H_    0.513280 0.263569 0.950283 0.170036
H29   H     H_    0.038433 0.711121 0.058965 0.107204
H30   H     H_    0.013273 0.763571 0.950282 0.170074
H31   H     H_    0.225710 0.134713 0.033461 0.104281
H32   H     H_    0.901272 0.562030 0.048569 0.124288
H33   H     H_    0.872520 0.023822 0.907796 0.171575
H34   H     H_    0.725746 0.634723 0.033453 0.104271
H35   H     H_    0.372521 0.523831 0.907800 0.171592
H36   H     H_    0.631850 0.599620 0.055430 0.145183
H37   H     H_    0.410468 0.377329 0.915954 0.161955
H38   H     H_    0.131821 0.099566 0.055455 0.145146
H39   H     H_    0.910464 0.877318 0.915951 0.161951
H40   H     H_    0.705694 0.581710 0.911750 0.104716
H41   H     H_    0.373369 0.545795 0.039294 0.179918
H42   H     H_    0.205641 0.081712 0.911759 0.104760
H43   H     H_    0.941713 0.527177 0.921676 0.108915
H44   H     H_    0.873368 0.045794 0.039285 0.179903
H45   H     H_    0.646904 0.581580 0.646312 0.159076
H46   H     H_    0.566501 0.506047 0.655682 0.114890
H47   H     H_    0.572181 0.608933 0.586337 0.174541
H48   H     H_    0.310949 0.589638 0.330202 0.145618
H49   H     H_    0.398471 0.533006 0.315216 0.128003
H50   H     H_    0.390284 0.669054 0.353836 0.157934
H51   H     H_    0.146903 0.081580 0.646312 0.159086
H52   H     H_    0.066501 0.006046 0.655682 0.114886
H53   H     H_    0.072180 0.108933 0.586337 0.174540
H54   H     H_    0.905922 0.824866 0.451926 0.154170
H55   H     H_    0.810949 0.089639 0.330202 0.145619
H56   H     H_    0.898471 0.033007 0.315216 0.127996
H57   H     H_    0.890283 0.169054 0.353836 0.157933
H58   H     H_    0.627538 0.461108 0.369945 0.114663
H59   H     H_    0.368980 0.501730 0.624590 0.117055
H60   H     H_    0.127537 0.961108 0.369945 0.114660
H61   H     H_    0.868980 0.001730 0.624590 0.117053
H62   H     H_    0.682000 0.271744 0.412384 0.117474
H63   H     H_    0.705251 0.243789 0.504506 0.111776
H64   H     H_    0.693310 0.130228 0.442248 0.117268
H65   H     H_    0.993978 0.935253 0.566782 0.234260
H66   H     H_    0.310880 0.289500 0.601030 0.129835
H67   H     H_    0.297180 0.251629 0.507665 0.095964
H68   H     H_    0.312819 0.142568 0.572557 0.131830
H69   H     H_    0.182000 0.771743 0.412384 0.117473
H70   H     H_    0.205251 0.743788 0.504505 0.111776
H71   H     H_    0.193310 0.630228 0.442248 0.117268
H72   H     H_    0.810879 0.789500 0.601030 0.129833
H73   H     H_    0.797180 0.751629 0.507665 0.095966
H74   H     H_    0.812819 0.642569 0.572557 0.131830
H75   H     H_    0.933575 0.202778 0.951131 0.099467
H76   H     H_    0.405922 0.324866 0.451926 0.154169
H77   H     H_    0.896605 0.346554 0.940846 0.074351
H78   H     H_    0.898320 0.241870 0.869313 0.148295
H79   H     H_    0.086843 0.275880 0.074387 0.121495
H80   H     H_    0.032369 0.393806 0.102614 0.109319
H81   H     H_    0.093207 0.336817 0.163168 0.155383
H82   H     H_    0.433583 0.702786 0.951121 0.099461
H83   H     H_    0.396614 0.846566 0.940857 0.074343
H84   H     H_    0.398324 0.741908 0.869310 0.148305
H85   H     H_    0.586845 0.775905 0.074404 0.121484
H86   H     H_    0.532373 0.893838 0.102625 0.109323
H87   H     H_    0.493979 0.435253 0.566782 0.234261
H88   H     H_    0.593212 0.836857 0.163181 0.155389
H89   H     H_    0.911510 0.357716 0.066482 0.093300
H90   H     H_    0.933208 0.204637 0.066060 0.066776
H91   H     H_    0.920615 0.275181 0.147249 0.141855
H92   H     H_    0.078585 0.495283 0.950064 0.160867
H93   H     H_    0.024422 0.371866 0.980123 0.091560
H94   H     H_    0.040204 0.390576 0.888393 0.145324
H95   H     H_    0.411514 0.857727 0.066484 0.093302
H96   H     H_    0.433214 0.704648 0.066052 0.066800
H97   H     H_    0.420623 0.775181 0.147245 0.141853
H98   H     H_    0.475437 0.442574 0.441798 0.271423
H99   H     H_    0.578586 0.995314 0.950075 0.160865
H100  H     H_    0.524421 0.871903 0.980137 0.091572
H101  H     H_    0.540198 0.890609 0.888407 0.145327
H102  H     H_    0.588935 0.525996 0.822578 0.151722
H103  H     H_    0.622055 0.668993 0.851179 0.156415
H104  H     H_    0.531465 0.629883 0.861157 0.100850
H105  H     H_    0.476762 0.519988 0.116833 0.111356
H106  H     H_    0.501821 0.543163 0.024443 0.149137
H107  H     H_    0.540435 0.428465 0.075327 0.155744
H108  H     H_    0.088835 0.025864 0.822626 0.151801
O1    O     O_R   0.784290 0.290360 0.830540 -0.500990
O2    O     O_R   0.456020 0.282110 0.333230 -0.530213
O3    O     O_R   0.043980 0.782110 0.666770 -0.502269
O4    O     O_R   0.956020 0.782110 0.333230 -0.530213
O5    O     O_R   0.679070 0.374030 0.674430 -0.476903
O6    O     O_R   0.320930 0.374030 0.325570 -0.510331
O7    O     O_R   0.179070 0.874030 0.674430 -0.476898
O8    O     O_R   0.820930 0.874030 0.325570 -0.510329
O9    O     O_3   0.665360 0.165350 0.749070 -0.285818
O10   O     O_3   0.334640 0.165350 0.250930 -0.272683
O11   O     O_3   0.165360 0.665350 0.749070 -0.285817
O12   O     O_R   0.215710 0.290360 0.169460 -0.530201
O13   O     O_3   0.834640 0.665350 0.250930 -0.272679
O14   O     O_R   0.762610 0.041070 0.825230 -0.495465
O15   O     O_R   0.237390 0.041070 0.174770 -0.513609
O16   O     O_R   0.262610 0.541070 0.825230 -0.495468
O17   O     O_R   0.737390 0.541070 0.174770 -0.513601
O18   O     O_R   0.667390 0.924160 0.829970 -0.497509
O19   O     O_R   0.332610 0.924160 0.170030 -0.502914
O20   O     O_R   0.167390 0.424160 0.829970 -0.497481
O21   O     O_R   0.832610 0.424160 0.170030 -0.502921
O22   O     O_R   0.553980 0.081420 0.821780 -0.520336
O23   O     O_R   0.284290 0.790360 0.830540 -0.500977
O24   O     O_R   0.446020 0.081420 0.178220 -0.525615
O25   O     O_R   0.053980 0.581420 0.821780 -0.520335
O26   O     O_R   0.946020 0.581420 0.178220 -0.525604
O27   O     O_R   0.543210 0.283170 0.826740 -0.519825
O28   O     O_R   0.456790 0.283170 0.173260 -0.481280
O29   O     O_R   0.043210 0.783170 0.826740 -0.519868
O30   O     O_R   0.956790 0.783170 0.173260 -0.481325
O31   O     O_R   0.678350 0.375000 0.822720 -0.518240
O32   O     O_R   0.321650 0.375000 0.177280 -0.490045
O33   O     O_R   0.178350 0.875000 0.822720 -0.518266
O34   O     O_R   0.715710 0.790360 0.169460 -0.530207
O35   O     O_R   0.821650 0.875000 0.177280 -0.490059
O36   O     O_R   0.785060 0.289300 0.670580 -0.546525
O37   O     O_R   0.214940 0.289300 0.329420 -0.527110
O38   O     O_R   0.285060 0.789300 0.670580 -0.546525
O39   O     O_R   0.714940 0.789300 0.329420 -0.527110
O40   O     O_R   0.763330 0.040090 0.676940 -0.538100
O41   O     O_R   0.236670 0.040090 0.323060 -0.537090
O42   O     O_R   0.263330 0.540090 0.676940 -0.538099
O43   O     O_R   0.736670 0.540090 0.323060 -0.537088
O44   O     O_R   0.668160 0.923110 0.670000 -0.494473
O45   O     O_R   0.554690 0.080440 0.673480 -0.538543
O46   O     O_R   0.331840 0.923110 0.330000 -0.477513
O47   O     O_R   0.168160 0.423110 0.670000 -0.494467
O48   O     O_R   0.831840 0.423110 0.330000 -0.477514
O49   O     O_3   0.621914 0.452847 0.568014 -0.535148
O50   O     O_3   0.366868 0.528053 0.420807 -0.526526
O51   O     O_3   0.121914 0.952846 0.568014 -0.535149
O52   O     O_3   0.866868 0.028053 0.420806 -0.526524
O53   O     O_2   0.580917 0.549141 0.446528 -0.509033
O54   O     O_2   0.412659 0.584582 0.543883 -0.495882
O55   O     O_2   0.080917 0.049141 0.446528 -0.509034
O56   O     O_R   0.445310 0.080440 0.326520 -0.480202
O57   O     O_2   0.912659 0.084582 0.543883 -0.495882
O58   O     O_3   0.785838 0.225092 0.425651 -0.581675
O59   O     O_3   0.214618 0.212900 0.580575 -0.592407
O60   O     O_3   0.285838 0.725091 0.425651 -0.581675
O61   O     O_3   0.714617 0.712900 0.580575 -0.592409
O62   O     O_3   0.824915 0.199886 0.947635 -0.559895
O63   O     O_3   0.133991 0.445977 0.084638 -0.570861
O64   O     O_3   0.324923 0.699899 0.947632 -0.559893
O65   O     O_3   0.633996 0.946003 0.084643 -0.570870
O66   O     O_3   0.829212 0.235486 0.093160 -0.542797
O67   O     O_R   0.054690 0.580440 0.673480 -0.538543
O68   O     O_3   0.122431 0.327262 0.944617 -0.578252
O69   O     O_3   0.329219 0.735491 0.093158 -0.542800
O70   O     O_3   0.622425 0.827289 0.944625 -0.578273
O71   O     O_3   0.595077 0.546676 0.931908 -0.560697
O72   O     O_3   0.438355 0.395074 0.045976 -0.552767
O73   O     O_3   0.095029 0.046617 0.931942 -0.560687
O74   O     O_3   0.938357 0.895073 0.045970 -0.552770
O75   O     O_2   0.506831 0.845319 0.533747 -0.522569
O76   O     O_2   0.499748 0.873597 0.399328 -0.484365
O77   O     O_2   0.006831 0.345319 0.533748 -0.522569
O78   O     O_R   0.945310 0.580440 0.326520 -0.480201
O79   O     O_2   0.999749 0.373597 0.399328 -0.484366
O80   O     O_R   0.543980 0.282110 0.666770 -0.502264

loop_
_geom_bond_atom_site_label_1
_geom_bond_atom_site_label_2
_ccdc_geom_bond_type
C105  C110  A    
C55   C59   S    
C10   H32   S    
C42   H7    S    
C62   H44   S    
C2    C65   A    
Cr12  O80   S    
C25   O57   D    
C128  O34   A    
C27   O59   S    
C75   O17   A    
C29   O61   S    
C28   O60   S    
C126  O12   A    
Cr5   O15   S    
C11   H43   S    
C122  C139  S    
Cr6   O16   S    
Cr11  O21   S    
C134  O45   A    
Cr5   O37   S    
C39   H103  S    
C51   O68   S    
C17   O49   S    
C105  C123  A    
C38   O70   S    
C19   O51   S    
C5    H27   S    
Cr3   O29   S    
Cr1   O40   S    
Cr10  O47   S    
C31   H79   S    
C70   C74   A    
C17   H45   S    
C3    O8    A    
Cr10  O25   S    
C99   C121  A    
C41   H4    S    
C27   H68   S    
C96   C114  S    
Cr7   O17   S    
Cr7   O43   S    
C46   C65   A    
C99   C116  S    
C18   O50   S    
C32   H82   S    
C98   C102  A    
C26   H63   S    
C15   C108  A    
C41   H108  S    
Cr2   O10   S    
C68   C72   A    
C22   C109  S    
C14   C64   S    
C19   H51   S    
C140  O7    A    
C85   H76   S    
C3    O39   A    
C63   C125  S    
C131  O46   A    
C42   H5    S    
C44   H9    S    
C132  O47   A    
C43   O75   D    
C106  C111  A    
C103  C121  A    
C103  C107  A    
C32   H84   S    
C23   C110  S    
C6    C83   S    
C34   H91   S    
Cr1   O1    S    
C86   C130  A    
C72   C73   A    
C90   C107  A    
C5    C8    D    
C57   C61   S    
Cr8   O45   S    
C37   H95   S    
C12   C86   A    
C55   C86   S    
C25   H61   S    
C103  O49   S    
C5    C82   S    
C58   C119  S    
C17   H47   S    
C18   H49   S    
C2    C60   S    
C16   C54   A    
C137  O4    A    
C48   C52   A    
C84   O30   A    
C88   C89   S    
C27   H66   S    
C28   H70   S    
C52   O69   S    
C12   C75   S    
C106  C124  A    
C136  O67   A    
C35   C63   A    
C100  C117  S    
C29   H72   S    
C129  O44   A    
C69   C77   A    
C82   O24   A    
C71   C79   A    
C72   C85   S    
C115  O61   S    
C48   O64   S    
C74   C76   A    
C6    H30   S    
Cr3   O11   S    
C101  C118  S    
Cr9   O10   S    
C42   O74   S    
C104  C122  A    
C23   H60   S    
C112  O58   S    
C59   O71   S    
C92   C96   A    
C21   H58   S    
C63   C130  A    
C37   O69   S    
C33   H86   S    
C24   C67   A    
C38   H100  S    
C104  O50   S    
C9    H21   S    
Cr11  O78   S    
C76   C89   S    
C127  O33   A    
C26   O58   S    
C136  O3    A    
C36   H93   S    
C29   H74   S    
C13   C108  A    
Cr5   O41   S    
C60   H41   S    
C13   C66   A    
Cr6   O38   S    
Cr2   O32   S    
C87   H87   S    
C7    H29   S    
C71   C136  S    
Cr3   O33   S    
Cr1   O36   S    
Cr4   O30   S    
C88   H12   S    
C46   C51   A    
Cr5   O10   S    
C56   H35   S    
Cr12  O9    S    
C116  H18   S    
C125  O31   A    
C55   H36   S    
C8    H1    S    
C1    O14   A    
Cr7   O13   S    
C113  C117  S    
C120  H22   S    
Cr7   O39   S    
C41   O73   S    
C126  O32   A    
C112  C116  S    
Cr9   O56   S    
C24   C62   S    
C116  H23   S    
Cr8   O9    S    
C131  O41   A    
C68   C135  S    
C47   C80   S    
Cr2   O6    S    
C12   C50   A    
Cr7   O34   S    
C33   O65   S    
C32   O64   S    
C65   C126  S    
C44   C78   S    
C33   H88   S    
C67   C128  S    
C105  O51   S    
C18   H48   S    
C92   C110  A    
C98   C115  S    
Cr8   O44   S    
C56   C97   S    
C64   O20   A    
C94   C112  S    
Cr8   O18   S    
Cr9   O19   S    
C10   C11   S    
C25   C111  S    
C91   C95   A    
C57   C108  S    
C135  O2    A    
C125  O1    A    
C20   H55   S    
C48   C66   A    
C4    C9    D    
C60   O72   S    
C41   H3    S    
C58   C62   S    
C7    C10   D    
C27   H67   S    
C69   C134  S    
Cr4   O8    S    
C77   C78   A    
C31   H81   S    
Cr11  O48   S    
C30   O62   S    
Cr5   O12   S    
C15   C53   S    
C30   H77   S    
Cr6   O11   S    
C71   C76   A    
C102  C124  A    
C26   H64   S    
C55   H34   S    
C120  H26   S    
C73   C87   S    
C45   O77   D    
C4    C81   S    
C2    C97   A    
C69   C73   A    
C81   O27   A    
Cr1   O9    S    
C82   O28   A    
C83   O25   A    
C47   H11   S    
C50   O66   S    
C46   O63   S    
C132  O42   A    
C96   C101  A    
C58   H33   S    
C133  O43   A    
C59   H40   S    
C42   H6    S    
C134  O80   A    
C4    H28   S    
C93   C129  S    
C90   C94   A    
C68   C78   A    
C70   C80   A    
C36   H92   S    
C90   C133  S    
C95   C100  A    
C91   C132  S    
C56   C60   S    
Cr4   O13   S    
C45   H10   S    
C45   C79   S    
C133  O48   A    
C117  H19   S    
C14   C51   A    
C118  H20   S    
C137  O78   A    
C112  H14   S    
C22   H59   S    
C87   H2    S    
C17   H46   S    
C18   H50   S    
C1    C16   S    
C15   C52   A    
C31   O63   S    
Cr11  O13   S    
C93   C111  A    
Cr6   O42   S    
Cr9   O46   S    
C138  O5    A    
C62   O74   S    
C113  O59   S    
Cr3   O3    S    
Cr4   O4    S    
C6    C11   D    
C102  C120  S    
C3    C124  S    
C53   O19   A    
C75   O21   A    
C24   C119  A    
C40   H106  S    
C54   O70   S    
C30   H75   S    
C81   O22   A    
C61   O73   S    
Cr10  O11   S    
C113  H15   S    
C40   H105  S    
C114  H16   S    
C39   H104  S    
C47   O79   D    
Cr12  O5    S    
C26   H62   S    
C1    O18   A    
C49   O65   S    
C30   H78   S    
C19   H52   S    
Cr10  O20   S    
C33   H85   S    
C135  O56   A    
C38   H101  S    
C70   C137  S    
C58   H39   S    
Cr2   O2    S    
C74   C88   S    
C40   O72   S    
Cr2   O28   S    
C32   H83   S    
C128  O35   A    
C59   C130  S    
C34   H90   S    
C36   H94   S    
C29   H73   S    
C115  H17   S    
C106  O52   S    
C21   C107  S    
Cr12  O27   S    
C39   H102  S    
C64   O16   A    
C101  C123  A    
C37   H96   S    
Cr8   O22   S    
C95   C113  S    
C139  O37   A    
C104  C109  A    
Cr4   O35   S    
C49   C54   A    
C66   C127  S    
C127  O23   A    
C21   O53   D    
C8    C9    S    
C22   O54   D    
Cr3   O7    S    
C7    C84   S    
C85   H98   S    
C31   H80   S    
Cr1   O14   S    
C40   H107  S    
C85   C87   S    
C92   C131  S    
C138  O36   A    
C43   H8    S    
C16   C119  A    
C28   H69   S    
C140  O38   A    
C20   H57   S    
C123  C140  S    
C36   O68   S    
C121  C138  S    
C38   H99   S    
C53   O15   A    
C20   O52   S    
C35   C50   A    
C13   C61   S    
C23   O55   D    
C89   H13   S    
C114  C118  S    
C117  H24   S    
C139  O6    A    
Cr12  O31   S    
C20   H56   S    
Cr11  O26   S    
C57   H31   S    
C14   C97   A    
C84   O26   A    
C56   H37   S    
C49   C67   A    
C88   H54   S    
C39   O71   S    
C43   C77   S    
C34   O66   S    
C129  O40   A    
C35   O62   S    
C91   C109  A    
C57   H38   S    
C94   C99   A    
C83   O29   A    
C28   H71   S    
C37   H97   S    
C61   H42   S    
Cr9   O24   S    
C100  C122  A    
C89   H65   S    
C79   C80   A    
C118  H25   S    
Cr10  O67   S    
C44   O76   D    
C114  O60   S    
C115  C120  S    
C19   H53   S    
C93   C98   A    
Cr6   O23   S    
C34   H89   S    
