data_mof_unit_5841.cif
_audit_creation_date              2012-12-10T17:09:55-0500
_audit_creation_method            fapswitch 2.2
_symmetry_space_group_name_H-M    P1
_symmetry_Int_Tables_number       1
_space_group_crystal_system       triclinic
_cell_length_a                    10.797978
_cell_length_b                    13.017488
_cell_length_c                    11.687666
_cell_angle_alpha                 99.469205
_cell_angle_beta                  93.103935
_cell_angle_gamma                 91.311386
_cell_volume                      1617.24237785

loop_
_atom_site_label
_atom_site_type_symbol
_atom_type_description
_atom_site_fract_x
_atom_site_fract_y
_atom_site_fract_z
_atom_type_partial_charge
C1    C     C_R   0.499061 0.299399 0.478923 0.811480
C2    C     C_R   0.073118 0.592596 0.577484 0.013729
C3    C     C_R   0.129241 0.511489 0.503793 -0.040294
C4    C     C_R   0.057460 0.437946 0.426199 -0.185649
C5    C     C_R   0.929894 0.439632 0.424474 -0.199084
C6    C     C_R   0.871511 0.516681 0.497927 -0.083229
C7    C     C_R   0.503089 0.814130 0.531640 -0.065741
C8    C     C_R   0.503913 0.186665 0.466771 -0.059270
C9    C     C_R   0.539209 0.020464 0.349164 -0.193590
C10   C     C_R   0.528841 0.127513 0.359728 -0.196337
C11   C     C_R   0.485626 0.137927 0.562738 -0.207520
C12   C     C_R   0.262631 0.503482 0.501361 0.786314
C13   C     C_R   0.493929 0.030381 0.552648 0.108580
C14   C     C_R   0.524761 0.970746 0.445879 0.073815
C15   C     C_R   0.535903 0.862375 0.437601 0.336782
C16   C     C_R   0.472812 0.874290 0.636594 -0.249123
C17   C     C_R   0.470217 0.981869 0.647641 -0.185945
C18   C     C_R   0.388000 0.392939 0.023990 0.293804
C19   C     C_R   0.399663 0.405798 0.146752 -0.026719
C20   C     C_R   0.546554 0.544760 0.155430 0.068820
C21   C     C_R   0.538214 0.536463 0.033021 -0.054919
C22   C     C_R   0.455693 0.461583 0.965665 -0.064773
C23   C     C_R   0.500900 0.700768 0.520831 0.849953
C24   C     C_R   0.447093 0.457140 0.842016 0.585703
C25   C     C_R   0.603950 0.590224 0.855394 0.003789
C26   C     C_R   0.611912 0.600806 0.976936 -0.300729
C27   C     C_R   0.737641 0.505112 0.499574 0.814990
C28   C     C_R   0.144535 0.669910 0.654277 -0.309474
C29   C     C_R   0.087722 0.749705 0.726519 0.392667
C30   C     C_R   0.959719 0.757483 0.716010 -0.118974
C31   C     C_R   0.887465 0.687173 0.635019 0.293728
C32   C     C_R   0.942000 0.598480 0.570705 -0.008430
Cu1   Cu    Cu3+1 0.509250 0.507730 0.615930 0.997700
Cu2   Cu    Cu3+1 0.490750 0.492270 0.384070 0.964223
H1    H     H_    0.100644 0.376663 0.369017 0.145291
H2    H     H_    0.446408 0.026921 0.729538 0.169596
H3    H     H_    0.463665 0.183500 0.645047 0.189044
H4    H     H_    0.661927 0.639644 0.813087 0.182759
H5    H     H_    0.676304 0.658437 0.026753 0.160299
H6    H     H_    0.244559 0.670559 0.658646 0.157431
H7    H     H_    0.916412 0.822853 0.766522 0.178198
H8    H     H_    0.876184 0.378511 0.367470 0.151299
H9    H     H_    0.450004 0.837960 0.710071 0.167393
N1    N     N_R   0.523180 0.519350 0.790130 -0.208473
N2    N     N_R   0.476820 0.480650 0.209890 -0.200910
O1    O     O_R   0.506570 0.354460 0.582000 -0.535939
O2    O     O_R   0.490940 0.341410 0.386200 -0.602389
O3    O     O_R   0.327470 0.506530 0.597920 -0.559385
O4    O     O_R   0.311840 0.493480 0.402120 -0.586949
O5    O     O_R   0.509060 0.658590 0.613800 -0.588244
O6    O     O_R   0.493430 0.645540 0.418000 -0.535033
O7    O     O_R   0.688160 0.506520 0.597880 -0.551900
O8    O     O_R   0.672530 0.493470 0.402080 -0.596059
H10   H     H_    0.541768 0.164074 0.284203 0.161889
O9    O     O_3   0.361923 0.392232 0.771840 -0.669699
H11   H     H_    0.280260 0.404659 0.805541 0.340676
O10   O     O_3   0.315529 0.311867 0.961335 -0.726678
H12   H     H_    0.276261 0.271816 0.015705 0.320918
H13   H     H_    0.347801 0.354652 0.192212 0.126612
H14   H     H_    0.609572 0.602065 0.207439 0.164713
O11   O     O_3   0.155260 0.824043 0.804450 -0.718610
H15   H     H_    0.244398 0.807579 0.802472 0.319415
O12   O     O_3   0.767311 0.713777 0.613611 -0.732839
H16   H     H_    0.752783 0.703584 0.527972 0.311136
O13   O     O_3   0.578884 0.802292 0.339957 -0.744883
H17   H     H_    0.646312 0.842066 0.310936 0.309569
H18   H     H_    0.556062 0.977617 0.264312 0.155481

loop_
_geom_bond_atom_site_label_1
_geom_bond_atom_site_label_2
_ccdc_geom_bond_type
C24   N1    A    
C6    C32   A    
C9    C14   A    
C19   N2    A    
C30   H7    S    
C29   C30   A    
Cu2   O2    S    
C17   H2    S    
C25   H4    S    
C20   H14   S    
C1    C8    S    
C9    C10   A    
C18   O10   S    
C23   O6    A    
C20   N2    A    
C13   C17   A    
C30   C31   A    
O9    H11   S    
C19   H13   S    
C27   O8    A    
C12   O4    A    
Cu2   O6    S    
C4    H1    S    
Cu2   N2    S    
C18   C22   A    
C13   C14   A    
C27   O7    A    
C24   O9    S    
Cu1   O1    S    
C11   C13   A    
C16   H9    S    
O10   H12   S    
C5    C6    A    
C23   O5    A    
C9    H18   S    
C8    C11   A    
C7    C23   S    
C12   O3    A    
C25   N1    A    
C2    C32   A    
C28   C29   A    
C25   C26   A    
C21   C26   A    
Cu1   Cu2   S    
C2    C3    A    
O13   H17   S    
O11   H15   S    
C10   H10   S    
C22   C24   A    
C26   H5    S    
C16   C17   A    
C29   O11   S    
C28   H6    S    
O12   H16   S    
C15   O13   S    
C31   O12   S    
C5    H8    S    
C20   C21   A    
Cu2   O8    S    
C8    C10   A    
C18   C19   A    
C11   H3    S    
Cu1   O3    S    
C14   C15   A    
C1    O2    A    
Cu2   O4    S    
C2    C28   A    
C3    C12   S    
C1    O1    A    
C7    C15   A    
Cu1   O5    S    
C21   C22   A    
Cu1   N1    S    
C31   C32   A    
C7    C16   A    
C3    C4    A    
C6    C27   S    
C4    C5    A    
Cu1   O7    S    
