data_mof_unit_40374.cif
_audit_creation_date              2012-10-26T20:21:44-0400
_audit_creation_method            fapswitch 2.2
_symmetry_space_group_name_H-M    P1
_symmetry_Int_Tables_number       1
_space_group_crystal_system       triclinic
_cell_length_a                    15.60856
_cell_length_b                    15.109077
_cell_length_c                    9.607748
_cell_angle_alpha                 91.897282
_cell_angle_beta                  90.000047
_cell_angle_gamma                 89.999968
_cell_volume                      2264.56205124

loop_
_atom_site_label
_atom_site_type_symbol
_atom_type_description
_atom_site_fract_x
_atom_site_fract_y
_atom_site_fract_z
_atom_type_partial_charge
C1    C     C_R   0.124083 0.386798 0.498598 0.571740
C2    C     C_R   1.000000 0.577872 0.929497 0.094100
C3    C     C_R   1.000000 0.577941 0.078122 0.097656
C4    C     C_R   0.000000 0.422059 0.921878 0.097656
C5    C     C_R   0.500000 0.922128 0.070503 0.094100
C6    C     C_R   0.500000 0.077872 0.929497 0.094100
C7    C     C_R   0.500000 0.077941 0.078122 0.097656
C8    C     C_R   0.500000 0.922059 0.921878 0.097656
C9    C     C_R   0.779853 0.278507 0.371633 0.088295
C10   C     C_R   0.220146 0.721493 0.628367 0.088295
C11   C     C_R   0.234051 0.699663 0.377743 0.083853
C12   C     C_R   0.875917 0.613202 0.501402 0.571740
C13   C     C_R   0.765949 0.300337 0.622257 0.083853
C14   C     C_R   0.234051 0.300336 0.622258 0.083853
C15   C     C_R   0.765949 0.699663 0.377742 0.083853
C16   C     C_R   0.779853 0.721492 0.628367 0.088295
C17   C     C_R   0.220147 0.278508 0.371633 0.088295
C18   C     C_R   0.279853 0.778507 0.371633 0.088295
C19   C     C_R   0.720147 0.221493 0.628367 0.088295
C20   C     C_R   0.734051 0.199663 0.377742 0.083853
C21   C     C_R   0.265948 0.800337 0.622257 0.083853
C22   C     C_R   0.734051 0.800336 0.622258 0.083853
C23   C     C_R   0.875917 0.386798 0.498598 0.571740
C24   C     C_R   0.265949 0.199663 0.377742 0.083853
C25   C     C_R   0.279853 0.221492 0.628367 0.088295
C26   C     C_R   0.720147 0.778508 0.371633 0.088295
C27   C     C_R   0.196453 0.675704 0.504031 -0.023499
C28   C     C_R   0.803547 0.324296 0.495969 -0.023499
C29   C     C_R   0.803547 0.675704 0.504031 -0.023499
C30   C     C_R   0.196453 0.324296 0.495969 -0.023499
C31   C     C_R   0.696453 0.175704 0.504031 -0.023499
C32   C     C_R   0.303547 0.824296 0.495969 -0.023499
C33   C     C_R   0.303547 0.175704 0.504031 -0.023499
C34   C     C_R   0.124083 0.613202 0.501402 0.571739
C35   C     C_R   0.696453 0.824296 0.495969 -0.023499
C36   C     C_1   0.000001 0.338922 0.140362 0.301515
C37   C     C_1   1.000000 0.661078 0.859638 0.301515
C38   C     C_1   1.000000 0.661506 0.155618 0.300584
C39   C     C_1   0.000000 0.338494 0.844382 0.300584
C40   C     C_1   0.500000 0.838922 0.140362 0.301515
C41   C     C_1   0.499999 0.161078 0.859638 0.301515
C42   C     C_1   0.500000 0.161506 0.155618 0.300584
C43   C     C_1   0.500000 0.838494 0.844382 0.300584
C44   C     C_R   0.624083 0.886798 0.498598 0.571740
C45   C     C_R   0.375917 0.113202 0.501402 0.571740
C46   C     C_R   0.375917 0.886798 0.498598 0.571740
C47   C     C_R   0.624083 0.113202 0.501402 0.571739
C48   C     C_R   0.000000 0.422128 0.070503 0.094100
Cu1   Cu    Cu3+1 1.000000 0.500000 0.640660 1.064125
Cu2   Cu    Cu3+1 0.000000 0.500000 0.359340 1.064125
Cu3   Cu    Cu3+1 0.500000 0.000000 0.640660 1.064125
Cu4   Cu    Cu3+1 0.500000 0.000000 0.359340 1.064126
I1    I     I_    0.782587 0.339398 0.174956 -0.168638
I2    I     I_    0.717413 0.160602 0.825044 -0.168638
I3    I     I_    0.745319 0.106370 0.206097 -0.157230
I4    I     I_    0.254681 0.893629 0.793902 -0.157230
I5    I     I_    0.745319 0.893629 0.793903 -0.157230
I6    I     I_    0.254681 0.106371 0.206096 -0.157231
I7    I     I_    0.282583 0.160599 0.825041 -0.168638
I8    I     I_    0.717415 0.839400 0.174957 -0.168638
I9    I     I_    0.217414 0.660601 0.825043 -0.168638
I10   I     I_    0.245319 0.606370 0.206097 -0.157230
I11   I     I_    0.754681 0.393630 0.793903 -0.157230
I12   I     I_    0.245318 0.393628 0.793904 -0.157231
I13   I     I_    0.754681 0.606371 0.206096 -0.157231
I14   I     I_    0.782585 0.660600 0.825043 -0.168637
I15   I     I_    0.217417 0.339401 0.174958 -0.168637
I16   I     I_    0.282585 0.839399 0.174957 -0.168637
N1    N     N_R   0.000000 0.500000 0.852070 -0.264134
N2    N     N_1   0.499998 0.228175 0.804767 -0.212872
N3    N     N_1   0.500000 0.228883 0.216613 -0.222281
N4    N     N_1   0.500001 0.771117 0.783386 -0.222281
N5    N     N_R   1.000000 0.500000 0.147930 -0.264134
N6    N     N_R   0.500000 0.000000 0.852070 -0.264134
N7    N     N_R   0.500000 0.000000 0.147930 -0.264134
N8    N     N_1   0.000002 0.271825 0.195233 -0.212872
N9    N     N_1   1.000000 0.728175 0.804767 -0.212871
N10   N     N_1   0.999999 0.728883 0.216613 -0.222281
N11   N     N_1   1.000000 0.271117 0.783386 -0.222281
N12   N     N_1   0.500000 0.771825 0.195233 -0.212871
O1    O     O_R   0.090170 0.409820 0.618740 -0.487987
O2    O     O_R   0.409830 0.090180 0.381260 -0.487987
O3    O     O_R   0.409830 0.090180 0.618740 -0.485881
O4    O     O_R   0.590170 0.909820 0.381260 -0.485880
O5    O     O_R   0.409830 0.909820 0.381260 -0.485880
O6    O     O_R   0.590170 0.090180 0.618740 -0.485881
O7    O     O_R   0.590170 0.090180 0.381260 -0.487987
O8    O     O_R   0.409830 0.909820 0.618740 -0.487987
O9    O     O_R   0.909830 0.590180 0.381260 -0.487987
O10   O     O_R   0.909830 0.590180 0.618740 -0.485881
O11   O     O_R   0.090170 0.409820 0.381260 -0.485881
O12   O     O_R   0.909830 0.409820 0.381260 -0.485880
O13   O     O_R   0.090170 0.590180 0.618740 -0.485881
O14   O     O_R   0.090170 0.590180 0.381260 -0.487987
O15   O     O_R   0.909830 0.409820 0.618740 -0.487987
O16   O     O_R   0.590170 0.909820 0.618740 -0.487987

loop_
_geom_bond_atom_site_label_1
_geom_bond_atom_site_label_2
_ccdc_geom_bond_type
C10   C27   A    
C11   C18   A    
C43   N4    T    
C12   C29   S    
C33   C45   S    
C45   O2    A    
Cu3   N6    S    
Cu1   O10   S    
C11   I10   S    
C19   C31   A    
C22   I5    S    
C22   C35   A    
C12   O10   A    
Cu4   O5    S    
C18   I16   S    
C15   I13   S    
C7    C42   S    
Cu1   O1    S    
Cu4   O4    S    
C1    C30   S    
C9    C20   A    
C3    C38   S    
C6    C41   S    
C40   N12   T    
C13   C28   A    
C15   C29   A    
C2    N1    A    
C36   N8    T    
Cu3   O16   S    
C46   O5    A    
Cu4   N7    S    
C24   I6    S    
C10   C21   A    
C31   C47   S    
C17   C30   A    
C45   O3    A    
C9    I1    S    
C14   C30   A    
C20   I3    S    
Cu3   O6    S    
C4    N1    A    
C6    N6    A    
C46   O8    A    
C27   C34   S    
C21   C32   A    
C17   I15   S    
C17   C24   A    
C13   C19   A    
Cu3   Cu4   S    
C47   O6    A    
C12   O9    A    
Cu2   N5    S    
Cu2   O14   S    
C15   C26   A    
C7    N7    A    
C38   N10   T    
C16   C29   A    
C37   N9    T    
C47   O7    A    
C5    N7    A    
C44   O16   A    
C5    C8    A    
C26   C35   A    
Cu2   O9    S    
C13   I11   S    
C4    C39   S    
C11   C27   A    
C14   I12   S    
C8    N6    A    
C1    O1    A    
C23   C28   S    
Cu1   O15   S    
Cu4   O2    S    
C35   C44   S    
C19   I2    S    
Cu2   O12   S    
C10   I9    S    
C18   C32   A    
Cu3   O3    S    
C4    C48   A    
C16   C22   A    
C32   C46   S    
C48   N5    A    
Cu4   O7    S    
C34   O14   A    
C44   O4    A    
Cu3   O8    S    
C21   I4    S    
C6    C7    A    
C24   C33   A    
C2    C3    A    
C2    C37   S    
C8    C43   S    
C42   N3    T    
C23   O15   A    
C36   C48   S    
C14   C25   A    
C3    N5    A    
C34   O13   A    
Cu2   O11   S    
C16   I14   S    
C1    O11   A    
Cu1   Cu2   S    
C5    C40   S    
C25   C33   A    
C23   O12   A    
Cu1   N1    S    
C25   I7    S    
Cu1   O13   S    
C26   I8    S    
C9    C28   A    
C39   N11   T    
C41   N2    T    
C20   C31   A    
