data_mof_unit_44244.cif
_audit_creation_date              2012-12-11T16:37:58-0500
_audit_creation_method            fapswitch 2.2
_symmetry_space_group_name_H-M    P1
_symmetry_Int_Tables_number       1
_space_group_crystal_system       triclinic
_cell_length_a                    8.499024
_cell_length_b                    17.158035
_cell_length_c                    19.144179
_cell_angle_alpha                 99.037661
_cell_angle_beta                  93.877084
_cell_angle_gamma                 96.282828
_cell_volume                      2730.26545587

loop_
_atom_site_label
_atom_site_type_symbol
_atom_type_description
_atom_site_fract_x
_atom_site_fract_y
_atom_site_fract_z
_atom_type_partial_charge
Ba1   Ba    Ba6+2 0.849990 0.533510 0.465310 1.867326
Ba2   Ba    Ba6+2 0.339840 0.466550 0.534700 1.814618
C1    C     C_3   0.678072 0.833527 0.219485 0.247101
C2    C     C_R   0.025483 0.522293 0.724683 0.037325
C3    C     C_R   0.875213 0.418527 0.803903 -0.147265
C4    C     C_3   0.041546 0.699508 0.273368 0.408075
C5    C     C_R   0.803027 0.429360 0.739166 -0.015597
C6    C     C_R   0.333162 0.560982 0.183578 -0.062942
C7    C     C_R   0.385340 0.576438 0.256607 0.078991
C8    C     C_R   0.142546 0.455170 0.204066 -0.077748
C9    C     C_R   0.164427 0.482498 0.277895 0.093581
C10   C     C_R   0.000632 0.474657 0.840482 0.023652
C11   C     C_R   0.888889 0.472360 0.696189 -0.230003
C12   C     C_3   0.628005 0.791650 0.283357 0.843079
C13   C     C_R   0.210392 0.498144 0.153863 0.040841
C14   C     C_R   0.289377 0.542670 0.303860 -0.136394
C15   C     C_R   0.782514 0.430570 0.947947 -0.084414
C16   C     C_3   0.996204 0.730190 0.203182 0.473286
C17   C     C_R   0.681947 0.387409 0.985643 -0.085671
C18   C     C_R   0.729656 0.381577 0.054345 -0.083485
C19   C     C_R   0.877119 0.419005 0.084503 -0.013179
C20   C     C_R   0.996536 0.448311 0.042914 0.086299
C21   C     C_R   0.946361 0.450576 0.969508 0.056173
C22   C     C_R   0.157800 0.477663 0.072116 0.062540
C23   C     C_3   0.575325 0.288186 0.308600 0.752781
C24   C     C_R   0.268156 0.493947 0.021220 0.050009
C25   C     C_R   0.218167 0.493126 0.947517 0.041829
C26   C     C_R   0.055294 0.474371 0.920234 0.019630
C27   C     C_R   0.433081 0.508843 0.041582 -0.090663
C28   C     C_3   0.300710 0.718903 0.703679 0.697024
C29   C     C_R   0.537792 0.542611 0.999109 -0.025957
C30   C     C_R   0.490402 0.541838 0.928570 -0.063590
C31   C     C_R   0.337413 0.509228 0.902062 -0.078012
C32   C     C_R   0.385397 0.721455 0.487911 -0.203996
C33   C     C_R   0.532311 0.749521 0.525230 0.057559
C34   C     C_3   0.574436 0.221354 0.244834 -0.287489
C35   C     C_R   0.575110 0.831292 0.546646 0.033452
C36   C     C_R   0.478517 0.885014 0.523673 0.075529
C37   C     C_R   0.333135 0.856588 0.483382 0.024359
C38   C     C_R   0.285289 0.774445 0.466952 0.107616
C39   C     C_R   0.566319 0.165796 0.503748 -0.072256
C40   C     C_3   0.337328 0.710561 0.781628 -0.324753
C41   C     C_R   0.623559 0.245252 0.504669 0.030318
C42   C     C_R   0.867894 0.228639 0.571111 0.036362
C43   C     C_R   0.811171 0.148394 0.570165 -0.091618
C44   C     C_R   0.656810 0.118099 0.539273 0.003860
C45   C     C_3   0.093620 0.280535 0.730668 0.347408
C46   C     C_1   0.594276 0.036519 0.538065 0.062532
C47   C     C_1   0.539315 0.967959 0.533672 0.108580
C48   C     C_R   0.766189 0.277986 0.544685 -0.182797
C49   C     C_3   0.968884 0.266236 0.294121 0.714023
C50   C     C_3   0.012577 0.200557 0.236404 -0.064921
C51   C     C_3   0.716869 0.631524 0.675841 0.289906
C52   C     C_3   0.763435 0.654467 0.755251 -0.374245
C53   C     C_3   0.137918 0.243108 0.796187 0.110469
C54   C     C_3   0.559234 0.256302 0.695518 0.351006
C55   C     C_3   0.524413 0.178955 0.724070 -0.331926
C56   C     C_R   0.067730 0.531010 0.799118 -0.153513
H1    H     H_    0.372265 0.651085 0.785998 0.050245
H2    H     H_    0.882218 0.690247 0.764655 0.138981
H3    H     H_    0.766905 0.600545 0.780214 0.063706
H4    H     H_    0.675398 0.690009 0.780895 0.131463
H5    H     H_    0.693659 0.309571 0.335386 -0.028884
H6    H     H_    0.627764 0.169928 0.260101 0.148021
H7    H     H_    0.450405 0.199415 0.222719 0.144184
H8    H     H_    0.639724 0.242655 0.201831 0.079008
H9    H     H_    0.655561 0.789966 0.169419 0.018396
H10   H     H_    0.137428 0.345133 0.741723 0.049315
H11   H     H_    0.962129 0.272492 0.720496 -0.094560
H12   H     H_    0.438506 0.754862 0.806612 0.134002
H13   H     H_    0.269598 0.247900 0.804180 0.140951
H14   H     H_    0.690233 0.267700 0.694696 -0.099157
H15   H     H_    0.501853 0.248752 0.640631 0.047082
H16   H     H_    0.584780 0.131923 0.693882 0.077300
H17   H     H_    0.395021 0.159244 0.718042 0.141288
H18   H     H_    0.945243 0.655124 0.283574 0.035681
H19   H     H_    0.568697 0.187146 0.780991 0.120921
H20   H     H_    0.154629 0.579742 0.823603 0.058380
H21   H     H_    0.823061 0.369264 0.826634 0.070399
H22   H     H_    0.395493 0.596955 0.150618 0.139363
H23   H     H_    0.232107 0.720279 0.811808 0.118389
H24   H     H_    0.080242 0.396639 0.187117 0.033068
H25   H     H_    0.841984 0.471795 0.642148 0.045357
H26   H     H_    0.322736 0.556862 0.360341 0.065393
H27   H     H_    0.726309 0.450124 0.903070 0.074929
H28   H     H_    0.560525 0.366684 0.964497 0.088501
H29   H     H_    0.645711 0.354890 0.086306 0.102581
H30   H     H_    0.145719 0.667487 0.267219 0.062611
H31   H     H_    0.884119 0.428234 0.140843 0.119013
H32   H     H_    0.484096 0.494715 0.090485 0.062084
H33   H     H_    0.660569 0.560888 0.018782 0.178792
H34   H     H_    0.868120 0.290845 0.271428 -0.177516
H35   H     H_    0.576038 0.560252 0.893185 0.097262
H36   H     H_    0.316020 0.495521 0.845653 0.124019
H37   H     H_    0.454320 0.140808 0.474007 0.117235
H38   H     H_    0.259226 0.897649 0.464148 0.102443
H39   H     H_    0.887296 0.109753 0.591779 0.079012
H40   H     H_    0.687775 0.852816 0.577234 0.077253
H41   H     H_    0.349485 0.658111 0.474357 0.041182
H42   H     H_    0.874713 0.740209 0.203804 -0.009357
H43   H     H_    0.808116 0.340250 0.546801 0.064696
H44   H     H_    0.394209 0.697000 0.670788 -0.027444
H45   H     H_    0.926307 0.146264 0.233284 0.139628
H46   H     H_    0.890825 0.944072 0.342500 0.369252
H47   H     H_    0.056485 0.319306 0.452784 0.374539
H48   H     H_    0.105374 0.265737 0.164057 0.226444
H49   H     H_    0.904541 0.248031 0.155267 0.169051
H50   H     H_    0.385309 0.762072 0.165941 0.379457
H51   H     H_    0.375347 0.958336 0.165517 0.371081
H52   H     H_    0.560369 0.428130 0.188897 0.339303
H53   H     H_    0.924442 0.728340 0.042712 0.349386
H54   H     H_    0.959262 0.270063 0.859932 0.184084
H55   H     H_    0.135634 0.268622 0.904188 0.199390
H56   H     H_    0.132518 0.184499 0.250757 0.156619
H57   H     H_    0.123729 0.127561 0.744064 0.207621
H58   H     H_    0.950647 0.153042 0.772702 0.179941
H59   H     H_    0.048173 0.822589 0.148696 0.187379
H60   H     H_    0.073525 0.848921 0.236471 0.231481
H61   H     H_    0.088858 0.815383 0.627131 0.355477
H62   H     H_    0.815468 0.605605 0.649735 0.013598
H63   H     H_    0.609196 0.587264 0.667646 0.080898
H64   H     H_    0.806597 0.853387 0.227659 -0.003504
N1    N     N_3   0.008897 0.223311 0.165870 -0.497254
N2    N     N_3   0.081320 0.286568 0.859688 -0.527370
N3    N     N_3   0.073154 0.158875 0.786447 -0.465860
N4    N     N_3   0.091277 0.804133 0.195103 -0.369403
O1    O     O_2   0.880230 0.446130 0.326290 -0.446214
O2    O     O_2   0.179183 0.228225 0.536758 -0.421575
O3    O     O_3   0.166970 0.244248 0.672566 -0.620216
O4    O     O_3   0.127880 0.453050 0.414940 -0.462261
O5    O     O_3   0.568990 0.594210 0.536150 -0.510882
O6    O     O_2   0.359830 0.311600 0.465710 -0.416287
O7    O     O_3   0.476149 0.259786 0.356265 -0.603770
O8    O     O_2   0.502916 0.474134 0.759816 -0.510991
O9    O     O_3   0.498575 0.318218 0.738698 -0.586451
O10   O     O_3   0.652660 0.587690 0.369690 -0.406453
O11   O     O_2   0.690372 0.568679 0.239378 -0.445651
O12   O     O_3   0.686247 0.699809 0.648630 -0.621835
O13   O     O_3   0.095678 0.325763 0.312920 -0.590770
O14   O     O_3   0.698171 0.717957 0.281999 -0.663797
O15   O     O_2   0.829870 0.688430 0.534340 -0.438337
O16   O     O_3   0.069940 0.629350 0.405460 -0.539394
O17   O     O_2   0.964739 0.764727 0.455544 -0.388762
O18   O     O_2   0.610345 0.922120 0.384179 -0.252299
O19   O     O_2   0.701597 0.804151 0.420005 -0.308624
O20   O     O_3   0.896718 0.892916 0.359774 -0.497741
O21   O     O_2   0.787494 0.170916 0.368095 -0.343854
O22   O     O_2   0.075949 0.178436 0.388160 -0.271264
O23   O     O_3   0.068639 0.764122 0.330597 -0.537975
O24   O     O_3   0.942984 0.302341 0.437431 -0.606950
O25   O     O_2   0.380820 0.730324 0.337104 -0.454060
O26   O     O_2   0.353113 0.856190 0.297379 -0.201319
O27   O     O_3   0.349080 0.729279 0.201052 -0.572822
O28   O     O_2   0.616658 0.985344 0.268547 -0.213985
O29   O     O_2   0.691831 0.955472 0.147744 -0.277473
O30   O     O_3   0.406324 0.905529 0.171158 -0.477191
O31   O     O_2   0.344608 0.340566 0.235346 -0.397795
O32   O     O_2   0.483483 0.432143 0.338279 -0.320279
O33   O     O_3   0.628104 0.405568 0.222777 -0.552352
O34   O     O_2   0.309470 0.553890 0.673760 -0.508363
O35   O     O_2   0.141267 0.652223 0.095174 -0.295003
O36   O     O_2   0.912828 0.581120 0.140546 -0.332562
O37   O     O_3   0.859613 0.686981 0.062625 -0.530159
O38   O     O_2   0.219584 0.862503 0.759388 -0.265614
O39   O     O_2   0.468146 0.861106 0.701931 -0.299304
O40   O     O_3   0.202149 0.832135 0.621908 -0.550427
O41   O     O_3   0.061830 0.547010 0.585070 -0.466449
O42   O     O_3   0.537040 0.412370 0.630320 -0.487698
O43   O     O_3   0.149803 0.680009 0.675725 -0.658233
O44   O     O_3   0.620720 0.405850 0.463860 -0.445550
O45   O     O_3   0.119760 0.370720 0.594550 -0.488761
P1    P     P_3+3 0.050120 0.424430 0.337400 1.105578
P2    P     P_3+3 0.655220 0.678730 0.555760 1.027239
P3    P     P_3+3 0.098106 0.732811 0.413661 1.129015
P4    P     P_3+3 0.139590 0.575630 0.662610 0.950058
P5    P     P_3+3 0.080724 0.267976 0.594302 0.997035
P6    P     P_3+3 0.595347 0.621683 0.289600 1.111372
P7    P     P_3+3 0.532872 0.304748 0.444668 1.112576
P8    P     P_3+3 0.586524 0.408007 0.718581 0.927634
S1    S     S_3+6 0.707026 0.855186 0.364034 -0.001194
S2    S     S_3+6 0.940775 0.224591 0.372671 -0.109561
S3    S     S_3+6 0.420604 0.778645 0.281299 -0.084818
S4    S     S_3+6 0.598308 0.923207 0.203002 -0.014640
S5    S     S_3+6 0.501611 0.369338 0.276608 -0.107982
S6    S     S_3+6 0.982866 0.659220 0.124119 -0.104934
S7    S     S_3+6 0.300078 0.822109 0.698579 -0.071153

loop_
_geom_bond_atom_site_label_1
_geom_bond_atom_site_label_2
_ccdc_geom_bond_type
C41   P7    S    
C17   C18   A    
H49   N1    S    
C17   H28   S    
C31   H36   S    
C51   H62   S    
C50   H45   S    
C36   C47   S    
C52   H2    S    
C43   C44   A    
C25   C31   A    
H47   O24   S    
Ba1   P2    S    
C24   C25   A    
C15   C21   A    
O44   P7    S    
C32   C38   A    
C28   S7    S    
C45   C53   S    
C33   C35   A    
C7    C14   A    
C22   C24   A    
H54   N2    S    
O38   S7    D    
C8    C13   A    
C36   C37   A    
C32   C33   A    
C50   N1    S    
O29   S4    D    
O7    P7    S    
Ba1   O41   S    
C18   H29   S    
Ba1   O44   S    
C40   H12   S    
C4    H30   S    
C54   C55   S    
O23   P3    S    
C23   H5    S    
C2    C11   A    
H51   O30   S    
C45   H11   S    
O35   S6    D    
Ba1   O16   S    
Ba2   O4    S    
C4    O23   S    
H50   O27   S    
C53   N3    S    
O4    P1    S    
C6    C7    A    
C54   H14   S    
C2    P4    S    
H48   N1    S    
Ba2   O6    S    
C39   C44   A    
O3    P5    S    
C24   C27   A    
O31   S5    D    
O33   S5    S    
C3    H21   S    
Ba1   O10   S    
C23   O7    S    
H59   N4    S    
C1    H64   S    
Ba2   O45   S    
C10   C56   A    
O21   S2    D    
C30   H35   S    
C9    P1    S    
C19   C20   A    
O15   P2    D    
C39   C41   A    
C40   H23   S    
C16   H42   S    
C35   H40   S    
C12   S3    S    
O30   S4    S    
Ba2   O5    S    
O24   S2    S    
C4    C16   S    
C44   C46   S    
O2    P5    D    
C5    P8    S    
C49   C50   S    
C33   P2    S    
O18   S1    D    
H53   O37   S    
C3    C10   A    
O16   P3    S    
Ba1   O4    S    
C37   C38   A    
C3    C5    A    
C34   H7    S    
O22   S2    D    
C19   H31   S    
C52   H4    S    
C49   S2    S    
O1    P1    D    
C51   C52   S    
O10   P6    S    
C8    H24   S    
C14   H26   S    
C51   O12   S    
C55   H16   S    
C28   O43   S    
C35   C36   A    
H46   O20   S    
Ba2   P4    S    
C9    C14   A    
C34   H8    S    
C29   C30   A    
O28   S4    D    
C28   H44   S    
O12   P2    S    
O14   P6    S    
O43   P4    S    
O20   S1    S    
O13   P1    S    
C21   C26   A    
C18   C19   A    
H61   O40   S    
C1    C12   S    
Ba2   O44   S    
C49   H34   S    
C46   C47   T    
C45   O3    S    
C6    C13   A    
C29   H33   S    
H58   N3    S    
O8    P8    D    
O34   P4    D    
C15   H27   S    
O26   S3    D    
Ba2   O42   S    
C45   H10   S    
C54   O9    S    
C7    P6    S    
C42   C43   A    
O25   S3    D    
O41   P4    S    
C42   C48   A    
C53   N2    S    
C13   C22   S    
C54   H15   S    
C16   S6    S    
O40   S7    S    
C27   H32   S    
C1    H9    S    
Ba1   O1    S    
C12   O14   S    
Ba1   O5    S    
C40   H1    S    
O36   S6    D    
C23   S5    S    
C41   C48   A    
C4    H18   S    
C52   H3    S    
C50   H56   S    
O42   P8    S    
C32   H41   S    
O45   P5    S    
C11   H25   S    
Ba1   P1    S    
O39   S7    D    
H57   N3    S    
O37   S6    S    
C30   C31   A    
C55   H17   S    
C55   H19   S    
O9    P8    S    
C27   C29   A    
C43   H39   S    
C16   N4    S    
C38   P3    S    
C39   H37   S    
H55   N2    S    
C1    S4    S    
Ba1   Ba2   S    
O19   S1    D    
C15   C17   A    
O5    P2    S    
C20   C22   A    
C53   H13   S    
C37   H38   S    
C42   P5    S    
Ba1   O15   S    
C8    C9    A    
C56   H20   S    
C23   C34   S    
C5    C11   A    
O11   P6    D    
O27   S3    S    
C10   C26   S    
C48   H43   S    
Ba2   O34   S    
C2    C56   A    
C25   C26   A    
C6    H22   S    
C20   C21   A    
C28   C40   S    
C51   H63   S    
H60   N4    S    
O17   P3    D    
C34   H6    S    
O32   S5    D    
Ba2   O41   S    
C12   S1    S    
H52   O33   S    
O6    P7    D    
C49   O13   S    
