data_mof_unit_52375.cif
_audit_creation_date              2012-12-11T15:12:22-0500
_audit_creation_method            fapswitch 2.2
_symmetry_space_group_name_H-M    P1
_symmetry_Int_Tables_number       1
_space_group_crystal_system       monoclinic
_cell_length_a                    30.431434
_cell_length_b                    22.1236
_cell_length_c                    18.021413
_cell_angle_alpha                 90.0
_cell_angle_beta                  123.865293
_cell_angle_gamma                 90.0
_cell_volume                      10074.6098976

loop_
_atom_site_label
_atom_site_type_symbol
_atom_type_description
_atom_site_fract_x
_atom_site_fract_y
_atom_site_fract_z
_atom_type_partial_charge
Br1   Br    Br    0.810193 0.208523 0.782115 -0.597768
Br2   Br    Br    0.189806 0.791475 0.217884 -0.597770
Br3   Br    Br    0.189807 0.208524 0.217884 -0.597770
Br4   Br    Br    0.810193 0.791476 0.782116 -0.597768
Br5   Br    Br    0.389634 0.906577 0.032088 -0.464235
Br6   Br    Br    0.610366 0.093425 0.967917 -0.464236
Br7   Br    Br    0.610366 0.906576 0.967914 -0.464236
Br8   Br    Br    0.389634 0.093424 0.032084 -0.464235
C1    C     C_R   0.531986 0.610904 0.704642 -0.125547
C2    C     C_R   0.268114 0.639150 0.582311 0.142822
C3    C     C_R   0.374687 0.184435 0.134656 0.036377
C4    C     C_R   0.809407 0.154299 0.930135 0.058099
C5    C     C_R   0.190592 0.845700 0.069864 0.058100
C6    C     C_R   0.190592 0.154300 0.069864 0.058100
C7    C     C_R   0.809408 0.845700 0.930135 0.058099
C8    C     C_R   0.297526 0.815539 0.145012 0.024021
C9    C     C_R   0.702474 0.184461 0.854988 0.024021
C10   C     C_R   0.702474 0.815539 0.854988 0.024021
C11   C     C_R   0.297526 0.184460 0.145012 0.024021
C12   C     C_R   0.728213 0.143840 0.927584 0.020828
C13   C     C_R   0.268114 0.360850 0.582311 0.142822
C14   C     C_R   0.271786 0.856160 0.072416 0.020829
C15   C     C_R   0.271786 0.143840 0.072416 0.020828
C16   C     C_R   0.728213 0.856160 0.927584 0.020829
C17   C     C_R   0.727733 0.200300 0.811680 -0.257850
C18   C     C_R   0.272267 0.799699 0.188320 -0.257851
C19   C     C_R   0.272267 0.200300 0.188320 -0.257851
C20   C     C_R   0.727733 0.799699 0.811680 -0.257851
C21   C     C_R   0.301592 0.883949 0.043733 -0.265231
C22   C     C_R   0.698408 0.116051 0.956269 -0.265230
C23   C     C_R   0.698408 0.883949 0.956268 -0.265230
C24   C     C_R   0.731885 0.639150 0.417689 0.142822
C25   C     C_R   0.301592 0.116051 0.043732 -0.265230
C26   C     C_R   0.780015 0.183783 0.846915 0.308323
C27   C     C_R   0.219984 0.816215 0.153084 0.308323
C28   C     C_R   0.219984 0.183784 0.153085 0.308322
C29   C     C_R   0.780016 0.816216 0.846915 0.308323
C30   C     C_R   0.353117 0.865445 0.076528 0.317944
C31   C     C_R   0.646883 0.134556 0.923474 0.317944
C32   C     C_R   0.646883 0.865445 0.923473 0.317943
C33   C     C_R   0.353116 0.134555 0.076527 0.317944
C34   C     C_R   0.596803 0.579167 0.425447 -0.138078
C35   C     C_R   0.140965 0.715179 0.418072 0.124513
C36   C     C_R   0.403197 0.420832 0.574552 -0.138077
C37   C     C_R   0.403196 0.579168 0.574552 -0.138078
C38   C     C_R   0.596803 0.420832 0.425447 -0.138077
C39   C     C_R   0.073536 0.112753 0.425317 -0.112023
C40   C     C_R   0.926464 0.887247 0.574683 -0.112024
C41   C     C_R   0.926464 0.112753 0.574683 -0.112023
C42   C     C_R   0.073536 0.887247 0.425317 -0.112024
C43   C     C_R   0.394236 0.610438 0.294801 -0.123442
C44   C     C_R   0.605764 0.389562 0.705199 -0.123442
C45   C     C_R   0.605764 0.610438 0.705199 -0.123441
C46   C     C_R   0.859035 0.284821 0.581928 0.124513
C47   C     C_R   0.394236 0.389562 0.294801 -0.123441
C48   C     C_R   0.881794 0.081193 0.255587 -0.142493
C49   C     C_R   0.118206 0.918807 0.744413 -0.142493
C50   C     C_R   0.118206 0.081193 0.744413 -0.142493
C51   C     C_R   0.881794 0.918807 0.255587 -0.142493
C52   C     C_R   0.576960 0.644594 0.729371 0.053835
C53   C     C_R   0.423040 0.355406 0.270629 0.053836
C54   C     C_R   0.423040 0.644594 0.270629 0.053836
C55   C     C_R   0.576960 0.355406 0.729371 0.053836
C56   C     C_R   0.098796 0.095289 0.796299 0.062620
C57   C     C_R   0.859035 0.715179 0.581927 0.124513
C58   C     C_R   0.901204 0.904711 0.203700 0.062619
C59   C     C_R   0.901203 0.095289 0.203700 0.062620
C60   C     C_R   0.098796 0.904711 0.796299 0.062619
C61   C     C_R   0.647421 0.590782 0.499024 0.089124
C62   C     C_R   0.352579 0.409218 0.500976 0.089124
C63   C     C_R   0.352579 0.590782 0.500976 0.089125
C64   C     C_R   0.647421 0.409218 0.499024 0.089124
C65   C     C_R   0.108212 0.147797 0.499618 0.069075
C66   C     C_R   0.891788 0.852203 0.500382 0.069075
C67   C     C_R   0.891788 0.147797 0.500382 0.069075
C68   C     C_R   0.140965 0.284821 0.418072 0.124514
C69   C     C_R   0.108212 0.852202 0.499618 0.069075
C70   C     C_R   0.743851 0.387464 0.580255 -0.232716
C71   C     C_R   0.256149 0.612536 0.419745 -0.232717
C72   C     C_R   0.256149 0.387464 0.419745 -0.232716
C73   C     C_R   0.743851 0.612535 0.580254 -0.232717
C74   C     C_R   0.164323 0.762618 0.580714 -0.244830
C75   C     C_R   0.835677 0.237382 0.419286 -0.244829
C76   C     C_R   0.835677 0.762618 0.419286 -0.244830
C77   C     C_R   0.164323 0.237382 0.580714 -0.244830
C78   C     C_R   0.694811 0.396388 0.498950 0.108880
C79   C     C_R   0.778550 0.344646 0.499634 0.029084
C80   C     C_R   0.305189 0.603611 0.501049 0.108880
C81   C     C_R   0.305189 0.396388 0.501050 0.108880
C82   C     C_R   0.694811 0.603611 0.498950 0.108880
C83   C     C_R   0.126453 0.790675 0.499540 0.111071
C84   C     C_R   0.873547 0.209325 0.500460 0.111071
C85   C     C_R   0.873547 0.790675 0.500460 0.111071
C86   C     C_R   0.126453 0.209325 0.499540 0.111070
C87   C     C_R   0.690435 0.387365 0.417927 -0.250497
C88   C     C_R   0.309565 0.612634 0.582073 -0.250498
C89   C     C_R   0.309565 0.387365 0.582073 -0.250498
C90   C     C_R   0.221450 0.655354 0.500366 0.029084
C91   C     C_R   0.690435 0.612635 0.417927 -0.250498
C92   C     C_R   0.111459 0.763122 0.418456 -0.229315
C93   C     C_R   0.888541 0.236878 0.581544 -0.229315
C94   C     C_R   0.888541 0.763121 0.581543 -0.229314
C95   C     C_R   0.111459 0.236878 0.418456 -0.229315
C96   C     C_R   0.221450 0.344646 0.500367 0.029083
C97   C     C_R   0.468014 0.389096 0.295358 -0.125548
C98   C     C_R   0.778550 0.655354 0.499633 0.029083
C99   C     C_R   0.184527 0.693355 0.499999 0.028452
C100  C     C_R   0.815473 0.306645 0.500001 0.028453
C101  C     C_R   0.815473 0.693355 0.500001 0.028452
C102  C     C_R   0.184527 0.306645 0.499999 0.028452
C103  C     C_R   0.785548 0.360793 0.581204 0.126864
C104  C     C_R   0.214451 0.639207 0.418796 0.126863
C105  C     C_R   0.214451 0.360793 0.418796 0.126864
C106  C     C_R   0.785549 0.639206 0.581204 0.126864
C107  C     C_R   0.194379 0.714821 0.581602 0.138486
C108  C     C_R   0.468014 0.610904 0.295358 -0.125547
C109  C     C_R   0.805621 0.285179 0.418398 0.138485
C110  C     C_R   0.805620 0.714821 0.418397 0.138485
C111  C     C_R   0.194379 0.285179 0.581602 0.138486
C112  C     C_R   0.725337 0.344686 0.336879 -0.196553
C113  C     C_R   0.274662 0.655313 0.663121 -0.196552
C114  C     C_R   0.274662 0.344686 0.663121 -0.196552
C115  C     C_R   0.725337 0.655314 0.336878 -0.196552
C116  C     C_R   0.131378 0.693558 0.337205 -0.155379
C117  C     C_R   0.868622 0.306442 0.662795 -0.155380
C118  C     C_R   0.868623 0.693557 0.662794 -0.155380
C119  C     C_R   0.531986 0.389096 0.704642 -0.125548
C120  C     C_R   0.131377 0.306442 0.337205 -0.155380
C121  C     C_R   0.168036 0.655616 0.337571 -0.152356
C122  C     C_R   0.831964 0.344384 0.662429 -0.152357
C123  C     C_R   0.831964 0.655615 0.662428 -0.152357
C124  C     C_R   0.168036 0.344384 0.337571 -0.152357
C125  C     C_R   0.762174 0.307007 0.337232 -0.189980
C126  C     C_R   0.237826 0.692992 0.662768 -0.189980
C127  C     C_R   0.237826 0.307007 0.662768 -0.189980
C128  C     C_R   0.762173 0.692993 0.337231 -0.189980
C129  C     C_R   0.409396 0.705877 0.230482 0.124818
C130  C     C_R   0.045358 0.081255 0.744398 -0.143885
C131  C     C_R   0.590604 0.294123 0.769520 0.124818
C132  C     C_R   0.590604 0.705877 0.769519 0.124818
C133  C     C_R   0.409396 0.294123 0.230481 0.124818
C134  C     C_R   0.869593 0.110776 0.107274 0.126504
C135  C     C_R   0.130407 0.889224 0.892726 0.126504
C136  C     C_R   0.130407 0.110777 0.892725 0.126503
C137  C     C_R   0.869593 0.889224 0.107274 0.126504
C138  C     C_R   0.422221 0.788565 0.155857 -0.123515
C139  C     C_R   0.577780 0.211436 0.844147 -0.123516
C140  C     C_R   0.577780 0.788565 0.844144 -0.123517
C141  C     C_R   0.954642 0.918745 0.255602 -0.143883
C142  C     C_R   0.422220 0.211436 0.155854 -0.123515
C143  C     C_R   0.864478 0.146895 0.975430 -0.133675
C144  C     C_R   0.135521 0.853104 0.024570 -0.133675
C145  C     C_R   0.135521 0.146897 0.024569 -0.133676
C146  C     C_R   0.864478 0.853105 0.975430 -0.133675
C147  C     C_R   0.439034 0.733993 0.202381 -0.181407
C148  C     C_R   0.560966 0.266009 0.797622 -0.181407
C149  C     C_R   0.560966 0.733992 0.797621 -0.181407
C150  C     C_R   0.439034 0.266008 0.202377 -0.181407
C151  C     C_R   0.894239 0.126016 0.063287 -0.189048
C152  C     C_R   0.954642 0.081255 0.255601 -0.143884
C153  C     C_R   0.105760 0.873983 0.936712 -0.189049
C154  C     C_R   0.105760 0.126019 0.936711 -0.189048
C155  C     C_R   0.894239 0.873983 0.063288 -0.189048
C156  C     C_R   0.364973 0.735766 0.217238 -0.212303
C157  C     C_R   0.635026 0.264234 0.782762 -0.212303
C158  C     C_R   0.635026 0.735766 0.782762 -0.212303
C159  C     C_R   0.364974 0.264233 0.217239 -0.212301
C160  C     C_R   0.814279 0.112850 0.059528 -0.222909
C161  C     C_R   0.185721 0.887150 0.940472 -0.222909
C162  C     C_R   0.185720 0.112850 0.940472 -0.222908
C163  C     C_R   0.045358 0.918745 0.744398 -0.143884
C164  C     C_R   0.814279 0.887150 0.059528 -0.222908
C165  C     C_R   0.346625 0.790171 0.168986 0.078732
C166  C     C_R   0.653375 0.209829 0.831015 0.078732
C167  C     C_R   0.653375 0.790171 0.831014 0.078732
C168  C     C_R   0.346625 0.209829 0.168986 0.078731
C169  C     C_R   0.783454 0.134512 0.971261 0.077840
C170  C     C_R   0.216546 0.865487 0.028739 0.077840
C171  C     C_R   0.216546 0.134512 0.028739 0.077839
C172  C     C_R   0.783454 0.865488 0.971261 0.077840
C173  C     C_R   0.646332 0.579053 0.573283 -0.136873
C174  C     C_R   0.731886 0.360850 0.417689 0.142822
C175  C     C_R   0.353668 0.420947 0.426716 -0.136873
C176  C     C_R   0.353668 0.579053 0.426716 -0.136874
C177  C     C_R   0.646332 0.420947 0.573283 -0.136874
C178  C     C_R   0.123912 0.112462 0.574165 -0.111844
C179  C     C_R   0.876088 0.887538 0.425835 -0.111844
C180  C     C_R   0.876088 0.112462 0.425835 -0.111844
C181  C     C_R   0.123912 0.887537 0.574165 -0.111844
C182  C     C_R   0.374687 0.815565 0.134658 0.036377
C183  C     C_R   0.625313 0.184436 0.865345 0.036377
C184  C     C_R   0.625313 0.815565 0.865343 0.036377
H1    H     H_    0.500244 0.623684 0.711607 0.097932
H2    H     H_    0.342301 0.713866 0.238522 0.114682
H3    H     H_    0.342302 0.286132 0.238525 0.114682
H4    H     H_    0.657699 0.713867 0.761477 0.114682
H5    H     H_    0.204352 0.897738 0.906039 0.115513
H6    H     H_    0.795648 0.102263 0.093962 0.115513
H7    H     H_    0.795648 0.897738 0.093961 0.115513
H8    H     H_    0.204351 0.102261 0.906039 0.115513
H9    H     H_    0.525754 0.286959 0.786827 0.121876
H10   H     H_    0.474248 0.713043 0.213177 0.121877
H11   H     H_    0.474246 0.286959 0.213172 0.121876
H12   H     H_    0.499756 0.376316 0.288393 0.097932
H13   H     H_    0.525753 0.713042 0.786825 0.121876
H14   H     H_    0.063205 0.875678 0.902521 0.120321
H15   H     H_    0.936794 0.124320 0.097478 0.120321
H16   H     H_    0.936795 0.875679 0.097479 0.120321
H17   H     H_    0.063205 0.124324 0.902520 0.120321
H18   H     H_    0.445287 0.807383 0.132616 0.179238
H19   H     H_    0.554714 0.192619 0.867389 0.179238
H20   H     H_    0.554714 0.807382 0.867386 0.179238
H21   H     H_    0.445286 0.192619 0.132611 0.179238
H22   H     H_    0.885464 0.160251 0.945526 0.173042
H23   H     H_    0.499756 0.623684 0.288393 0.097931
H24   H     H_    0.114535 0.839747 0.054473 0.173042
H25   H     H_    0.114535 0.160255 0.054472 0.173042
H26   H     H_    0.885464 0.839747 0.945527 0.173042
H27   H     H_    0.707119 0.224933 0.749336 0.171688
H28   H     H_    0.292880 0.775065 0.250664 0.171688
H29   H     H_    0.292881 0.224933 0.250665 0.171688
H30   H     H_    0.707119 0.775066 0.749336 0.171688
H31   H     H_    0.285631 0.920901 0.996496 0.169647
H32   H     H_    0.714368 0.079099 0.003506 0.169647
H33   H     H_    0.714369 0.920901 0.003505 0.169647
H34   H     H_    0.500244 0.376316 0.711607 0.097932
H35   H     H_    0.285631 0.079099 0.996495 0.169647
H36   H     H_    0.679923 0.574038 0.641376 0.087564
H37   H     H_    0.320077 0.425962 0.358624 0.087564
H38   H     H_    0.320077 0.574038 0.358624 0.087564
H39   H     H_    0.679923 0.425962 0.641376 0.087564
H40   H     H_    0.150526 0.124727 0.643392 0.099680
H41   H     H_    0.849474 0.875272 0.356608 0.099680
H42   H     H_    0.849474 0.124727 0.356608 0.099680
H43   H     H_    0.150526 0.875272 0.643392 0.099680
H44   H     H_    0.584881 0.574576 0.356961 0.085570
H45   H     H_    0.019735 0.076807 0.767979 0.094790
H46   H     H_    0.415119 0.425424 0.643039 0.085569
H47   H     H_    0.415119 0.574576 0.643039 0.085570
H48   H     H_    0.584881 0.425424 0.356961 0.085569
H49   H     H_    0.053151 0.125483 0.356030 0.098967
H50   H     H_    0.946849 0.874517 0.643970 0.098967
H51   H     H_    0.946849 0.125483 0.643970 0.098967
H52   H     H_    0.053151 0.874517 0.356030 0.098967
H53   H     H_    0.357335 0.621879 0.286562 0.098364
H54   H     H_    0.642665 0.378121 0.713439 0.098364
H55   H     H_    0.642665 0.621879 0.713438 0.098363
H56   H     H_    0.980265 0.923193 0.232021 0.094789
H57   H     H_    0.357335 0.378121 0.286561 0.098364
H58   H     H_    0.840803 0.077192 0.233066 0.095733
H59   H     H_    0.159197 0.922808 0.766934 0.095733
H60   H     H_    0.159197 0.077192 0.766934 0.095733
H61   H     H_    0.840803 0.922808 0.233066 0.095733
H62   H     H_    0.748751 0.396159 0.643465 0.120861
H63   H     H_    0.251249 0.603841 0.356535 0.120861
H64   H     H_    0.251249 0.396159 0.356535 0.120861
H65   H     H_    0.748752 0.603840 0.643464 0.120861
H66   H     H_    0.174294 0.781194 0.643802 0.121922
H67   H     H_    0.980265 0.076807 0.232021 0.094790
H68   H     H_    0.825706 0.218806 0.356197 0.121921
H69   H     H_    0.825705 0.781195 0.356197 0.121922
H70   H     H_    0.174294 0.218806 0.643803 0.121922
H71   H     H_    0.653594 0.396031 0.354655 0.117190
H72   H     H_    0.346406 0.603969 0.645345 0.117190
H73   H     H_    0.346406 0.396031 0.645345 0.117190
H74   H     H_    0.653594 0.603970 0.354655 0.117190
H75   H     H_    0.080431 0.782222 0.355235 0.121314
H76   H     H_    0.919569 0.217778 0.644764 0.121314
H77   H     H_    0.919569 0.782222 0.644764 0.121314
H78   H     H_    0.019735 0.923193 0.767979 0.094790
H79   H     H_    0.080431 0.217778 0.355236 0.121314
H80   H     H_    0.690076 0.357772 0.273476 0.133619
H81   H     H_    0.309924 0.642227 0.726523 0.133619
H82   H     H_    0.309924 0.357772 0.726524 0.133619
H83   H     H_    0.690075 0.642228 0.273476 0.133619
H84   H     H_    0.097598 0.709319 0.273819 0.143461
H85   H     H_    0.902402 0.290681 0.726181 0.143461
H86   H     H_    0.902402 0.709318 0.726181 0.143461
H87   H     H_    0.097598 0.290681 0.273819 0.143461
H88   H     H_    0.161880 0.642640 0.274435 0.146488
H89   H     H_    0.657698 0.286133 0.761476 0.114682
H90   H     H_    0.838120 0.357361 0.725564 0.146487
H91   H     H_    0.838121 0.642638 0.725564 0.146486
H92   H     H_    0.161880 0.357361 0.274436 0.146487
H93   H     H_    0.754670 0.291551 0.274086 0.137440
H94   H     H_    0.245330 0.708449 0.725914 0.137440
H95   H     H_    0.245330 0.291551 0.725914 0.137440
H96   H     H_    0.754669 0.708450 0.274085 0.137440
N1    N     N_R   0.532970 0.559900 0.665210 -0.042295
N2    N     N_R   0.402100 0.440070 0.454470 -0.038265
N3    N     N_R   0.402100 0.559930 0.454470 -0.038265
N4    N     N_R   0.597900 0.440070 0.545530 -0.038265
N5    N     N_R   0.097900 0.059930 0.545530 -0.042902
N6    N     N_R   0.902100 0.940070 0.454470 -0.042902
N7    N     N_R   0.902100 0.059930 0.454470 -0.042902
N8    N     N_R   0.097900 0.940070 0.545530 -0.042902
N9    N     N_R   0.567170 0.559950 0.454460 -0.038324
N10   N     N_R   0.432830 0.440050 0.545540 -0.038324
N11   N     N_R   0.432830 0.559950 0.545540 -0.038324
N12   N     N_R   0.467030 0.440100 0.334790 -0.042295
N13   N     N_R   0.567170 0.440050 0.454460 -0.038324
N14   N     N_R   0.067170 0.059950 0.454460 -0.043710
N15   N     N_R   0.932830 0.940050 0.545540 -0.043710
N16   N     N_R   0.932830 0.059950 0.545540 -0.043710
N17   N     N_R   0.067170 0.940050 0.454460 -0.043710
N18   N     N_R   0.421470 0.559970 0.334770 -0.042008
N19   N     N_R   0.578530 0.440030 0.665230 -0.042008
N20   N     N_R   0.578530 0.559970 0.665230 -0.042008
N21   N     N_R   0.421470 0.440030 0.334770 -0.042008
N22   N     N_R   0.921470 0.059970 0.334770 -0.039311
N23   N     N_R   0.467030 0.559900 0.334790 -0.042296
N24   N     N_R   0.078530 0.940030 0.665230 -0.039311
N25   N     N_R   0.078530 0.059970 0.665230 -0.039311
N26   N     N_R   0.921470 0.940030 0.334770 -0.039311
N27   N     N_R   0.532970 0.440100 0.665210 -0.042295
N28   N     N_R   0.032970 0.059900 0.665210 -0.039522
N29   N     N_R   0.967030 0.940100 0.334790 -0.039523
N30   N     N_R   0.967030 0.059900 0.334790 -0.039523
N31   N     N_R   0.032970 0.940100 0.665210 -0.039523
N32   N     N_R   0.597900 0.559930 0.545530 -0.038266
Ni1   Ni    Ni4+2 0.483030 0.500000 0.604430 0.212783
Ni2   Ni    Ni4+2 0.516970 0.500000 0.395570 0.212783
Ni3   Ni    Ni4+2 0.983030 1.000000 0.604430 0.220406
Ni4   Ni    Ni4+2 0.016970 0.000000 0.395570 0.220406
Ni5   Ni    Ni4+2 0.587400 0.500000 0.604430 0.214143
Ni6   Ni    Ni4+2 0.412600 0.500000 0.395570 0.214143
Ni7   Ni    Ni4+2 0.087400 1.000000 0.604430 0.222441
Ni8   Ni    Ni4+2 0.912600 0.000000 0.395570 0.222441

loop_
_geom_bond_atom_site_label_1
_geom_bond_atom_site_label_2
_ccdc_geom_bond_type
C8    C165  A    
C14   C21   A    
C109  C125  A    
C79   C174  A    
C65   C178  A    
C56   C130  A    
C118  H86   S    
C140  H20   S    
C51   C58   A    
C1    H1    S    
C178  H40   S    
C164  H7    S    
C112  C125  A    
C11   C168  A    
C7    C146  A    
N20   Ni5   S    
C30   C182  A    
N10   Ni1   S    
N7    Ni8   S    
C47   H57   S    
C36   C62   A    
C83   C92   A    
C147  H10   S    
C53   C97   A    
N2    Ni6   S    
C120  H87   S    
C38   C64   A    
C166  C183  A    
C68   C95   A    
C87   H71   S    
C163  N31   A    
C66   C85   S    
C55   C131  S    
N21   Ni6   S    
N15   Ni3   S    
C101  C110  A    
C46   C117  A    
N31   Ni3   S    
C45   N20   A    
C40   C66   A    
C149  H13   S    
C58   C141  A    
C97   H12   S    
C74   C83   A    
C11   C15   A    
C45   H55   S    
C31   C183  A    
C103  C122  A    
C32   C184  A    
N11   Ni1   S    
N24   N31   A    
C156  C165  A    
C50   N25   A    
N6    N15   A    
C179  H41   S    
C179  N6    A    
C73   C82   A    
C89   H73   S    
C107  C126  A    
C36   N10   A    
C42   C69   A    
C42   N17   A    
C110  C128  A    
C37   C63   A    
C66   C179  A    
C69   C83   S    
C72   H64   S    
C159  H3    S    
C41   N16   A    
C25   H35   S    
C44   C55   A    
C36   H46   S    
C151  H15   S    
C12   C169  A    
C34   N9    A    
C56   C136  S    
C112  H80   S    
C9    C17   A    
C75   C109  A    
C114  H82   S    
C96   C102  A    
C126  H94   S    
C76   C85   A    
C54   C129  S    
C47   N21   A    
C64   C177  A    
C78   C87   A    
C134  C160  A    
C63   C80   S    
C18   C27   A    
C79   C103  A    
C20   H30   S    
C112  C174  A    
C135  C153  A    
N8    N17   A    
C143  C151  A    
C119  N27   A    
C94   H77   S    
C51   H61   S    
C46   C93   A    
N12   Ni2   S    
C67   C180  A    
C131  C148  A    
C123  H91   S    
N1    Ni1   S    
C12   C22   A    
C144  H24   S    
C3    C168  A    
C60   C135  S    
C10   C16   A    
C43   H53   S    
C158  H4    S    
C74   C107  A    
C5    C27   A    
C6    C28   A    
C60   C163  A    
C156  H2    S    
C159  C168  A    
C5    C170  A    
C155  H16   S    
C72   C81   A    
C118  C123  A    
C129  C147  A    
C131  C157  A    
C178  N5    A    
C7    C29   A    
N3    Ni6   S    
C139  C183  A    
C73   C106  A    
C16   C172  A    
C119  H34   S    
C41   C67   A    
C70   C103  A    
C49   H59   S    
C145  H25   S    
C144  C153  A    
C137  C164  A    
C88   H72   S    
C150  H11   S    
C24   C115  A    
C43   C54   A    
C148  H9    S    
C41   H51   S    
C45   C52   A    
C115  H83   S    
Br1   C26   S    
C50   C56   A    
C19   H29   S    
C90   C104  A    
C10   C20   A    
Br8   C33   S    
C40   H50   S    
C167  C184  A    
C137  C155  A    
C157  C166  A    
C152  H67   S    
C95   H79   S    
C37   H47   S    
C141  N29   A    
N22   Ni8   S    
N4    N13   A    
N25   Ni7   S    
C48   N22   A    
C52   C132  S    
C134  C151  A    
C53   C133  S    
C93   H76   S    
C141  H56   S    
N5    Ni7   S    
C104  C121  A    
C62   C81   S    
N19   N27   A    
C49   C60   A    
C82   C91   A    
N4    Ni5   S    
C161  H5    S    
C15   C171  A    
C100  C109  A    
C102  C111  A    
C17   C26   A    
N18   N23   A    
C46   C100  A    
C162  C171  A    
C69   C181  A    
C57   C118  A    
C38   N13   A    
N29   Ni4   S    
N26   Ni8   S    
C20   C29   A    
C47   C53   A    
C22   C31   A    
C140  C149  A    
N16   Ni3   S    
C181  H43   S    
C96   C105  A    
C108  N23   A    
C72   C105  A    
C76   C110  A    
C61   C173  A    
N13   Ni2   S    
C163  H78   S    
C98   C101  A    
Br2   C27   S    
C140  C184  A    
C80   C88   A    
C91   H74   S    
C105  C124  A    
C106  C123  A    
N2    N10   A    
C77   H70   S    
C40   N15   A    
C158  C167  A    
C160  H6    S    
C71   C104  A    
N8    Ni7   S    
C74   H66   S    
C160  C169  A    
C136  C162  A    
C165  C182  A    
C9    C12   A    
C23   C32   A    
C130  H45   S    
C142  H21   S    
C13   C114  A    
C13   C96   A    
N12   N21   A    
C138  C147  A    
C48   H58   S    
C97   N12   A    
C113  C126  A    
C175  H37   S    
C164  C172  A    
N26   N29   A    
Br5   C30   S    
C132  C158  A    
C65   C86   S    
C108  H23   S    
C139  H19   S    
C71   C80   A    
C8    C18   A    
N6    Ni8   S    
C133  C159  A    
C152  N30   A    
C157  H89   S    
C35   C92   A    
C39   C65   A    
C51   N26   A    
C111  C127  A    
C90   C99   A    
N14   Ni4   S    
C43   N18   A    
C44   N19   A    
C35   C99   A    
N32   Ni5   S    
C139  C148  A    
C176  N3    A    
C57   C101  A    
C84   C93   A    
C124  H92   S    
C86   C95   A    
C125  H93   S    
C68   C120  A    
C153  H14   S    
C17   H27   S    
C39   N14   A    
C4    C26   A    
C180  H42   S    
C9    C166  A    
C21   H31   S    
C8    C14   A    
C142  C150  A    
C63   C176  A    
C5    C144  A    
C85   C94   A    
C64   C78   S    
N9    Ni2   S    
C154  H17   S    
N30   Ni4   S    
C19   C28   A    
C145  C154  A    
C1    C52   A    
C25   C33   A    
N18   Ni6   S    
C16   C23   A    
C176  H38   S    
C117  H85   S    
C116  C121  A    
C113  H81   S    
C114  C127  A    
C133  C150  A    
Br4   C29   S    
C68   C102  A    
Br6   C31   S    
C121  H88   S    
N19   Ni5   S    
C59   C134  S    
N17   Ni4   S    
C50   H60   S    
C14   C170  A    
C2    C113  A    
C162  H8    S    
N1    N20   A    
C75   C84   A    
C98   C106  A    
C37   N11   A    
C42   H52   S    
C13   C89   A    
C77   C111  A    
C2    C90   A    
C58   C137  S    
C3    C142  A    
C34   H44   S    
C117  C122  A    
C79   C100  A    
N28   Ni3   S    
C15   C25   A    
C143  H22   S    
Br7   C32   S    
C59   C152  A    
C38   H48   S    
C146  H26   S    
C11   C19   A    
C6    C171  A    
C181  N8    A    
C10   C167  A    
C70   C78   A    
C4    C169  A    
C24   C98   A    
C7    C172  A    
C4    C143  A    
C177  N4    A    
C57   C94   A    
C120  C124  A    
C138  H18   S    
C173  H36   S    
C177  H39   S    
C173  N32   A    
C18   H28   S    
C70   H62   S    
C146  C155  A    
C75   H68   S    
C135  C161  A    
C39   H49   S    
N25   N28   A    
C22   H32   S    
N22   N30   A    
C34   C61   A    
C81   C89   A    
C21   C30   A    
C54   C108  A    
C132  C149  A    
C77   C86   A    
C2    C88   A    
N24   Ni7   S    
C99   C107  A    
C67   C84   S    
C23   H33   S    
C6    C145  A    
C127  H95   S    
C61   C82   S    
C128  H96   S    
C161  C170  A    
N23   Ni2   S    
N3    N11   A    
C136  C154  A    
C49   N24   A    
C175  N2    A    
C44   H54   S    
C129  C156  A    
C130  N28   A    
C87   C174  A    
C92   H75   S    
C48   C59   A    
C73   H65   S    
C24   C91   A    
C115  C128  A    
C122  H90   S    
N27   Ni1   S    
C1    N1    A    
C116  H84   S    
Br3   C28   S    
C3    C33   A    
C76   H69   S    
C180  N7    A    
C62   C175  A    
C71   H63   S    
C138  C182  A    
N9    N32   A    
N5    N14   A    
C35   C116  A    
C55   C119  A    
N7    N16   A    
