data_mof_unit_52719.cif
_audit_creation_date              2012-12-10T18:12:38-0500
_audit_creation_method            fapswitch 2.2
_symmetry_space_group_name_H-M    P1
_symmetry_Int_Tables_number       1
_space_group_crystal_system       triclinic
_cell_length_a                    12.613852
_cell_length_b                    13.140276
_cell_length_c                    15.704185
_cell_angle_alpha                 90.436437
_cell_angle_beta                  102.792384
_cell_angle_gamma                 82.342327
_cell_volume                      2515.06967406

loop_
_atom_site_label
_atom_site_type_symbol
_atom_type_description
_atom_site_fract_x
_atom_site_fract_y
_atom_site_fract_z
_atom_type_partial_charge
C1    C     C_R   0.438826 0.691275 0.493177 0.847897
C2    C     C_3   0.507644 0.491407 0.918740 0.211373
C3    C     C_3   0.467489 0.405068 0.020729 -0.161830
C4    C     C_3   0.503754 0.489988 0.083390 0.212280
C5    C     C_3   0.571684 0.407335 0.984375 -0.166809
C6    C     C_3   0.607969 0.492221 0.048999 -0.159949
C7    C     C_1   0.507314 0.494057 0.827604 -0.084547
C8    C     C_1   0.500733 0.491646 0.173881 -0.075723
C9    C     C_R   0.704864 0.065591 0.625835 -0.205515
C10   C     C_R   0.597718 0.200352 0.527760 -0.053311
C11   C     C_R   0.299601 0.837015 0.431133 -0.194343
C12   C     C_R   0.501317 0.499743 0.662007 0.896026
C13   C     C_R   0.271659 0.941192 0.411195 -0.150305
C14   C     C_R   0.345958 0.009015 0.443568 -0.189871
C15   C     C_R   0.448079 0.973663 0.500650 0.085467
C16   C     C_R   0.467958 0.870857 0.531011 0.094978
C17   C     C_R   0.531082 0.036699 0.528903 0.081289
C18   C     C_R   0.624282 0.001606 0.596011 0.182922
C19   C     C_R   0.634131 0.904368 0.633837 -0.260771
C20   C     C_R   0.556477 0.839920 0.602131 -0.209692
C21   C     C_R   0.524317 0.133677 0.491656 -0.255622
C22   C     C_R   0.690584 0.165798 0.592811 -0.210578
C23   C     C_R   0.561152 0.308835 0.510123 0.858581
C24   C     C_R   0.399396 0.800998 0.488541 -0.114734
C25   C     C_R   0.088208 0.347618 0.377703 -0.310311
C26   C     C_R   0.800673 0.628848 0.603153 0.033619
C27   C     C_R   0.905049 0.657716 0.623756 -0.254546
C28   C     C_R   0.985585 0.609600 0.583611 -0.186784
C29   C     C_R   0.961967 0.531289 0.522688 0.015507
C30   C     C_R   0.854277 0.504838 0.504289 0.212304
C31   C     C_R   0.040534 0.478242 0.479941 -0.029971
C32   C     C_R   0.009350 0.401436 0.418045 0.130472
C33   C     C_R   0.900913 0.378398 0.399670 -0.065479
C34   C     C_R   0.499274 0.498964 0.338127 0.901016
C35   C     C_R   0.826818 0.427950 0.444891 -0.256156
C36   C     C_R   0.149943 0.498099 0.496577 -0.036221
C37   C     C_R   0.194630 0.370847 0.397515 0.012985
C38   C     C_3   0.439871 0.573909 0.017660 -0.168781
C39   C     C_3   0.544000 0.576204 0.981526 -0.168527
C40   C     C_1   0.505078 0.496952 0.751786 -0.188324
C41   C     C_1   0.498926 0.494766 0.248979 -0.180500
C42   C     C_3   0.403560 0.489081 0.953276 -0.163737
H1    H     H_    0.575373 0.646140 0.963436 0.130992
H2    H     H_    0.459121 0.161690 0.436822 0.139081
H3    H     H_    0.244983 0.784314 0.399286 0.158461
H4    H     H_    0.320076 0.088710 0.424555 0.130040
H5    H     H_    0.194178 0.968979 0.367415 0.142949
H6    H     H_    0.565470 0.765875 0.634442 0.152365
H7    H     H_    0.255968 0.329946 0.366799 0.126373
H8    H     H_    0.069055 0.287081 0.332070 0.154665
H9    H     H_    0.180812 0.554782 0.541772 0.125020
H10   H     H_    0.738037 0.665474 0.634471 0.127306
H11   H     H_    0.385856 0.641955 0.033314 0.132634
H12   H     H_    0.064865 0.635467 0.601672 0.135769
H13   H     H_    0.923475 0.717270 0.670627 0.143358
H14   H     H_    0.746731 0.405684 0.431159 0.220578
H15   H     H_    0.691458 0.493332 0.090406 0.132058
H16   H     H_    0.625702 0.339323 0.968680 0.126773
H17   H     H_    0.436218 0.335149 0.038968 0.131393
H18   H     H_    0.320004 0.487854 0.912034 0.134185
H19   H     H_    0.748099 0.217561 0.621405 0.158527
H20   H     H_    0.702496 0.877629 0.687292 0.137922
H21   H     H_    0.775873 0.039785 0.677369 0.134316
N1    N     N_R   0.222180 0.444680 0.455580 -0.100175
N2    N     N_R   0.776980 0.554790 0.543960 -0.124157
O1    O     O_R   0.366730 0.627160 0.478790 -0.618452
O2    O     O_R   0.544830 0.662520 0.507160 -0.609181
O3    O     O_R   0.410960 0.482330 0.609040 -0.608371
O4    O     O_R   0.589060 0.517690 0.637410 -0.624069
O5    O     O_R   0.455170 0.337480 0.492840 -0.611209
O6    O     O_R   0.633270 0.372840 0.521210 -0.642820
O7    O     O_R   0.410940 0.482310 0.362590 -0.614929
O8    O     O_R   0.589040 0.517670 0.390960 -0.623302
Zn1   Zn    Zn3+2 0.381080 0.476390 0.481050 0.940517
Zn2   Zn    Zn3+2 0.618920 0.523610 0.518950 0.929927
C43   C     C_R   0.859532 0.305793 0.331446 0.129924
C44   C     C_R   0.816837 0.218783 0.353809 -0.164675
C45   C     C_R   0.770921 0.154239 0.288726 -0.138883
C46   C     C_R   0.766477 0.176538 0.201003 -0.110727
C47   C     C_R   0.807941 0.263423 0.178206 -0.144095
C48   C     C_R   0.854077 0.328087 0.243087 -0.159611
H22   H     H_    0.818495 0.201462 0.421471 0.137694
H23   H     H_    0.738121 0.087314 0.306269 0.135310
H24   H     H_    0.730437 0.126773 0.150667 0.120800
H25   H     H_    0.803605 0.281087 0.110214 0.123641
H26   H     H_    0.884197 0.396168 0.224525 0.128295

loop_
_geom_bond_atom_site_label_1
_geom_bond_atom_site_label_2
_ccdc_geom_bond_type
C12   O4    A    
C3    C42   S    
C19   C20   A    
C6    H15   S    
C4    C8    S    
C14   H4    S    
C44   C45   A    
C10   C22   A    
C12   O3    A    
C26   C27   A    
C47   H25   S    
C30   C35   A    
C28   C29   A    
C38   C42   S    
C38   C39   S    
C27   H13   S    
C9    C22   A    
C19   H20   S    
O3    Zn1   S    
C15   C16   A    
O1    Zn1   S    
C11   C24   A    
C18   C19   A    
C25   H8    S    
C25   C37   A    
C45   H23   S    
C2    C7    S    
O5    Zn1   S    
C7    C40   T    
C48   H26   S    
C25   C32   A    
C16   C24   A    
C9    H21   S    
C13   C14   A    
O8    Zn2   S    
C23   O5    A    
C34   C41   S    
C2    C39   S    
C1    O1    A    
C10   C21   A    
C23   O6    A    
C43   C44   A    
O7    Zn1   S    
C42   H18   S    
C13   H5    S    
C28   H12   S    
C45   C46   A    
C39   H1    S    
C17   C21   A    
C12   C40   S    
C29   C30   A    
C26   H10   S    
C21   H2    S    
C37   H7    S    
C33   C43   S    
C31   C32   A    
C14   C15   A    
C16   C20   A    
C17   C18   A    
C8    C41   T    
C20   H6    S    
C36   H9    S    
C5    H16   S    
C4    C6    S    
C4    C38   S    
C11   H3    S    
C2    C5    S    
O2    Zn2   S    
C3    C4    S    
C34   O7    A    
C37   N1    A    
C15   C17   A    
C46   H24   S    
C35   H14   S    
C31   C36   A    
C26   N2    A    
C47   C48   A    
C3    C5    S    
C43   C48   A    
C1    O2    A    
C10   C23   S    
N2    Zn2   S    
C32   C33   A    
C29   C31   A    
C22   H19   S    
O6    Zn2   S    
C11   C13   A    
C5    C6    S    
C38   H11   S    
C44   H22   S    
C2    C42   S    
C33   C35   A    
O4    Zn2   S    
C30   N2    A    
C34   O8    A    
C46   C47   A    
C9    C18   A    
C1    C24   S    
C27   C28   A    
N1    Zn1   S    
C6    C39   S    
C36   N1    A    
C3    H17   S    
