data_mof_unit_23075.cif
_audit_creation_date              2012-12-11T17:44:01-0500
_audit_creation_method            fapswitch 2.2
_symmetry_space_group_name_H-M    P1
_symmetry_Int_Tables_number       1
_space_group_crystal_system       triclinic
_cell_length_a                    20.230984
_cell_length_b                    22.77955
_cell_length_c                    6.94624
_cell_angle_alpha                 89.999941
_cell_angle_beta                  87.053219
_cell_angle_gamma                 90.000113
_cell_volume                      3196.9606524

loop_
_atom_site_label
_atom_site_type_symbol
_atom_type_description
_atom_site_fract_x
_atom_site_fract_y
_atom_site_fract_z
_atom_type_partial_charge
O1    O     O_R   0.751270 0.447300 0.600030 -0.541291
O2    O     O_R   0.248730 0.947300 0.399970 -0.541291
O3    O     O_R   0.613530 0.440160 0.952150 -0.532464
O4    O     O_R   0.386470 0.940160 0.047850 -0.532462
O5    O     O_R   0.613050 0.552700 0.122560 -0.539053
O6    O     O_R   0.386950 0.052700 0.877440 -0.539054
C1    C     C_R   0.591544 0.425543 0.786621 0.834081
C2    C     C_R   0.408456 0.925543 0.213379 0.834080
O7    O     O_R   0.750780 0.440350 0.929820 -0.542457
O8    O     O_R   0.249220 0.940350 0.070180 -0.542455
O9    O     O_R   0.751280 0.552900 0.100070 -0.546233
O10   O     O_R   0.248720 0.052900 0.899930 -0.546234
C3    C     C_R   0.774034 0.426369 0.757841 0.748371
C4    C     C_R   0.225966 0.926369 0.242159 0.748369
O11   O     O_R   0.613040 0.447100 0.622520 -0.538074
O12   O     O_R   0.386960 0.947100 0.377480 -0.538076
O13   O     O_3   0.682160 0.536920 0.777780 -0.379148
O14   O     O_3   0.317840 0.036920 0.222220 -0.379149
V1    V     V_3+5 0.682160 0.493150 0.052630 1.458997
V2    V     V_3+5 0.317840 0.993150 0.947370 1.459000
O15   O     O_R   0.750790 0.559840 0.429870 -0.546382
O16   O     O_R   0.249210 0.059840 0.570130 -0.546382
C5    C     C_R   0.773940 0.573984 0.257696 0.719334
C6    C     C_R   0.226061 0.073984 0.742304 0.719336
O17   O     O_R   0.613540 0.559650 0.452200 -0.539749
O18   O     O_R   0.386460 0.059650 0.547800 -0.539749
C7    C     C_R   0.591540 0.574241 0.286824 0.689422
C8    C     C_R   0.408460 0.074241 0.713176 0.689423
V3    V     V_3+5 0.682160 0.506850 0.552630 1.445057
V4    V     V_3+5 0.317840 0.006850 0.447370 1.445054
O19   O     O_3   0.682150 0.463080 0.277610 -0.364178
O20   O     O_3   0.317850 0.963080 0.722390 -0.364179
C9    C     C_R   0.579240 0.860653 0.195779 0.655538
C10   C     C_R   0.420760 0.360652 0.804248 0.655539
H1    H     H_    0.538569 0.947329 0.185636 0.165619
H2    H     H_    0.461430 0.447328 0.814394 0.165620
H3    H     H_    0.670012 0.776335 0.184526 0.184691
H4    H     H_    0.329989 0.276332 0.815516 0.184692
C11   C     C_R   0.462113 0.881780 0.215074 -0.227461
C12   C     C_R   0.537887 0.381780 0.784929 -0.227462
C13   C     C_R   0.472658 0.594626 0.331059 -0.156865
C14   C     C_R   0.527342 0.094627 0.668921 -0.156864
C15   C     C_R   0.418849 0.632333 0.349706 -0.137781
C16   C     C_R   0.581150 0.132334 0.650265 -0.137783
C17   C     C_R   0.427075 0.692574 0.323454 -0.095740
C18   C     C_R   0.572924 0.192575 0.676523 -0.095740
C19   C     C_R   0.489856 0.717118 0.271753 0.125325
C20   C     C_R   0.510144 0.217118 0.728241 0.125325
C21   C     C_R   0.545443 0.677947 0.259665 0.069285
C22   C     C_R   0.454557 0.177946 0.740340 0.069284
C23   C     C_R   0.500087 0.779118 0.240522 -0.110363
C24   C     C_R   0.499913 0.279118 0.759478 -0.110364
C25   C     C_R   0.566374 0.800149 0.214763 -0.067866
C26   C     C_R   0.433626 0.300148 0.785255 -0.067866
C27   C     C_R   0.619575 0.760785 0.206720 -0.094310
C28   C     C_R   0.380425 0.260784 0.793309 -0.094309
C29   C     C_R   0.609311 0.700835 0.225305 -0.210716
C30   C     C_R   0.390689 0.200834 0.774717 -0.210717
C31   C     C_R   0.447941 0.821436 0.231572 0.545351
C32   C     C_R   0.552059 0.321437 0.768420 0.545351
C33   C     C_R   0.527539 0.900907 0.199028 -0.350095
C34   C     C_R   0.472460 0.400906 0.800993 -0.350096
C35   C     C_R   0.536141 0.616559 0.288207 -0.092827
C36   C     C_R   0.463859 0.116559 0.711791 -0.092827
H5    H     H_    0.464979 0.548048 0.354999 0.123655
H6    H     H_    0.535020 0.048049 0.644974 0.123655
H7    H     H_    0.383445 0.718445 0.353333 0.208282
H8    H     H_    0.616553 0.218446 0.646634 0.208281
H9    H     H_    0.370247 0.614806 0.388796 0.149081
H10   H     H_    0.629751 0.114808 0.611162 0.149079
H11   H     H_    0.652352 0.672512 0.216451 0.108172
H12   H     H_    0.347649 0.172510 0.783581 0.108174
C37   C     C_R   0.170224 0.883646 0.257963 -0.097635
C38   C     C_R   0.829774 0.383645 0.742038 -0.097633
C39   C     C_R   0.131954 0.872384 0.098679 -0.211821
C40   C     C_R   0.868043 0.372381 0.901323 -0.211824
C41   C     C_R   0.078106 0.833351 0.111468 0.275538
C42   C     C_R   0.921889 0.333347 0.888538 0.275540
C43   C     C_R   0.062646 0.803104 0.288115 0.363962
C44   C     C_R   0.937349 0.303100 0.711890 0.363952
C45   C     C_R   0.100937 0.815050 0.446186 -0.191311
C46   C     C_R   0.899058 0.315046 0.553818 -0.191319
C47   C     C_R   0.153790 0.854711 0.432250 -0.177343
C48   C     C_R   0.846208 0.354709 0.567752 -0.177338
C49   C     C_R   0.904151 0.686818 0.384025 -0.188863
C50   C     C_R   0.095849 0.186818 0.615981 -0.188865
C51   C     C_R   0.850761 0.647527 0.401499 -0.197358
C52   C     C_R   0.149237 0.147525 0.598502 -0.197351
C53   C     C_R   0.938161 0.695887 0.203768 0.309028
C54   C     C_R   0.061845 0.195892 0.796244 0.309026
N1    N     N_2   0.007458 0.764246 0.319685 -0.289569
N2    N     N_2   0.992535 0.264238 0.680315 -0.289555
N3    N     N_2   0.993682 0.734435 0.176351 -0.244408
N4    N     N_2   0.006328 0.234443 0.823668 -0.244414
C55   C     C_R   0.829637 0.616809 0.239709 -0.140264
C56   C     C_R   0.170365 0.116810 0.760293 -0.140268
H13   H     H_    0.826049 0.641249 0.542012 0.163877
H14   H     H_    0.173945 0.141244 0.457985 0.163882
H15   H     H_    0.918850 0.709628 0.511594 0.219515
H16   H     H_    0.081148 0.209627 0.488411 0.219532
H17   H     H_    0.089840 0.793009 0.581812 0.164472
H18   H     H_    0.910154 0.293005 0.418194 0.164472
H19   H     H_    0.182025 0.862437 0.558127 0.153788
H20   H     H_    0.817973 0.362436 0.441874 0.153789
C57   C     C_R   0.863280 0.626517 0.060211 -0.280986
C58   C     C_R   0.136728 0.126523 0.939797 -0.280983
C59   C     C_R   0.916965 0.665261 0.043026 0.597252
C60   C     C_R   0.083045 0.165269 0.956986 0.597253
H21   H     H_    0.848687 0.603537 0.932656 0.159260
H22   H     H_    0.151323 0.103545 0.067352 0.159258
H23   H     H_    0.142806 0.895091 0.963616 0.148169
H24   H     H_    0.857190 0.395089 0.036386 0.148170
N5    N     N_2   0.039540 0.827860 0.947006 -0.532906
H25   H     H_    0.034664 0.785950 0.894264 0.305546
C61   C     C_3   0.979189 0.861910 0.954223 -0.465230
H26   H     H_    0.955362 0.858186 0.814260 0.206388
H27   H     H_    0.990311 0.908950 0.980002 0.199288
H28   H     H_    0.944215 0.845485 0.070465 0.214333
N6    N     N_2   0.960450 0.327853 0.053008 -0.532908
H29   H     H_    0.965325 0.285942 0.105749 0.305549
C62   C     C_3   0.020799 0.361907 0.045821 -0.465206
H30   H     H_    0.044623 0.358177 0.185786 0.206388
H31   H     H_    0.009674 0.408947 0.020068 0.199281
H32   H     H_    0.055776 0.345490 0.929573 0.214333
F1    F     F_    0.948837 0.672893 0.868157 -0.693854
F2    F     F_    0.051179 0.172905 0.131861 -0.693867
F3    F     F_    0.642283 0.881088 0.174548 -0.671372
F4    F     F_    0.357717 0.381086 0.825496 -0.671370
F5    F     F_    0.383433 0.805855 0.226052 -0.714712
F6    F     F_    0.616567 0.305856 0.773920 -0.714714

loop_
_geom_bond_atom_site_label_1
_geom_bond_atom_site_label_2
_ccdc_geom_bond_type
C52   C56   A    
C12   C32   A    
C54   N4    S    
C22   C36   A    
C25   C27   A    
C10   C34   A    
O4    C2    A    
V1    O19   S    
C21   C29   A    
C19   C21   A    
C45   H17   S    
C57   C59   A    
O9    V1    S    
C47   H19   S    
C21   C35   A    
C40   C42   A    
O3    C1    A    
C6    C56   S    
C58   H22   S    
C42   C44   A    
O12   V4    S    
C61   H26   S    
C9    F3    S    
C12   C34   A    
C17   C19   A    
O7    C3    A    
C62   H32   S    
C56   C58   A    
C24   C32   A    
O5    C7    A    
O7    V1    S    
O6    C8    A    
O8    V2    S    
C61   H27   S    
C51   C55   A    
C17   H7    S    
C1    C12   S    
O3    V1    S    
O14   V4    S    
C2    C11   S    
C28   C30   A    
C50   H16   S    
C43   N1    S    
C20   C22   A    
C2    O12   A    
O17   V3    S    
C13   C15   A    
C53   C59   A    
C14   C16   A    
C41   N5    S    
N2    N4    D    
C45   C47   A    
C24   C26   A    
O11   V3    S    
C18   C20   A    
N6    C62   S    
C9    C25   A    
C11   C33   A    
C26   C28   A    
C49   C51   A    
C22   C30   A    
C4    C37   S    
C59   F1    S    
C44   C46   A    
C50   C54   A    
C32   F6    S    
C43   C45   A    
C49   C53   A    
C19   C23   A    
C1    O11   A    
C16   C18   A    
O15   V3    S    
N5    C61   S    
H2    C34   S    
O4    V2    S    
C44   N2    S    
O1    C3    A    
C18   H8    S    
C49   H15   S    
N1    N3    D    
C39   C41   A    
C40   H24   S    
C61   H28   S    
C11   C31   A    
O10   V2    S    
O1    V3    S    
C46   H18   S    
C41   C43   A    
H1    C33   S    
C29   H11   S    
C16   H10   S    
C15   C17   A    
C62   H30   S    
C38   C40   A    
C8    C36   S    
C10   F4    S    
C10   C26   A    
C46   C48   A    
O15   C5    A    
O8    C4    A    
C48   H20   S    
O16   C6    A    
C23   C31   A    
C37   C39   A    
C14   C36   A    
N5    H25   S    
V2    O20   S    
C57   H21   S    
C31   F5    S    
O16   V4    S    
O18   C8    A    
C38   C48   A    
C13   H5    S    
N6    H29   S    
O18   V4    S    
O5    V1    S    
O17   C7    A    
O6    V2    S    
O10   C6    A    
C39   H23   S    
O2    V4    S    
C60   F2    S    
C27   C29   A    
C42   N6    S    
C54   C60   A    
V3    O19   S    
O13   V3    S    
V4    O20   S    
C30   H12   S    
C58   C60   A    
C50   C52   A    
O9    C5    A    
O13   V1    S    
C5    C55   S    
O14   V2    S    
C53   N3    S    
O2    C4    A    
C62   H31   S    
H3    C27   S    
C20   C24   A    
H4    C28   S    
C3    C38   S    
C9    C33   A    
C55   C57   A    
C14   H6    S    
C13   C35   A    
C7    C35   S    
C23   C25   A    
C15   H9    S    
C37   C47   A    
C52   H14   S    
C51   H13   S    
