data_mof_unit_68364.cif
_audit_creation_date              2013-03-05T15:53:46-0500
_audit_creation_method            fapswitch 2.2
_symmetry_space_group_name_H-M    P1
_symmetry_Int_Tables_number       1
_space_group_crystal_system       triclinic
_cell_length_a                    11.150131
_cell_length_b                    10.881085
_cell_length_c                    10.289742
_cell_angle_alpha                 88.620402
_cell_angle_beta                  88.867906
_cell_angle_gamma                 95.533531
_cell_volume                      1241.92463251

loop_
_atom_site_label
_atom_site_type_symbol
_atom_site_description
_atom_site_fract_x
_atom_site_fract_y
_atom_site_fract_z
_atom_type_partial_charge
O1    O     O_R   0.500000 0.316780 0.614690 -0.586126
O2    O     O_R   0.499990 0.316750 0.385360 -0.609810
C1    C     C_R   0.512188 0.263238 0.503897 0.931556
O3    O     O_R   0.314800 0.499990 0.614670 -0.553163
O4    O     O_R   0.314790 0.499970 0.385330 -0.576470
C2    C     C_R   0.259263 0.505602 0.498616 1.010869
Zn1   Zn    Zn3+2 0.500010 0.500020 0.653130 1.140549
Zn2   Zn    Zn3+2 0.499990 0.499980 0.346870 1.152423
O5    O     O_R   0.500010 0.683250 0.614640 -0.587383
O6    O     O_R   0.500000 0.683220 0.385310 -0.531603
O7    O     O_R   0.685210 0.500030 0.614670 -0.548666
O8    O     O_R   0.685200 0.500010 0.385330 -0.567989
C3    C     C_R   0.498525 0.740146 0.499886 0.957532
C4    C     C_R   0.741888 0.508416 0.499420 1.007974
C5    C     C_3   0.073373 0.540717 0.630880 -0.033597
H1    H     H_    0.124691 0.627155 0.658875 0.230037
C6    C     C_3   0.938557 0.566156 0.633637 0.342847
C7    C     C_3   0.086395 0.630304 0.396652 0.302268
C8    C     C_3   0.058841 0.389698 0.433488 0.368856
C9    C     C_3   0.123004 0.514756 0.489608 -0.452289
C10   C     C_3   0.879977 0.517058 0.498327 -0.412614
C11   C     C_3   0.940971 0.610158 0.387393 -0.065717
C12   C     C_3   0.917279 0.383438 0.456364 0.306894
H2    H     H_    0.921089 0.560318 0.297236 0.232875
H3    H     H_    0.624153 0.131702 0.334507 0.252850
C13   C     C_R   0.553206 0.098417 0.762386 0.215498
C14   C     C_R   0.538745 0.012945 0.865498 0.230605
C15   C     C_R   0.453326 0.912770 0.857036 0.149612
C16   C     C_R   0.416700 0.875240 0.734454 0.262813
C17   C     C_R   0.472202 0.936521 0.621976 -0.102555
C18   C     C_R   0.515679 0.061924 0.635585 -0.028055
C19   C     C_R   0.537183 0.134038 0.519145 -0.088341
C20   C     C_R   0.578447 0.076966 0.412303 -0.126196
C21   C     C_R   0.564248 0.950059 0.404580 0.331024
C22   C     C_R   0.501765 0.876701 0.504247 -0.119965
C23   C     C_R   0.397865 0.297007 0.137450 0.227301
C24   C     C_R   0.288084 0.234646 0.106240 0.161417
C25   C     C_R   0.241932 0.260555 0.986075 0.178551
C26   C     C_R   0.318569 0.331109 0.893836 0.219044
C27   C     C_R   0.417324 0.417749 0.936172 0.030090
C28   C     C_R   0.428640 0.412811 0.076614 -0.052672
N1    N     N_R   0.498810 0.498800 0.142780 -0.145841
C29   C     C_R   0.584692 0.565641 0.067424 0.329780
C30   C     C_R   0.579398 0.576183 0.927597 0.267690
N2    N     N_R   0.498760 0.498720 0.857170 -0.123771
Br1   Br    Br    0.831934 0.320457 0.300427 -0.221207
N3    N     N_R   0.141653 0.637223 0.262943 0.258656
O9    O     O_R   0.255510 0.674135 0.246088 -0.245458
O10   O     O_R   0.075542 0.639564 0.160010 -0.214735
Br2   Br    Br    0.637617 0.249786 0.810660 -0.239175
Br3   Br    Br    0.658232 0.016883 0.996761 -0.036867
Br4   Br    Br    0.369255 0.843842 0.009751 -0.124964
N4    N     N_R   0.309821 0.793540 0.727627 0.241027
O11   O     O_R   0.208613 0.843473 0.721711 -0.235976
O12   O     O_R   0.308928 0.684194 0.781416 -0.331047
N5    N     N_R   0.617094 0.898928 0.294799 0.262113
O13   O     O_R   0.546321 0.849468 0.208114 -0.259478
O14   O     O_R   0.728054 0.936856 0.262124 -0.197019
N6    N     N_R   0.694174 0.605650 0.126905 0.253184
O15   O     O_R   0.792256 0.556139 0.097468 -0.244797
O16   O     O_R   0.693857 0.683593 0.218746 -0.256453
N7    N     N_R   0.099235 0.451115 0.732984 0.266430
O17   O     O_R   0.136790 0.492635 0.844102 -0.253292
O18   O     O_R   0.055080 0.336772 0.728852 -0.232957
N8    N     N_R   0.495016 0.222076 0.158845 0.203807
O19   O     O_R   0.605873 0.268899 0.138706 -0.306797
O20   O     O_R   0.473257 0.102716 0.168325 -0.349515
Br5   Br    Br    0.216979 0.093491 0.208508 -0.095348
N9    N     N_R   0.130542 0.193453 0.950179 0.302872
O21   O     O_R   0.129985 0.080240 0.911867 -0.208930
O22   O     O_R   0.029007 0.234590 0.983761 -0.155164
Br6   Br    Br    0.294710 0.256171 0.733607 -0.309671
N10   N     N_R   0.658431 0.674867 0.865965 0.218472
O23   O     O_R   0.677554 0.682869 0.742282 -0.318891
O24   O     O_R   0.711993 0.761884 0.934354 -0.250970
N11   N     N_R   0.880423 0.516793 0.757057 0.274352
O25   O     O_R   0.899179 0.579009 0.862503 -0.183295
O26   O     O_R   0.847680 0.400984 0.774169 -0.225948
Br7   Br    Br    0.934264 0.747549 0.655146 -0.111515
N12   N     N_R   0.131442 0.749242 0.453897 0.232085
O27   O     O_R   0.084341 0.850805 0.424544 -0.185591
O28   O     O_R   0.244215 0.762668 0.483732 -0.399527
N13   N     N_R   0.885710 0.726374 0.365956 0.304778
O29   O     O_R   0.793033 0.754043 0.434248 -0.334048
O30   O     O_R   0.916545 0.792799 0.261446 -0.137797
Br8   Br    Br    0.102662 0.377808 0.249220 -0.295493
Br9   Br    Br    0.125405 0.237261 0.486422 -0.173796
Br10  Br    Br    0.850669 0.244234 0.567700 -0.210189

loop_
_geom_bond_atom_site_label_1
_geom_bond_atom_site_label_2
_geom_bond_distance
_ccdc_geom_bond_type
C21   N5    1.414204 S    
N10   O23   1.285723 A    
C8    C9    1.601063 S    
C8    Br8   1.959067 S    
C7    N3    1.493573 S    
N3    O10   1.303458 A    
C7    N12   1.482284 S    
N4    O11   1.300677 A    
Zn1   O7    2.094880 S    
C13   C14   1.390483 A    
C16   C17   1.421994 A    
C17   C22   1.436455 A    
N13   O29   1.301441 A    
Zn1   N2    2.098989 S    
C4    C10   1.533308 S    
C15   C16   1.391946 A    
Zn2   N1    2.100675 S    
C3    C22   1.484594 S    
C8    Br9   1.951573 S    
N9    O21   1.301916 A    
C13   Br2   1.898500 S    
O4    C2    1.314591 A    
O7    C4    1.329701 A    
C5    H1    1.100347 S    
C24   Br5   1.936317 S    
C6    Br7   1.996448 S    
N5    O13   1.294985 A    
Zn1   O5    2.023323 S    
C21   C22   1.413996 A    
C28   N1    1.364429 A    
N9    O22   1.300461 A    
O5    C3    1.321121 A    
N7    O18   1.295155 A    
C18   C19   1.419805 A    
N8    O20   1.298990 A    
C6    N11   1.479509 S    
C26   Br6   1.869272 S    
C29   N6    1.412154 S    
C25   N9    1.438178 S    
C13   C18   1.431645 A    
C12   Br1   1.984254 S    
C7    C11   1.620173 S    
C10   C11   1.603900 S    
N10   O24   1.299240 A    
C23   C28   1.402684 A    
C30   N10   1.447202 S    
O3    Zn1   2.110327 S    
C14   Br3   1.914165 S    
N4    O12   1.299178 A    
C27   N2    1.429560 A    
N6    O16   1.285069 A    
N11   O25   1.302425 A    
N12   O28   1.295658 A    
C26   C27   1.459290 A    
C23   N8    1.434496 S    
C6    C10   1.629428 S    
C5    C9    1.586592 S    
O1    C1    1.303339 A    
C8    C12   1.585974 S    
C29   C30   1.443420 A    
C24   C25   1.381843 A    
N3    O9    1.301036 A    
C17   C18   1.414515 A    
Zn2   O8    2.110330 S    
N7    O17   1.301554 A    
C20   C21   1.379068 A    
O3    C2    1.358757 A    
C27   C28   1.453253 A    
N13   O30   1.302718 A    
O8    C4    1.345138 A    
C12   Br10  1.955560 S    
C10   C12   1.616514 S    
C11   H2    1.101371 S    
N1    C29   1.362491 A    
C30   N2    1.397509 A    
C5    C6    1.554355 S    
C23   C24   1.388442 A    
O1    Zn1   2.042014 S    
O2    Zn2   2.023323 S    
N11   O26   1.284625 A    
N12   O27   1.300176 A    
O6    C3    1.345460 A    
O4    Zn2   2.094879 S    
C2    C9    1.536591 S    
C11   N13   1.472972 S    
O2    C1    1.353832 A    
C19   C20   1.368933 A    
C15   Br4   1.913110 S    
C25   C26   1.423626 A    
C16   N4    1.420351 S    
C5    N7    1.467784 S    
N5    O14   1.300952 A    
C7    C9    1.648864 S    
C1    C19   1.464694 S    
N6    O15   1.298612 A    
Zn2   O6    2.042014 S    
N8    O19   1.301431 A    
C14   C15   1.382197 A    
H3    C20   1.075934 S    
