data_mof_unit_21045.cif
_audit_creation_date              2012-12-10T20:43:23-0500
_audit_creation_method            fapswitch 2.2
_symmetry_space_group_name_H-M    P1
_symmetry_Int_Tables_number       1
_space_group_crystal_system       triclinic
_cell_length_a                    15.798127
_cell_length_b                    10.660634
_cell_length_c                    9.93527
_cell_angle_alpha                 90.30986
_cell_angle_beta                  89.264619
_cell_angle_gamma                 89.733314
_cell_volume                      1673.09783866

loop_
_atom_site_label
_atom_site_type_symbol
_atom_type_description
_atom_site_fract_x
_atom_site_fract_y
_atom_site_fract_z
_atom_type_partial_charge
C1    C     C_R   0.502805 0.260024 0.499516 0.897064
C2    C     C_R   0.561536 0.931535 0.397109 0.180339
C3    C     C_R   0.521073 0.869804 0.504667 -0.236981
C4    C     C_R   0.339492 0.501579 0.500814 0.909654
C5    C     C_R   0.499179 0.936687 0.620209 0.024261
C6    C     C_3   0.426857 0.927814 0.720086 0.456898
C7    C     C_3   0.421539 0.071160 0.712925 -0.551163
C8    C     C_R   0.434762 0.552151 0.072357 0.038585
C9    C     C_R   0.569378 0.458900 0.069189 0.171913
C10   C     C_R   0.567163 0.452291 0.925197 0.179745
C11   C     C_R   0.434671 0.550872 0.930454 0.091092
C12   C     C_R   0.044213 0.414995 0.542733 -0.227119
C13   C     C_3   0.344136 0.511370 0.926559 0.006178
C14   C     C_3   0.343162 0.517006 0.080317 -0.053632
C15   C     C_R   0.505189 0.739145 0.500629 0.913258
C16   C     C_R   0.660507 0.500188 0.499475 0.883629
C17   C     C_R   0.956961 0.413678 0.543391 -0.250697
C18   C     C_R   0.912510 0.522400 0.512000 0.085609
C19   C     C_R   0.954156 0.635778 0.483192 0.209278
C20   C     C_R   0.043359 0.636630 0.479100 0.150109
C21   C     C_R   0.087015 0.524544 0.508927 0.065170
C22   C     C_3   0.707467 0.523900 0.138637 -0.743916
C23   C     C_1   0.823678 0.513922 0.504198 -0.031822
C24   C     C_3   0.628603 0.259414 0.833572 -0.752811
C25   C     C_3   0.248530 0.343079 0.859269 -0.797523
C26   C     C_3   0.201186 0.597387 0.130582 -0.817735
C27   C     C_3   0.868493 0.807929 0.568975 -0.815673
C28   C     C_3   0.088789 0.848254 0.538510 -0.819104
C29   C     C_3   0.544751 0.127006 0.158227 -0.805412
C30   C     C_3   0.696907 0.842285 0.341690 -0.764803
C31   C     C_3   0.279080 0.855406 0.751309 -0.824339
C32   C     C_3   0.538821 0.870849 0.888255 -0.801296
C33   C     C_1   0.176198 0.518346 0.505772 -0.078835
C34   C     C_1   0.251074 0.510357 0.503141 -0.189294
C35   C     C_1   0.748926 0.506581 0.499702 -0.203827
C36   C     C_R   0.495826 0.063633 0.617490 0.008512
C37   C     C_R   0.516215 0.127937 0.500271 -0.197767
C38   C     C_R   0.556828 0.062932 0.392144 0.131999
H1    H     H_    0.078518 0.329692 0.566279 0.158295
H2    H     H_    0.563765 0.224800 0.855560 0.235348
H3    H     H_    0.303820 0.581733 0.875075 0.179105
H4    H     H_    0.373734 0.318097 0.917220 0.212623
H5    H     H_    0.217433 0.333485 0.959584 0.234098
H6    H     H_    0.248180 0.250536 0.807465 0.232103
H7    H     H_    0.212383 0.410753 0.797396 0.252093
H8    H     H_    0.311810 0.657952 0.220462 0.257805
H9    H     H_    0.166894 0.684831 0.158976 0.238742
H10   H     H_    0.184712 0.522668 0.203743 0.247818
H11   H     H_    0.180219 0.569059 0.028657 0.253783
H12   H     H_    0.437283 0.119088 0.808799 0.189899
H13   H     H_    0.331650 0.426631 0.133067 0.167050
H14   H     H_    0.924029 0.327213 0.566314 0.157628
H15   H     H_    0.935239 0.806642 0.386765 0.245387
H16   H     H_    0.917635 0.833265 0.643074 0.243837
H17   H     H_    0.821038 0.746615 0.618567 0.252256
H18   H     H_    0.836005 0.895119 0.537023 0.233423
H19   H     H_    0.146646 0.731729 0.395811 0.234315
H20   H     H_    0.080536 0.812417 0.642763 0.244999
H21   H     H_    0.037793 0.916514 0.516261 0.253186
H22   H     H_    0.149736 0.899594 0.532050 0.234885
H23   H     H_    0.670385 0.340489 0.104775 0.217286
H24   H     H_    0.625950 0.208171 0.301176 0.243361
H25   H     H_    0.587993 0.110582 0.071429 0.227606
H26   H     H_    0.512594 0.218765 0.145737 0.255338
H27   H     H_    0.495909 0.052173 0.158188 0.237361
H28   H     H_    0.607344 0.895832 0.203415 0.245561
H29   H     H_    0.733227 0.793031 0.261010 0.232997
H30   H     H_    0.698082 0.784152 0.434092 0.247536
H31   H     H_    0.728398 0.933539 0.361036 0.235482
H32   H     H_    0.339299 0.887050 0.567512 0.200193
H33   H     H_    0.232227 0.792994 0.703302 0.249453
H34   H     H_    0.733901 0.542658 0.037042 0.195952
H35   H     H_    0.250643 0.949932 0.766979 0.232332
H36   H     H_    0.294494 0.813089 0.849759 0.254988
H37   H     H_    0.412913 0.915433 0.930619 0.218150
H38   H     H_    0.544045 0.831982 0.991224 0.228260
H39   H     H_    0.568983 0.964632 0.885438 0.229626
H40   H     H_    0.572692 0.805838 0.818314 0.266103
H41   H     H_    0.363671 0.107509 0.663500 0.187578
H42   H     H_    0.760320 0.496200 0.204875 0.240427
H43   H     H_    0.678510 0.611861 0.177844 0.268922
H44   H     H_    0.694418 0.425277 0.869174 0.215391
H45   H     H_    0.673945 0.211576 0.900825 0.197856
H46   H     H_    0.645705 0.234634 0.728050 0.249934
N1    N     N_R   0.499440 0.499140 0.142800 -0.139617
N2    N     N_2   0.610531 0.862656 0.300286 -0.284066
N3    N     N_2   0.353508 0.863485 0.665347 -0.289675
N4    N     N_2   0.450283 0.880683 0.852962 -0.271213
N5    N     N_R   0.499440 0.499180 0.857150 -0.124253
N6    N     N_2   0.644821 0.424951 0.136077 -0.261752
N7    N     N_2   0.634186 0.393902 0.851038 -0.254549
N8    N     N_2   0.334848 0.384541 0.874366 -0.262185
N9    N     N_2   0.291367 0.620142 0.130907 -0.294654
N10   N     N_2   0.906280 0.745643 0.452795 -0.301242
N11   N     N_2   0.088246 0.747175 0.440419 -0.318429
N12   N     N_2   0.593789 0.126581 0.280539 -0.296953
O1    O     O_R   0.500010 0.316790 0.614690 -0.591402
O2    O     O_R   0.500000 0.316760 0.385350 -0.614788
O3    O     O_R   0.378030 0.499990 0.614640 -0.579036
O4    O     O_R   0.378020 0.499950 0.385300 -0.636221
O5    O     O_R   0.500000 0.683240 0.614650 -0.602972
O6    O     O_R   0.499990 0.683210 0.385310 -0.599265
O7    O     O_R   0.621980 0.500050 0.614700 -0.599526
O8    O     O_R   0.621970 0.500010 0.385360 -0.580550
Zn1   Zn    Zn3+2 0.500010 0.500020 0.653130 0.978766
Zn2   Zn    Zn3+2 0.499990 0.499980 0.346870 0.947666

loop_
_geom_bond_atom_site_label_1
_geom_bond_atom_site_label_2
_ccdc_geom_bond_type
C29   H25   S    
H24   N12   S    
C7    C36   S    
C19   C20   A    
C25   H5    S    
C13   H3    S    
C27   H16   S    
C28   N11   S    
C36   C37   A    
C24   H45   S    
C18   C19   A    
C16   C35   S    
C5    C6    S    
C27   H17   S    
C31   H35   S    
C21   C33   S    
C32   N4    S    
C5    C36   A    
C6    N4    S    
C25   H6    S    
C8    N1    A    
C11   N5    A    
C9    N1    A    
C32   H39   S    
C16   O8    A    
C10   N5    A    
C12   C17   A    
O6    Zn2   S    
C30   N2    S    
C9    C10   A    
C14   N9    S    
C30   H29   S    
C26   H10   S    
O1    Zn1   S    
C26   N9    S    
C31   H33   S    
C29   H26   S    
C13   C14   S    
H32   N3    S    
C17   H14   S    
C22   H34   S    
C17   C18   A    
C28   H22   S    
O5    Zn1   S    
O3    Zn1   S    
C4    C34   S    
C31   N3    S    
C18   C23   S    
C22   H43   S    
C26   H11   S    
C1    O1    A    
C27   H18   S    
C31   H36   S    
C12   C21   A    
H44   N7    S    
C1    O2    A    
C32   H38   S    
C37   C38   A    
C2    C38   A    
C16   O7    A    
C14   H13   S    
C33   C34   T    
C22   N6    S    
O7    Zn1   S    
C15   O5    A    
C6    C7    S    
C19   N10   S    
C26   H9    S    
C29   H27   S    
C20   N11   S    
C10   N7    S    
C23   C35   T    
C4    O4    A    
C13   N8    S    
N5    Zn1   S    
N1    Zn2   S    
C24   N7    S    
C25   H7    S    
C30   H31   S    
C3    C15   S    
H23   N6    S    
C7    H41   S    
C28   H21   S    
C25   N8    S    
C8    C14   S    
H15   N10   S    
C7    H12   S    
C3    C5    A    
C9    N6    S    
H28   N2    S    
C29   N12   S    
O8    Zn2   S    
C28   H20   S    
O4    Zn2   S    
O2    Zn2   S    
C12   H1    S    
C2    C3    A    
C24   H46   S    
C22   H42   S    
C11   C13   S    
H8    N9    S    
C8    C11   A    
C24   H2    S    
C2    N2    S    
H4    N8    S    
C15   O6    A    
C6    N3    S    
C32   H40   S    
H37   N4    S    
C20   C21   A    
H19   N11   S    
C4    O3    A    
C38   N12   S    
C27   N10   S    
C30   H30   S    
C1    C37   S    
