data_mof_unit_25662.cif
_audit_creation_date              2012-12-11T14:50:39-0500
_audit_creation_method            fapswitch 2.2
_symmetry_space_group_name_H-M    P1
_symmetry_Int_Tables_number       1
_space_group_crystal_system       triclinic
_cell_length_a                    11.06213
_cell_length_b                    10.974974
_cell_length_c                    18.81023
_cell_angle_alpha                 89.998369
_cell_angle_beta                  89.738436
_cell_angle_gamma                 59.657585
_cell_volume                      1970.84333433

loop_
_atom_site_label
_atom_site_type_symbol
_atom_type_description
_atom_site_fract_x
_atom_site_fract_y
_atom_site_fract_z
_atom_type_partial_charge
C1    C     C_R   0.296831 0.621408 0.615089 0.555212
C2    C     C_3   0.709320 0.555394 0.798467 -0.264764
C3    C     C_3   0.721984 0.689552 0.805948 0.081461
C4    C     C_3   0.676059 0.653851 0.672827 0.022162
C5    C     C_3   0.811283 0.659962 0.676979 -0.152496
C6    C     C_3   0.694905 0.528721 0.720218 -0.282832
C7    C     C_R   0.765814 0.194403 0.715098 -0.169525
C8    C     C_R   0.773430 0.182406 0.789151 -0.184437
C9    C     C_R   0.669144 0.172969 0.827048 0.069508
C10   C     C_R   0.547251 0.194180 0.790261 0.104176
C11   C     C_R   0.548014 0.193810 0.717546 -0.132496
C12   C     C_R   0.652845 0.620911 0.600821 0.529214
C13   C     C_R   0.653723 0.196964 0.679106 -0.003330
C14   C     C_R   0.276323 0.528133 0.732607 -0.153693
C15   C     C_R   0.241827 0.546579 0.804794 -0.140119
C16   C     C_R   0.194976 0.676341 0.837455 0.023121
C17   C     C_R   0.199952 0.785697 0.798759 0.079257
C18   C     C_R   0.232774 0.768528 0.726744 0.102557
C19   C     C_R   0.269581 0.638503 0.692436 -0.000236
C20   C     C_R   0.805544 0.609655 0.296194 0.144791
C21   C     C_R   0.821978 0.625702 0.223784 -0.111113
C22   C     C_R   0.706022 0.708933 0.180902 -0.005940
C23   C     C_R   0.624978 0.234551 0.604441 0.513096
C24   C     C_R   0.571508 0.779608 0.210581 -0.158401
C25   C     C_R   0.552821 0.759231 0.281817 -0.193454
C26   C     C_R   0.668545 0.672677 0.324740 0.033430
C27   C     C_R   0.562725 0.124112 0.293133 0.061880
C28   C     C_R   0.562772 0.120526 0.219834 -0.153859
C29   C     C_R   0.662724 0.134255 0.181113 -0.037920
C30   C     C_R   0.770685 0.140857 0.216479 -0.116945
C31   C     C_R   0.776967 0.138435 0.290759 0.103843
C32   C     C_R   0.661911 0.147661 0.328792 0.042961
C33   C     C_R   0.294324 0.584453 0.277985 0.081319
C34   C     C_R   0.223223 0.649234 0.401337 0.569301
C35   C     C_R   0.261969 0.595379 0.206331 -0.151237
C36   C     C_R   0.124329 0.682207 0.185870 0.010003
C37   C     C_R   0.017737 0.759800 0.235560 -0.142405
C38   C     C_R   0.048510 0.747304 0.307233 -0.181411
C39   C     C_R   0.186254 0.658766 0.328191 0.072390
C40   C     C_R   0.697752 0.107038 0.897629 0.547926
C41   C     C_R   0.749624 0.706914 0.882358 0.562381
C42   C     C_R   0.119658 0.707723 0.905993 0.538147
C43   C     C_R   0.677325 0.100670 0.105907 0.541305
C44   C     C_R   0.731165 0.717582 0.105414 0.560485
C45   C     C_R   0.644234 0.625820 0.393545 0.555817
C46   C     C_R   0.090758 0.710012 0.112726 0.542008
C47   C     C_R   0.621054 0.222051 0.397223 0.570078
C48   C     C_3   0.582621 0.821590 0.777801 -0.032717
C49   C     C_3   0.548864 0.790935 0.702702 0.027769
C50   C     C_3   0.844827 0.676001 0.756094 0.212619
Cr1   Cr    Cr6+3 0.392930 0.397900 0.502230 1.014134
Cr2   Cr    Cr6+3 0.398240 0.708600 0.501260 1.035378
Cr3   Cr    Cr6+3 0.708800 0.393470 0.496460 1.025444
Cr4   Cr    Cr6+3 0.937620 0.938540 0.007640 0.997367
Cr5   Cr    Cr6+3 0.625150 0.937450 0.994520 1.033164
Cr6   Cr    Cr6+3 0.937990 0.625080 0.001190 1.002601
H1    H     H_    0.599494 0.912749 0.774361 0.185731
H2    H     H_    0.791273 0.430287 0.703718 0.145085
H3    H     H_    0.899277 0.561972 0.653284 0.136075
H4    H     H_    0.847846 0.199456 0.686083 0.125819
H5    H     H_    0.861479 0.177316 0.816341 0.114521
H6    H     H_    0.459613 0.197463 0.691128 0.125605
H7    H     H_    0.298635 0.431305 0.706841 0.141151
H8    H     H_    0.238612 0.464706 0.834602 0.160891
H9    H     H_    0.925566 0.574124 0.200234 0.135390
H10   H     H_    0.480556 0.844766 0.178230 0.139979
H11   H     H_    0.446941 0.805773 0.302416 0.138157
H12   H     H_    0.484506 0.105097 0.193536 0.143669
H13   H     H_    0.852752 0.141413 0.185470 0.149215
H14   H     H_    0.467891 0.761501 0.708965 0.176147
H15   H     H_    0.344019 0.540533 0.166981 0.114314
H16   H     H_    0.911308 0.831086 0.218492 0.127002
H17   H     H_    0.966448 0.807216 0.345817 0.107142
H18   H     H_    0.803387 0.742610 0.641343 0.102401
H19   H     H_    0.801958 0.460392 0.820618 0.143975
H20   H     H_    0.618548 0.566004 0.829141 0.138204
H21   H     H_    0.605039 0.510602 0.713911 0.123761
O1    O     O_R   0.507430 0.255570 0.581420 -0.555833
O2    O     O_R   0.524460 0.695920 0.424060 -0.509257
O3    O     O_R   0.736530 0.504260 0.414810 -0.467934
O4    O     O_R   0.691460 0.277160 0.422180 -0.482691
O5    O     O_3   0.499990 0.499990 0.499980 -0.271010
O6    O     O_R   0.089490 0.825610 0.930610 -0.526346
O7    O     O_R   0.818370 0.054540 0.929880 -0.519070
O8    O     O_R   0.605870 0.077310 0.915530 -0.493650
O9    O     O_R   0.646440 0.806700 0.917570 -0.450237
O10   O     O_R   0.837200 0.593290 0.915250 -0.538377
O11   O     O_R   0.065330 0.635370 0.931590 -0.527376
O12   O     O_R   0.280190 0.527390 0.578910 -0.516967
O13   O     O_R   0.068300 0.828790 0.091860 -0.512552
O14   O     O_R   0.798730 0.057480 0.079370 -0.508960
O15   O     O_R   0.584680 0.080480 0.076790 -0.525911
O16   O     O_R   0.626790 0.809640 0.067050 -0.495823
O17   O     O_R   0.816010 0.596460 0.076500 -0.506972
O18   O     O_R   0.045680 0.638310 0.081070 -0.522765
O19   O     O_3   0.833590 0.833690 0.001120 -0.295898
O20   O     O_R   0.260310 0.739740 0.584580 -0.474588
O21   O     O_R   0.532250 0.695150 0.573830 -0.486879
O22   O     O_R   0.744930 0.503430 0.576380 -0.544091
O23   O     O_R   0.699250 0.276390 0.571950 -0.510709
O24   O     O_R   0.499020 0.256400 0.419850 -0.469863
O25   O     O_R   0.272400 0.528160 0.429140 -0.482049
O26   O     O_R   0.251910 0.740570 0.423020 -0.518074
N1    N     N_3   0.980686 0.551048 0.773112 -0.633586
H22   H     H_    0.981496 0.457476 0.761707 0.206130
H23   H     H_    0.002656 0.548866 0.826689 0.265366
N2    N     N_3   0.424437 0.208845 0.825726 -0.608375
H24   H     H_    0.439382 0.108629 0.833908 0.261608
H25   H     H_    0.338419 0.253446 0.791659 0.186559
N3    N     N_3   0.157538 0.922863 0.827954 -0.674993
H26   H     H_    0.214272 0.914549 0.873746 0.269186
H27   H     H_    0.050221 0.977101 0.837737 0.262716
N4    N     N_3   0.462908 0.862118 0.825460 -0.632553
H28   H     H_    0.375671 0.951569 0.805124 0.219282
H29   H     H_    0.440248 0.780983 0.828646 0.243575
N5    N     N_3   0.208349 0.891573 0.686915 -0.573758
H30   H     H_    0.246932 0.947510 0.713728 0.237321
H31   H     H_    0.100827 0.959978 0.681435 0.226718
N6    N     N_2   0.924098 0.530277 0.340981 -0.486561
H32   H     H_    0.931815 0.583456 0.384320 0.245581
C51   C     C_3   0.054355 0.418974 0.311449 -0.287024
H33   H     H_    0.120063 0.348944 0.355007 0.152049
H34   H     H_    0.112211 0.463589 0.284323 0.145770
H35   H     H_    0.034118 0.355248 0.272922 0.146063
N7    N     N_3   0.454753 0.114454 0.330725 -0.600022
H36   H     H_    0.357966 0.195521 0.312816 0.222267
H37   H     H_    0.461522 0.019123 0.317637 0.224051
N8    N     N_2   0.894555 0.129091 0.327916 -0.477047
H38   H     H_    0.912953 0.079937 0.376679 0.253944
C52   C     C_3   0.022960 0.090885 0.289637 -0.298689
H39   H     H_    0.066103 0.985366 0.264653 0.158747
H40   H     H_    0.101928 0.087528 0.327094 0.139547
H41   H     H_    0.004308 0.170458 0.248421 0.140702
N9    N     N_3   0.437266 0.502108 0.299665 -0.579073
H42   H     H_    0.492868 0.545129 0.276054 0.228499
H43   H     H_    0.476618 0.401944 0.277709 0.229503
N10   N     N_2   0.484947 0.916877 0.657295 -0.507634
H44   H     H_    0.407276 0.006404 0.681945 0.229197
C53   C     C_3   0.560931 0.947596 0.604263 -0.261357
H45   H     H_    0.484928 0.039491 0.572505 0.169379
H46   H     H_    0.618243 0.860754 0.565901 0.150490
H47   H     H_    0.633903 0.973323 0.630084 0.129557
N11   N     N_2   0.854973 0.802821 0.766367 -0.516417
H48   H     H_    0.880464 0.816558 0.817222 0.249666
C54   C     C_3   0.917478 0.846609 0.712133 -0.279684
H49   H     H_    0.953643 0.913346 0.736630 0.150580
H50   H     H_    0.839237 0.913546 0.672455 0.129997
H51   H     H_    0.003370 0.754332 0.684723 0.185391

loop_
_geom_bond_atom_site_label_1
_geom_bond_atom_site_label_2
_ccdc_geom_bond_type
Cr6   O18   S    
Cr2   O26   S    
C50   N1    S    
C47   O24   A    
C49   N10   S    
C11   C13   A    
C40   O7    A    
C35   C36   A    
C25   H11   S    
Cr5   O16   S    
C11   H6    S    
N8    H38   S    
C54   H51   S    
Cr4   O7    S    
C54   H49   S    
C7    C8    A    
Cr3   O22   S    
Cr1   O25   S    
Cr6   O17   S    
C41   O9    A    
N10   C53   S    
C28   C29   A    
C34   O25   A    
C36   C37   A    
C28   H12   S    
Cr4   O13   S    
C38   C39   A    
C53   H47   S    
Cr6   O11   S    
C15   C16   A    
C3    C48   S    
N5    H30   S    
C13   C23   S    
Cr3   O4    S    
C18   C19   A    
C5    H18   S    
C6    H2    S    
N3    H26   S    
Cr4   O6    S    
C12   O22   A    
C44   O16   A    
C26   C45   S    
C33   N9    S    
C22   C44   S    
C46   O18   A    
C8    C9    A    
C51   H35   S    
N2    H24   S    
C36   C46   S    
C4    C12   S    
Cr2   O2    S    
C9    C10   A    
C12   O21   A    
Cr5   O19   S    
C24   H10   S    
C8    H5    S    
C23   O23   A    
C35   H15   S    
C21   C22   A    
C17   N3    S    
N2    H25   S    
C10   N2    S    
C2    C6    S    
C31   N8    S    
N1    H23   S    
N1    H22   S    
C54   H50   S    
C3    C50   S    
N6    C51   S    
Cr3   O23   S    
C41   O10   A    
C1    C19   S    
C5    H3    S    
C34   C39   S    
C48   H1    S    
Cr3   O3    S    
C24   C25   A    
C4    C6    S    
C18   N5    S    
C16   C17   A    
Cr6   O10   S    
N9    H43   S    
C25   C26   A    
C9    C40   S    
C43   O14   A    
Cr3   O5    S    
C40   O8    A    
Cr5   O8    S    
C52   H40   S    
C37   C38   A    
Cr2   O20   S    
C31   C32   A    
C15   H8    S    
C17   C18   A    
C45   O2    A    
C33   C39   A    
C53   H46   S    
N6    H32   S    
Cr2   O5    S    
Cr1   O5    S    
C51   H33   S    
C48   C49   S    
Cr5   O15   S    
C49   H14   S    
N7    H36   S    
C32   C47   S    
C22   C24   A    
C5    C50   S    
C52   H41   S    
C42   O11   A    
C1    O20   A    
C16   C42   S    
C7    H4    S    
C30   H13   S    
C2    H20   S    
C50   N11   S    
N4    H28   S    
N11   C54   S    
C3    C41   S    
C1    O12   A    
C21   H9    S    
C27   C32   A    
Cr4   O19   S    
C14   C19   A    
C42   O6    A    
C43   O15   A    
C4    C5    S    
C6    H21   S    
N8    C52   S    
C53   H45   S    
N9    H42   S    
C46   O13   A    
Cr1   O24   S    
N10   H44   S    
C34   O26   A    
C4    C49   S    
Cr5   O9    S    
C2    C3    S    
Cr1   O1    S    
Cr4   O14   S    
Cr1   O12   S    
C27   N7    S    
C30   C31   A    
C20   C26   A    
C14   H7    S    
Cr2   O21   S    
C33   C35   A    
N5    H31   S    
C52   H39   S    
C45   O3    A    
C47   O4    A    
C23   O1    A    
Cr6   O19   S    
N3    H27   S    
C51   H34   S    
C44   O17   A    
C10   C11   A    
C29   C30   A    
C7    C13   A    
C20   C21   A    
C37   H16   S    
C27   C28   A    
N7    H37   S    
C14   C15   A    
C20   N6    S    
C29   C43   S    
C2    H19   S    
N11   H48   S    
C48   N4    S    
N4    H29   S    
C38   H17   S    
