data_mof_unit_34721.cif
_audit_creation_date              2013-03-05T16:47:35-0500
_audit_creation_method            fapswitch 2.2
_symmetry_space_group_name_H-M    P1
_symmetry_Int_Tables_number       1
_space_group_crystal_system       triclinic
_cell_length_a                    15.766433
_cell_length_b                    8.907914
_cell_length_c                    8.226062
_cell_angle_alpha                 90.027364
_cell_angle_beta                  89.959005
_cell_angle_gamma                 89.995592
_cell_volume                      1155.31731334

loop_
_atom_site_label
_atom_site_type_symbol
_atom_site_description
_atom_site_fract_x
_atom_site_fract_y
_atom_site_fract_z
_atom_type_partial_charge
O1    O     O_R   0.500000 0.285340 0.636850 -0.607459
O2    O     O_R   0.500000 0.285340 0.363150 -0.606430
H1    H     H_    0.078523 0.647128 0.673028 0.268698
H2    H     H_    0.070258 0.711371 0.482789 0.268590
H3    H     H_    0.935285 0.623815 0.698227 0.280915
H4    H     H_    0.927547 0.712893 0.510522 0.280314
C1    C     C_R   0.500008 0.218510 0.499975 0.934048
O3    O     O_R   0.377140 0.500000 0.636930 -0.597973
O4    O     O_R   0.377140 0.500000 0.363070 -0.590862
O5    O     O_R   0.622860 0.500000 0.636930 -0.597412
O6    O     O_R   0.622860 0.500000 0.363070 -0.592019
C2    C     C_R   0.338210 0.499559 0.500002 0.876788
C3    C     C_R   0.661788 0.499573 0.499926 0.876165
Zn1   Zn    Zn3+2 0.500000 0.499990 0.682780 1.076415
Zn2   Zn    Zn3+2 0.500000 0.499990 0.317220 1.082639
C4    C     C_1   0.500011 0.934636 0.500034 -0.123433
O7    O     O_R   0.500000 0.714650 0.636900 -0.611756
O8    O     O_R   0.500000 0.714650 0.363100 -0.609713
C5    C     C_1   0.500013 0.065346 0.499964 -0.118135
C6    C     C_R   0.500004 0.781467 0.500024 0.921705
C7    C     C_3   0.051466 0.331260 0.613248 0.288265
C8    C     C_3   0.052057 0.446185 0.305465 0.289683
C9    C     C_3   0.947535 0.325343 0.612764 0.283423
C10   C     C_3   0.947970 0.444706 0.309606 0.262018
N1    N     N_1   0.500000 0.500030 0.073640 0.004827
N2    N     N_1   0.500000 0.500030 0.926360 0.004296
C11   C     C_1   0.750248 0.488332 0.499541 0.011808
C12   C     C_1   0.249761 0.487986 0.499299 -0.007752
C13   C     C_3   0.083313 0.461065 0.489982 -0.206524
C14   C     C_3   0.916947 0.461307 0.496096 -0.204919
C15   C     C_3   0.953257 0.610581 0.568699 -0.358483
C16   C     C_3   0.049723 0.614226 0.555659 -0.398274
C17   C     C_1   0.825171 0.475700 0.498469 0.236795
C18   C     C_1   0.174912 0.475011 0.495925 0.170649
N3    N     N_R   0.912700 0.178146 0.559039 0.253001
O9    O     O_R   0.834900 0.171837 0.506447 -0.328166
O10   O     O_R   0.940478 0.055745 0.627489 -0.246129
N4    N     N_R   0.908607 0.307299 0.238801 0.249526
O11   O     O_R   0.941469 0.173993 0.251053 -0.212760
O12   O     O_R   0.832383 0.316209 0.178355 -0.258517
N5    N     N_R   0.088202 0.180803 0.572895 0.228521
O13   O     O_R   0.068407 0.109392 0.440749 -0.265132
O14   O     O_R   0.126490 0.102087 0.684301 -0.243907
N6    N     N_R   0.089184 0.310540 0.227389 0.274294
O15   O     O_R   0.166691 0.270212 0.260761 -0.303402
O16   O     O_R   0.061365 0.268141 0.086558 -0.171303
N7    N     N_R   0.087201 0.575860 0.210193 0.238097
O17   O     O_R   0.159345 0.560697 0.134547 -0.264422
O18   O     O_R   0.054085 0.709832 0.211772 -0.279311
N8    N     N_R   0.085597 0.374539 0.776444 0.257432
O19   O     O_R   0.164903 0.348406 0.811204 -0.272269
O20   O     O_R   0.047846 0.474563 0.865609 -0.304473
N9    N     N_R   0.914864 0.570809 0.208241 0.267739
O21   O     O_R   0.863124 0.672983 0.262769 -0.343070
O22   O     O_R   0.927925 0.568576 0.052556 -0.207233
N10   N     N_R   0.913417 0.340933 0.780247 0.258260
O23   O     O_R   0.932233 0.237444 0.885696 -0.183840
O24   O     O_R   0.848002 0.424869 0.812695 -0.329829

loop_
_geom_bond_atom_site_label_1
_geom_bond_atom_site_label_2
_geom_bond_distance
_ccdc_geom_bond_type
Zn2   O8    1.948886 S    
N8    O20   1.297998 A    
C8    C13   1.601612 S    
O6    C3    1.282612 A    
N5    O13   1.297528 A    
C9    N3    1.488683 S    
N7    O17   1.303136 A    
O3    C2    1.283140 A    
C14   C15   1.566021 S    
C4    C6    1.364417 S    
Zn1   N2    2.003704 S    
C7    C9    1.639479 S    
C8    N7    1.501964 S    
O4    Zn2   1.973176 S    
C12   C18   1.186102 T    
C9    N10   1.485093 S    
N7    O18   1.302642 A    
N1    N2    1.211534 T    
N9    O21   1.301544 A    
C11   C17   1.186638 T    
N4    O12   1.303348 A    
O2    Zn2   1.949232 S    
N5    O14   1.302792 A    
Zn1   O7    1.949239 S    
H2    C16   1.101464 S    
C7    C13   1.617966 S    
C2    C12   1.398365 S    
C4    C5    1.164355 T    
C7    N5    1.497035 S    
C7    N8    1.496994 S    
N3    O10   1.303285 A    
N6    O16   1.295161 A    
N8    O19   1.303805 A    
C13   C16   1.559666 S    
O8    C6    1.273686 A    
N9    O22   1.297124 A    
H1    C16   1.106621 S    
O4    C2    1.282408 A    
C8    C10   1.641472 S    
Zn2   N1    2.003704 S    
C10   C14   1.616541 S    
C10   N4    1.490827 S    
C9    C14   1.619329 S    
O7    C6    1.273839 A    
N4    O11   1.299536 A    
N10   O23   1.300532 A    
O5    Zn1   1.973175 S    
C3    C11   1.398292 S    
C1    C5    1.364371 S    
H4    C15   1.106620 S    
O1    Zn1   1.948878 S    
O3    Zn1   1.973706 S    
C14   C17   1.452754 S    
C10   N9    1.493641 S    
O1    C1    1.273382 A    
O6    Zn2   1.973705 S    
C13   C18   1.450381 S    
O5    C3    1.282904 A    
C15   C16   1.524979 S    
C8    N6    1.487879 S    
N6    O15   1.303162 A    
O2    C1    1.273525 A    
N10   O24   1.301267 A    
H3    C15   1.108575 S    
N3    O9    1.302177 A    
