data_mof_unit_60628.cif
_audit_creation_date              2012-12-10T16:54:29-0500
_audit_creation_method            fapswitch 2.2
_symmetry_space_group_name_H-M    P1
_symmetry_Int_Tables_number       1
_space_group_crystal_system       triclinic
_cell_length_a                    18.536733
_cell_length_b                    19.071468
_cell_length_c                    18.802131
_cell_angle_alpha                 109.850472
_cell_angle_beta                  109.118488
_cell_angle_gamma                 109.109307
_cell_volume                      5137.70542627

loop_
_atom_site_label
_atom_site_type_symbol
_atom_type_description
_atom_site_fract_x
_atom_site_fract_y
_atom_site_fract_z
_atom_type_partial_charge
C1    C     C_R   0.376013 0.381982 0.495579 0.830898
C2    C     C_3   0.805627 0.498264 0.806171 0.111321
C3    C     C_3   0.815294 0.590045 0.841953 -0.103784
C4    C     C_3   0.710837 0.428162 0.775555 -0.076784
C5    C     C_2   0.186307 0.173777 0.426191 0.019823
C6    C     C_2   0.190290 0.182457 0.501803 0.440537
C7    C     C_2   0.259739 0.236357 0.428457 -0.298759
C8    C     C_2   0.293969 0.320616 0.480761 0.433644
C9    C     C_2   0.171975 0.495813 0.249020 -0.153886
C10   C     C_2   0.184680 0.511613 0.188775 -0.340010
C11   C     C_2   0.244910 0.507027 0.321914 -0.162552
C12   C     C_R   0.623116 0.503286 0.620044 0.882115
C13   C     C_2   0.305938 0.490026 0.310179 -0.328059
C14   C     C_2   0.729138 0.799753 0.467539 0.487301
C15   C     C_2   0.816143 0.840510 0.523276 -0.174257
C16   C     C_2   0.669767 0.744873 0.486913 0.321889
C17   C     C_2   0.680882 0.679414 0.490022 0.237747
C18   C     C_R   0.994084 0.381821 0.874126 0.938583
C19   C     C_R   0.873683 0.498320 0.872939 0.859901
C20   C     C_R   0.993992 0.618256 0.114115 0.790041
C21   C     C_R   0.115261 0.502783 0.116622 0.926128
C22   C     C_R   0.996961 0.116993 0.618050 0.905790
C23   C     C_R   0.618821 0.617909 0.498709 0.877104
C24   C     C_R   0.119823 0.118491 0.500366 0.791075
C25   C     C_R   0.004915 0.885034 0.382212 0.943694
C26   C     C_R   0.880696 0.886278 0.504628 0.953351
C27   C     C_2   0.919652 0.182279 0.671783 -0.159221
C28   C     C_2   0.992701 0.177064 0.685607 -0.336924
C29   C     C_2   0.918775 0.243900 0.743124 -0.160910
C30   C     C_2   0.991479 0.319382 0.802379 -0.341466
C31   C     C_2   0.074546 0.806335 0.331192 -0.081550
C32   C     C_2   0.014744 0.831539 0.315116 -0.302369
C33   C     C_2   0.074436 0.746498 0.257554 -0.006923
C34   C     C_R   0.377649 0.497748 0.379141 0.928374
C35   C     C_2   0.996554 0.679963 0.187775 0.327985
C36   C     C_3   0.751500 0.481767 0.656600 -0.470164
C37   C     C_3   0.821202 0.480384 0.727110 -0.450794
C38   C     C_3   0.744258 0.590960 0.772123 -0.387504
C39   C     C_3   0.641345 0.430433 0.704130 -0.115982
C40   C     C_3   0.688700 0.502081 0.687517 0.116770
H1    H     H_    0.784083 0.530771 0.641543 0.164536
H2    H     H_    0.700272 0.442569 0.832543 0.144873
H3    H     H_    0.702150 0.608943 0.796339 0.204483
H4    H     H_    0.287616 0.212588 0.389671 0.136766
H5    H     H_    0.109015 0.478114 0.246914 0.165550
H6    H     H_    0.249970 0.538765 0.196275 0.159166
H7    H     H_    0.246064 0.525168 0.383821 0.157888
H8    H     H_    0.714362 0.418252 0.596164 0.196314
H9    H     H_    0.299246 0.462498 0.245872 0.156058
H10   H     H_    0.859622 0.138982 0.609454 0.165232
H11   H     H_    0.049445 0.213460 0.750441 0.155770
H12   H     H_    0.857945 0.228501 0.745282 0.166174
H13   H     H_    0.049164 0.338773 0.794610 0.154486
H14   H     H_    0.123613 0.830083 0.397139 0.165802
H15   H     H_    0.819946 0.418015 0.700541 0.175000
H16   H     H_    0.972011 0.813906 0.249101 0.166478
H17   H     H_    0.887308 0.530103 0.746896 0.187122
H18   H     H_    0.776091 0.641278 0.758112 0.141815
H19   H     H_    0.880008 0.636132 0.854880 0.175743
H20   H     H_    0.605187 0.368426 0.641922 0.157004
O1    O     O_R   0.410160 0.358490 0.449530 -0.655583
O2    O     O_R   0.046300 0.460610 0.904690 -0.624541
O3    O     O_R   0.851630 0.449030 0.902680 -0.611087
O4    O     O_R   0.953760 0.551100 0.902590 -0.640392
O5    O     O_R   0.942140 0.539520 0.083620 -0.594284
O6    O     O_R   0.044270 0.641590 0.083530 -0.652992
O7    O     O_R   0.034680 0.449030 0.085720 -0.612389
O8    O     O_R   0.136800 0.551100 0.085630 -0.625625
O9    O     O_R   0.050590 0.090430 0.641090 -0.635024
O10   O     O_R   0.947260 0.090430 0.537750 -0.617800
O11   O     O_R   0.142120 0.090460 0.551650 -0.618234
O12   O     O_R   0.408940 0.460590 0.550490 -0.583194
O13   O     O_R   0.038780 0.090460 0.448320 -0.618610
O14   O     O_R   0.052740 0.909570 0.462250 -0.619525
O15   O     O_R   0.949410 0.909570 0.358910 -0.616115
O16   O     O_R   0.961220 0.909540 0.551680 -0.638275
O17   O     O_R   0.857880 0.909540 0.448350 -0.563486
O18   O     O_R   0.592130 0.448950 0.541040 -0.640425
O19   O     O_R   0.590910 0.551050 0.642000 -0.620209
O20   O     O_R   0.591060 0.539410 0.449510 -0.621892
O21   O     O_R   0.589840 0.641510 0.550470 -0.594722
O22   O     O_R   0.409090 0.448950 0.358000 -0.629829
O23   O     O_R   0.407870 0.551050 0.458960 -0.606487
O24   O     O_R   0.944170 0.358540 0.904780 -0.611238
Zn1   Zn    Zn3+2 0.500810 0.431830 0.432590 0.939160
Zn2   Zn    Zn3+2 0.499190 0.568170 0.567410 0.987050
Zn3   Zn    Zn3+2 0.926030 0.431910 0.994210 0.963259
Zn4   Zn    Zn3+2 0.062410 0.568220 0.994100 0.928708
Zn5   Zn    Zn3+2 0.069000 0.000000 0.569000 0.946665
Zn6   Zn    Zn3+2 0.931000 1.000000 0.431000 0.986816
N1    N     N_3   0.813475 0.622059 0.923856 -0.478463
H21   H     H_    0.867555 0.628977 0.972518 0.175026
H22   H     H_    0.756468 0.579629 0.918023 0.172474
N2    N     N_3   0.114302 0.102045 0.343901 -0.479010
H23   H     H_    0.087312 0.126119 0.306580 0.191882
H24   H     H_    0.139514 0.068784 0.312353 0.180235
O25   O     O_3   0.269483 0.241454 0.579490 -0.600427
C41   C     C_3   0.255007 0.281795 0.647704 -0.234503
H25   H     H_    0.240738 0.241834 0.677860 0.162463
H26   H     H_    0.201740 0.297486 0.626140 0.156476
H27   H     H_    0.316100 0.343121 0.698813 0.190175
O26   O     O_3   0.251998 0.351092 0.521873 -0.577858
C42   C     C_3   0.195929 0.368619 0.467915 -0.346426
H28   H     H_    0.144359 0.309519 0.404587 0.161037
H29   H     H_    0.233453 0.419046 0.457028 0.156173
H30   H     H_    0.162305 0.392974 0.500668 0.195602
O27   O     O_3   0.698057 0.807620 0.393786 -0.606512
C43   C     C_3   0.620280 0.732500 0.323498 -0.293355
H31   H     H_    0.563355 0.725987 0.333933 0.187587
H32   H     H_    0.627235 0.674365 0.311613 0.173368
H33   H     H_    0.606618 0.737425 0.263890 0.185569
N3    N     N_3   0.847427 0.842333 0.605233 -0.496881
H34   H     H_    0.891012 0.818346 0.609934 0.223198
H35   H     H_    0.882557 0.906316 0.654946 0.179254
O28   O     O_3   0.599801 0.753659 0.493023 -0.622416
C44   C     C_3   0.619402 0.839950 0.527616 -0.294116
H36   H     H_    0.617536 0.860934 0.478988 0.187678
H37   H     H_    0.683900 0.883130 0.588723 0.152889
H38   H     H_    0.568388 0.845438 0.543836 0.192226
O29   O     O_3   0.740662 0.662127 0.467988 -0.623462
C45   C     C_3   0.784018 0.634628 0.520406 -0.320286
H39   H     H_    0.744524 0.564516 0.492778 0.191631
H40   H     H_    0.800215 0.669885 0.589326 0.127371
H41   H     H_    0.846904 0.647190 0.520587 0.194857
N4    N     N_3   0.157943 0.759844 0.264470 -0.471251
H42   H     H_    0.164391 0.775183 0.217766 0.206977
H43   H     H_    0.160992 0.703588 0.253516 0.188004
O30   O     O_3   0.921825 0.657970 0.196929 -0.583180
C46   C     C_3   0.849632 0.641116 0.123958 -0.335749
H44   H     H_    0.821584 0.576971 0.067596 0.180919
H45   H     H_    0.867048 0.691899 0.106226 0.139524
H46   H     H_    0.797449 0.640607 0.140696 0.203339
N5    N     N_3   0.575533 0.441311 0.726880 -0.448795
H47   H     H_    0.606131 0.492577 0.789892 0.183880
H48   H     H_    0.538825 0.386191 0.726626 0.191252
N6    N     N_3   0.701424 0.341983 0.744201 -0.448230
H49   H     H_    0.698109 0.318971 0.683582 0.180744
H50   H     H_    0.641855 0.300239 0.735326 0.180975

loop_
_geom_bond_atom_site_label_1
_geom_bond_atom_site_label_2
_ccdc_geom_bond_type
C9    H5    S    
C27   C29   S    
C1    C8    S    
C11   H7    S    
O24   Zn3   S    
O30   C46   S    
O20   Zn1   S    
N3    H35   S    
O25   C41   S    
C7    C8    D    
C44   H36   S    
C17   C23   S    
O14   Zn5   S    
C20   O6    A    
C36   C37   S    
O13   Zn6   S    
O6    Zn4   S    
C5    C6    D    
C28   H11   S    
C24   O13   A    
O28   C44   S    
C12   O19   A    
C43   H31   S    
C3    N1    S    
C25   O14   A    
C45   H41   S    
C42   H28   S    
O15   Zn6   S    
C38   H18   S    
C20   C35   S    
C3    C38   S    
C19   O3    A    
C16   C17   D    
C12   O18   A    
C10   H6    S    
C26   O16   A    
O27   C43   S    
C31   C33   S    
C18   C30   S    
C23   O20   A    
C9    C10   D    
C22   O9    A    
O21   Zn2   S    
C17   O29   S    
C27   H10   S    
O16   Zn5   S    
C4    N6    S    
C46   H46   S    
C25   C32   S    
C22   C28   S    
C21   O7    A    
C32   H16   S    
C36   H1    S    
O10   Zn6   S    
O9    Zn5   S    
N3    H34   S    
O5    Zn3   S    
C10   C21   S    
C30   H13   S    
O17   Zn6   S    
C1    O12   A    
O26   C42   S    
C26   O17   A    
C6    O25   S    
C20   O5    A    
C36   C40   S    
N6    H50   S    
N1    H21   S    
C5    C7    S    
C18   O2    A    
C15   C26   S    
O2    Zn4   S    
C25   O15   A    
C12   C40   S    
C2    C4    S    
C29   C30   D    
N1    H22   S    
C18   O24   A    
C31   C32   D    
O11   Zn5   S    
C4    C39   S    
C19   O4    A    
C6    C24   S    
C33   N4    S    
C42   H29   S    
C5    N2    S    
C7    H4    S    
N2    H24   S    
C9    C11   S    
C45   H39   S    
O1    Zn1   S    
C13   H9    S    
C35   O30   S    
O18   Zn1   S    
C14   O27   S    
C41   H26   S    
C21   O8    A    
N5    H47   S    
O8    Zn4   S    
C14   C16   S    
C34   O23   A    
O22   Zn1   S    
C16   O28   S    
C39   C40   S    
O29   C45   S    
N4    H43   S    
C46   H44   S    
C39   N5    S    
O4    Zn4   S    
C23   O21   A    
O3    Zn3   S    
C2    C19   S    
C15   N3    S    
N6    H49   S    
C1    O1    A    
O12   Zn2   S    
C44   H38   S    
C41   H27   S    
O7    Zn3   S    
C43   H33   S    
C2    C3    S    
C38   H3    S    
C38   C40   S    
C11   C13   D    
C2    C37   S    
N4    H42   S    
C43   H32   S    
C4    H2    S    
C39   H20   S    
C33   C35   D    
C44   H37   S    
C36   H8    S    
C42   H30   S    
C31   H14   S    
N2    H23   S    
C45   H40   S    
C37   H15   S    
C13   C34   S    
O23   Zn2   S    
C41   H25   S    
C27   C28   D    
N5    H48   S    
C14   C15   D    
C34   O22   A    
C8    O26   S    
C22   O10   A    
O19   Zn2   S    
C37   H17   S    
C24   O11   A    
C46   H45   S    
C29   H12   S    
C3    H19   S    
