data_mof_unit_20722.cif
_audit_creation_date              2012-10-26T21:32:55-0400
_audit_creation_method            fapswitch 2.2
_symmetry_space_group_name_H-M    P1
_symmetry_Int_Tables_number       1
_space_group_crystal_system       triclinic
_cell_length_a                    28.307363
_cell_length_b                    18.491683
_cell_length_c                    16.986071
_cell_angle_alpha                 90.380222
_cell_angle_beta                  61.303648
_cell_angle_gamma                 89.466557
_cell_volume                      7798.34156439

loop_
_atom_site_label
_atom_site_type_symbol
_atom_type_description
_atom_site_fract_x
_atom_site_fract_y
_atom_site_fract_z
_atom_type_partial_charge
C1    C     C_R   0.699591 0.262999 0.676760 0.953497
C2    C     C_R   0.952532 0.625906 0.491442 0.395308
C3    C     C_R   0.075602 0.901661 0.932333 0.989532
C4    C     C_R   0.576216 0.596783 0.932445 0.980897
C5    C     C_R   0.423953 0.403004 0.067395 0.989479
C6    C     C_R   0.424889 0.599118 0.067097 0.982079
C7    C     C_R   0.575597 0.401653 0.932337 0.989486
C8    C     C_R   0.541219 0.996567 0.534384 -0.039416
C9    C     C_R   0.444848 0.998867 0.524228 -0.042638
C10   C     C_R   0.041237 0.496555 0.534320 -0.039404
C11   C     C_R   0.944874 0.498861 0.524139 -0.042664
C12   C     C_R   0.523668 0.061680 0.511813 -0.012272
C13   C     C_R   0.943010 0.369400 0.529023 0.409404
C14   C     C_R   0.465300 0.933666 0.538887 0.000442
C15   C     C_R   0.473660 0.063613 0.511452 -0.019062
C16   C     C_R   0.509000 0.934615 0.557638 0.007074
C17   C     C_R   0.023692 0.561669 0.511740 -0.012269
C18   C     C_R   0.965318 0.433656 0.538808 0.000349
C19   C     C_R   0.973688 0.563604 0.511366 -0.019056
C20   C     C_R   0.009018 0.434600 0.557564 0.007077
C21   C     C_R   0.604023 0.934622 0.573436 -0.023762
C22   C     C_R   0.376469 0.064134 0.502263 -0.047805
C23   C     C_R   0.372737 0.933618 0.513080 -0.041403
C24   C     C_R   0.056167 0.622943 0.494670 0.398816
C25   C     C_R   0.623092 0.056219 0.512827 -0.060463
C26   C     C_R   0.104027 0.434619 0.573409 -0.023786
C27   C     C_R   0.876500 0.564138 0.502172 -0.047760
C28   C     C_R   0.872759 0.433629 0.512997 -0.041529
C29   C     C_R   0.123103 0.556214 0.512794 -0.060469
C30   C     C_R   0.655448 0.934370 0.568638 -0.184704
C31   C     C_R   0.335398 0.063341 0.475804 -0.164923
C32   C     C_R   0.333095 0.935257 0.482174 -0.172791
C33   C     C_R   0.665598 0.060323 0.534932 -0.189948
C34   C     C_R   0.155448 0.434370 0.568629 -0.184685
C35   C     C_R   0.517745 0.880253 0.608567 0.400849
C36   C     C_R   0.835415 0.563346 0.475742 -0.164930
C37   C     C_R   0.833109 0.435263 0.482112 -0.172785
C38   C     C_R   0.165601 0.560322 0.534920 -0.189957
C39   C     C_R   0.678571 0.999624 0.569820 0.336602
C40   C     C_R   0.321641 0.998890 0.451693 0.304385
C41   C     C_R   0.178569 0.499624 0.569816 0.336609
C42   C     C_R   0.821651 0.498895 0.451639 0.304433
C43   C     C_R   0.589228 0.995696 0.540655 0.014111
C44   C     C_R   0.398761 0.998433 0.511040 0.015213
C45   C     C_R   0.089240 0.495689 0.540613 0.014100
C46   C     C_R   0.452499 0.125914 0.491535 0.395298
C47   C     C_R   0.898791 0.498436 0.510945 0.015164
C48   C     C_R   0.065171 0.380257 0.617295 0.100466
C49   C     C_R   0.897575 0.627827 0.518853 0.145450
C50   C     C_R   0.890818 0.370390 0.539594 0.114571
C51   C     C_R   0.110071 0.613234 0.471663 0.134384
C52   C     C_R   0.565167 0.880259 0.617331 0.100439
C53   C     C_R   0.397543 0.127828 0.518937 0.145442
C54   C     C_R   0.390822 0.870370 0.539637 0.114205
C55   C     C_R   0.610050 0.113243 0.471710 0.134403
C56   C     C_3   0.068116 0.332599 0.688029 -0.364285
C57   C     C_R   0.443011 0.869405 0.529078 0.409405
C58   C     C_3   0.037773 0.367743 0.781211 -0.670163
C59   C     C_3   0.863217 0.666224 0.608123 -0.422647
C60   C     C_3   0.875413 0.746888 0.604103 -0.574495
C61   C     C_3   0.851467 0.324712 0.616969 -0.380054
C62   C     C_3   0.865029 0.243638 0.601250 -0.534602
C63   C     C_3   0.151627 0.635300 0.378002 -0.421676
C64   C     C_3   0.144348 0.713120 0.355796 -0.543762
C65   C     C_3   0.568114 0.832605 0.688064 -0.364319
C66   C     C_3   0.537800 0.867795 0.781235 -0.670102
C67   C     C_3   0.363179 0.166254 0.608182 -0.422631
C68   C     C_R   0.556143 0.122954 0.494742 0.398824
C69   C     C_3   0.375391 0.246914 0.604126 -0.574511
C70   C     C_3   0.351507 0.824541 0.616881 -0.379416
C71   C     C_3   0.365120 0.743477 0.600889 -0.534391
C72   C     C_3   0.651594 0.135301 0.378038 -0.421691
C73   C     C_3   0.644313 0.213122 0.355833 -0.543814
C74   C     C_R   0.723382 0.263230 0.948807 -0.137818
C75   C     C_R   0.278023 0.739342 0.049175 -0.136508
C76   C     C_R   0.280036 0.264751 0.043637 -0.141430
C77   C     C_R   0.300285 0.736732 0.323247 0.966447
C78   C     C_R   0.718252 0.740987 0.955420 -0.139844
C79   C     C_R   0.223421 0.763330 0.948788 -0.137757
C80   C     C_R   0.777982 0.239258 0.049205 -0.136503
C81   C     C_R   0.780038 0.764734 0.043643 -0.141423
C82   C     C_R   0.218242 0.241001 0.955426 -0.139891
C83   C     C_R   0.766863 0.307333 0.936259 0.345153
C84   C     C_R   0.234819 0.694911 0.061197 0.327720
C85   C     C_R   0.237491 0.312752 0.057546 0.326759
C86   C     C_R   0.761095 0.693338 0.940904 0.312970
C87   C     C_R   0.266909 0.807422 0.936227 0.345250
C88   C     C_R   0.296449 0.271509 0.324810 0.993414
C89   C     C_R   0.734780 0.194821 0.061225 0.327725
C90   C     C_R   0.737471 0.812705 0.057594 0.326785
C91   C     C_R   0.261063 0.193324 0.940953 0.312923
C92   C     C_R   0.794177 0.295163 0.985890 0.393749
C93   C     C_R   0.207301 0.707357 0.011990 0.386474
C94   C     C_R   0.206628 0.300783 0.013869 0.396812
C95   C     C_R   0.791726 0.705041 0.985022 0.397600
C96   C     C_R   0.294222 0.795247 0.985860 0.393764
C97   C     C_R   0.707265 0.207257 0.012010 0.386514
C98   C     C_R   0.706612 0.800739 0.013910 0.396789
C99   C     C_R   0.702912 0.729642 0.675439 0.929257
C100  C     C_R   0.291698 0.205029 0.985064 0.397597
C101  C     C_R   0.651994 0.335319 0.936446 0.335562
C102  C     C_R   0.350239 0.668385 0.060243 0.340560
C103  C     C_R   0.357965 0.322980 0.049849 0.345813
C104  C     C_R   0.641470 0.678451 0.950228 0.347609
C105  C     C_R   0.152028 0.835395 0.936415 0.335512
C106  C     C_R   0.850200 0.168314 0.060285 0.340528
C107  C     C_R   0.857961 0.822986 0.049852 0.345824
C108  C     C_R   0.141457 0.178472 0.950237 0.347628
C109  C     C_R   0.618355 0.347475 0.896353 -0.280840
C110  C     C_R   0.199596 0.763010 0.676761 0.953542
C111  C     C_R   0.382700 0.654355 0.102139 -0.283193
C112  C     C_R   0.378107 0.355235 0.104249 -0.258958
C113  C     C_R   0.621663 0.645321 0.895861 -0.264585
C114  C     C_R   0.118373 0.847507 0.896341 -0.280817
C115  C     C_R   0.882679 0.154323 0.102156 -0.283183
C116  C     C_R   0.878105 0.855238 0.104251 -0.258964
C117  C     C_R   0.121658 0.145330 0.895866 -0.264578
C118  C     C_R   0.627169 0.308764 0.819686 0.272284
C119  C     C_R   0.373028 0.691860 0.179980 0.270814
C120  C     C_R   0.350690 0.346805 0.196404 0.260781
C121  C     C_R   0.800282 0.236726 0.323247 0.966390
C122  C     C_R   0.648909 0.654205 0.803823 0.255013
C123  C     C_R   0.127184 0.808776 0.819691 0.272257
C124  C     C_R   0.873017 0.191848 0.179979 0.270788
C125  C     C_R   0.850690 0.846804 0.196405 0.260786
C126  C     C_R   0.148907 0.154209 0.803826 0.255026
C127  C     C_R   0.674175 0.268608 0.774903 -0.232249
C128  C     C_R   0.325618 0.731318 0.225114 -0.230192
C129  C     C_R   0.315555 0.289480 0.231118 -0.261450
C130  C     C_R   0.682576 0.713135 0.769607 -0.258587
C131  C     C_R   0.174199 0.768641 0.774899 -0.232282
C132  C     C_R   0.796452 0.771505 0.324809 0.993402
C133  C     C_R   0.825605 0.231298 0.225116 -0.230170
C134  C     C_R   0.815560 0.789472 0.231116 -0.261437
C135  C     C_R   0.182572 0.213141 0.769610 -0.258595
C136  C     C_R   0.701314 0.244884 0.822365 0.329450
C137  C     C_R   0.298381 0.755373 0.177797 0.316469
C138  C     C_R   0.295089 0.255699 0.177796 0.345063
C139  C     C_R   0.700782 0.750068 0.823935 0.322055
C140  C     C_R   0.201362 0.744960 0.822343 0.329619
C141  C     C_R   0.798354 0.255328 0.177810 0.316506
C142  C     C_R   0.795101 0.755682 0.177791 0.345069
C143  C     C_R   0.202911 0.229643 0.675440 0.929246
C144  C     C_R   0.200774 0.250081 0.823940 0.322001
C145  C     C_R   0.691381 0.280422 0.902229 0.028782
C146  C     C_R   0.309946 0.722079 0.095869 0.031298
C147  C     C_R   0.312604 0.279113 0.089919 0.037140
C148  C     C_R   0.684986 0.725524 0.910746 0.048159
C149  C     C_R   0.191425 0.780512 0.902200 0.028724
C150  C     C_R   0.809905 0.222006 0.095902 0.031269
C151  C     C_R   0.812608 0.779104 0.089919 0.037134
C152  C     C_R   0.184975 0.225542 0.910754 0.048168
C153  C     C_R   0.694422 0.127520 0.525752 0.923595
C154  C     C_R   0.017759 0.380238 0.608498 0.400813
C155  C     C_R   0.305118 0.871552 0.478061 0.939406
C156  C     C_R   0.306280 0.128261 0.474680 0.931504
C157  C     C_R   0.690889 0.870059 0.538555 0.884504
C158  C     C_R   0.194422 0.627520 0.525750 0.923650
C159  C     C_R   0.805124 0.371553 0.478035 0.939350
C160  C     C_R   0.806285 0.628263 0.474660 0.931460
C161  C     C_R   0.190889 0.370060 0.538551 0.884498
C162  C     C_R   0.076214 0.096787 0.932447 0.980911
C163  C     C_R   0.923951 0.903007 0.067397 0.989483
C164  C     C_R   0.924882 0.099108 0.067103 0.982096
Cl1   Cl    Cl    0.719063 0.003635 0.623632 -0.433492
Cl2   Cl    Cl    0.493050 0.177161 0.395762 -0.504668
Cl3   Cl    Cl    0.485175 0.792873 0.478418 -0.489235
Cl4   Cl    Cl    0.527769 0.208111 0.542869 -0.527626
Cl5   Cl    Cl    0.651772 0.153137 0.030710 -0.351924
Cl6   Cl    Cl    0.349705 0.849342 0.967292 -0.378482
Cl7   Cl    Cl    0.344763 0.144620 0.967111 -0.351781
Cl8   Cl    Cl    0.653055 0.860531 0.032780 -0.336847
Cl9   Cl    Cl    0.151808 0.653240 0.030687 -0.351971
Cl10  Cl    Cl    0.849656 0.349266 0.967324 -0.378530
Cl11  Cl    Cl    0.844818 0.644666 0.967019 -0.351830
Cl12  Cl    Cl    0.295404 0.998056 0.374891 -0.433641
Cl13  Cl    Cl    0.153095 0.360607 0.032694 -0.336815
Cl14  Cl    Cl    0.786208 0.379657 0.859992 -0.455811
Cl15  Cl    Cl    0.216362 0.621424 0.135663 -0.466392
Cl16  Cl    Cl    0.222801 0.388555 0.130020 -0.398226
Cl17  Cl    Cl    0.776357 0.618161 0.867296 -0.458142
Cl18  Cl    Cl    0.286274 0.879723 0.859926 -0.455652
Cl19  Cl    Cl    0.716319 0.121345 0.135708 -0.466362
Cl20  Cl    Cl    0.722748 0.888473 0.130131 -0.398221
Cl21  Cl    Cl    0.276293 0.118109 0.867407 -0.457996
Cl22  Cl    Cl    0.645742 0.385772 0.030729 -0.436403
Cl23  Cl    Cl    0.219055 0.503636 0.623640 -0.433547
Cl24  Cl    Cl    0.358919 0.621814 0.961934 -0.443459
Cl25  Cl    Cl    0.386577 0.337205 0.932579 -0.433646
Cl26  Cl    Cl    0.614651 0.661769 0.066622 -0.412472
Cl27  Cl    Cl    0.145790 0.885890 0.030660 -0.436374
Cl28  Cl    Cl    0.858857 0.121693 0.962019 -0.443484
Cl29  Cl    Cl    0.886557 0.837237 0.932590 -0.433621
Cl30  Cl    Cl    0.114622 0.161815 0.066641 -0.412438
Cl31  Cl    Cl    0.578241 0.304383 0.782448 -0.440361
Cl32  Cl    Cl    0.421533 0.695458 0.218188 -0.447866
Cl33  Cl    Cl    0.352514 0.416348 0.268398 -0.510010
Cl34  Cl    Cl    0.795383 0.498061 0.374881 -0.433628
Cl35  Cl    Cl    0.648398 0.583778 0.731737 -0.526250
Cl36  Cl    Cl    0.078245 0.804355 0.782478 -0.440397
Cl37  Cl    Cl    0.921532 0.195477 0.218163 -0.447801
Cl38  Cl    Cl    0.852512 0.916348 0.268400 -0.510007
Cl39  Cl    Cl    0.148403 0.083777 0.731742 -0.526281
Cl40  Cl    Cl    0.742780 0.166427 0.788582 -0.456177
Cl41  Cl    Cl    0.253331 0.830550 0.215772 -0.452994
Cl42  Cl    Cl    0.247091 0.185498 0.217146 -0.409021
Cl43  Cl    Cl    0.742831 0.826655 0.787419 -0.474357
Cl44  Cl    Cl    0.242892 0.666564 0.788531 -0.456270
Cl45  Cl    Cl    0.964393 0.322103 0.678067 -0.556416
Cl46  Cl    Cl    0.753304 0.330505 0.215771 -0.452991
Cl47  Cl    Cl    0.747122 0.685458 0.217130 -0.408996
Cl48  Cl    Cl    0.242814 0.326676 0.787426 -0.474386
Cl49  Cl    Cl    0.993086 0.677117 0.395635 -0.504566
Cl50  Cl    Cl    0.985148 0.292852 0.478348 -0.489019
Cl51  Cl    Cl    0.027794 0.708111 0.542757 -0.527721
Cl52  Cl    Cl    0.464369 0.822140 0.678168 -0.556173
H1    H     H_    0.056229 0.420331 0.781971 0.267292
H2    H     H_    0.870940 0.641105 0.660267 0.247530
H3    H     H_    0.875892 0.226603 0.531780 0.263209
H4    H     H_    0.898634 0.229789 0.614763 0.285530
H5    H     H_    0.830508 0.211790 0.648205 0.271018
H6    H     H_    0.853396 0.341180 0.678295 0.263921
H7    H     H_    0.809169 0.335798 0.633410 0.211730
H8    H     H_    0.105624 0.720095 0.355001 0.291921
H9    H     H_    0.145893 0.751648 0.404850 0.276418
H10   H     H_    0.176930 0.725566 0.287796 0.267091
H11   H     H_    0.193303 0.627895 0.367168 0.208421
H12   H     H_    0.994701 0.377102 0.801122 0.313036
H13   H     H_    0.147935 0.598623 0.329227 0.265867
H14   H     H_    0.556318 0.920339 0.781960 0.267281
H15   H     H_    0.494734 0.877246 0.801143 0.312991
H16   H     H_    0.540173 0.831854 0.831390 0.252792
H17   H     H_    0.551805 0.778152 0.688505 0.264792
H18   H     H_    0.609585 0.822718 0.675693 0.196844
H19   H     H_    0.417936 0.255320 0.587292 0.283346
H20   H     H_    0.367655 0.274050 0.553295 0.260788
H21   H     H_    0.349414 0.272400 0.670654 0.277187
H22   H     H_    0.319541 0.159566 0.631149 0.234366
H23   H     H_    0.040193 0.331834 0.831353 0.252755
H24   H     H_    0.370883 0.141149 0.660353 0.247522
H25   H     H_    0.376129 0.726632 0.531295 0.263208
H26   H     H_    0.398652 0.729557 0.614563 0.285345
H27   H     H_    0.330588 0.711508 0.647577 0.270971
H28   H     H_    0.353435 0.840858 0.678254 0.263835
H29   H     H_    0.309200 0.835644 0.633387 0.211702
H30   H     H_    0.605575 0.220106 0.355089 0.291925
H31   H     H_    0.645887 0.251652 0.404859 0.276413
H32   H     H_    0.676877 0.225554 0.287811 0.267104
H33   H     H_    0.693275 0.127893 0.367181 0.208441
H34   H     H_    0.051836 0.278136 0.688421 0.264784
H35   H     H_    0.647889 0.098622 0.329278 0.265868
H36   H     H_    0.109580 0.322744 0.675698 0.196856
H37   H     H_    0.917967 0.755309 0.587199 0.283337
H38   H     H_    0.867626 0.774045 0.553338 0.260777
H39   H     H_    0.849461 0.772341 0.670662 0.277193
H40   H     H_    0.819578 0.659524 0.631112 0.234391
O1    O     O_R   0.746490 0.236330 0.638080 -0.630371
O2    O     O_R   0.325830 0.813840 0.483730 -0.643495
O3    O     O_R   0.325830 0.186160 0.483730 -0.649247
O4    O     O_R   0.674170 0.813840 0.516270 -0.632686
O5    O     O_R   0.174170 0.686160 0.516270 -0.619952
O6    O     O_R   0.825830 0.313840 0.483730 -0.643412
O7    O     O_R   0.825830 0.686160 0.483730 -0.649269
O8    O     O_R   0.174170 0.313840 0.516270 -0.632711
O9    O     O_R   0.739960 0.127620 0.525000 -0.563089
O10   O     O_R   0.260040 0.872380 0.475000 -0.559057
O11   O     O_R   0.260040 0.127620 0.475000 -0.548418
O12   O     O_R   0.253510 0.763670 0.361920 -0.610259
O13   O     O_R   0.739960 0.872380 0.525000 -0.548392
O14   O     O_R   0.239960 0.627620 0.525000 -0.563100
O15   O     O_R   0.760040 0.372380 0.475000 -0.559078
O16   O     O_R   0.760040 0.627620 0.475000 -0.548420
O17   O     O_R   0.239960 0.372380 0.525000 -0.548389
O18   O     O_R   0.680700 0.294870 0.629350 -0.566676
O19   O     O_R   0.319300 0.705130 0.370650 -0.571442
O20   O     O_R   0.319300 0.294870 0.370650 -0.567774
O21   O     O_R   0.680700 0.705130 0.629350 -0.593943
O22   O     O_R   0.180700 0.794870 0.629350 -0.566673
O23   O     O_R   0.253510 0.236330 0.361920 -0.565549
O24   O     O_R   0.819300 0.205130 0.370650 -0.571421
O25   O     O_R   0.819300 0.794870 0.370650 -0.567784
O26   O     O_R   0.180700 0.205130 0.629350 -0.593942
O27   O     O_R   0.062020 0.072840 0.007170 -0.560961
O28   O     O_R   0.937980 0.927160 0.992830 -0.562669
O29   O     O_R   0.937980 0.072840 0.992830 -0.578879
O30   O     O_R   0.062020 0.927160 0.007170 -0.577114
O31   O     O_R   0.562020 0.572840 0.007170 -0.560975
O32   O     O_R   0.437980 0.427160 0.992830 -0.562679
O33   O     O_R   0.437980 0.572840 0.992830 -0.578857
O34   O     O_R   0.746490 0.763670 0.638080 -0.601042
O35   O     O_R   0.562020 0.427160 0.007170 -0.577092
O36   O     O_R   0.947860 0.073950 0.109290 -0.563075
O37   O     O_R   0.052140 0.926050 0.890710 -0.563935
O38   O     O_R   0.052140 0.073950 0.890710 -0.587634
O39   O     O_R   0.947860 0.926050 0.109290 -0.581546
O40   O     O_R   0.447860 0.573950 0.109290 -0.563070
O41   O     O_R   0.552140 0.426050 0.890710 -0.563929
O42   O     O_R   0.552140 0.573950 0.890710 -0.587624
O43   O     O_R   0.447860 0.426050 0.109290 -0.581536
O44   O     O_R   0.246490 0.736330 0.638080 -0.630454
O45   O     O_R   0.753510 0.263670 0.361920 -0.610255
O46   O     O_R   0.753510 0.736330 0.361920 -0.565549
O47   O     O_R   0.246490 0.263670 0.638080 -0.601065
O48   O     O_R   0.674170 0.186160 0.516270 -0.619976
Zn1   Zn    Zn3+2 0.792340 0.208750 0.507670 1.093160
Zn2   Zn    Zn3+2 0.494040 0.500000 0.919480 1.214449
Zn3   Zn    Zn3+2 0.005960 0.000000 0.080520 1.223449
Zn4   Zn    Zn3+2 0.994040 0.000000 0.919480 1.214426
Zn5   Zn    Zn3+2 0.207660 0.791250 0.492330 1.140849
Zn6   Zn    Zn3+2 0.207660 0.208750 0.492330 1.167022
Zn7   Zn    Zn3+2 0.792340 0.791250 0.507670 1.112563
Zn8   Zn    Zn3+2 0.292340 0.708750 0.507670 1.092882
Zn9   Zn    Zn3+2 0.707660 0.291250 0.492330 1.140860
Zn10  Zn    Zn3+2 0.707660 0.708750 0.492330 1.167050
Zn11  Zn    Zn3+2 0.292340 0.291250 0.507670 1.112547
Zn12  Zn    Zn3+2 0.505960 0.500000 0.080520 1.223446

loop_
_geom_bond_atom_site_label_1
_geom_bond_atom_site_label_2
_ccdc_geom_bond_type
O14   Zn8   S    
C28   C47   A    
C82   C94   A    
C36   C42   A    
C74   C83   A    
C34   C161  S    
C87   Cl18  S    
C79   C87   A    
C164  O29   A    
C88   C129  S    
O5    Zn5   S    
C69   H20   S    
C16   C35   A    
C81   C95   A    
C58   H1    S    
C157  O4    A    
O38   Zn4   S    
C67   H24   S    
C41   Cl23  S    
C62   H5    S    
C37   C42   A    
O10   Zn5   S    
C95   Cl11  S    
C131  C140  A    
C113  C122  A    
C10   C20   A    
C110  O44   A    
C160  O7    A    
C91   C100  A    
C74   C97   A    
C117  C126  A    
C78   C148  S    
C79   C149  S    
C119  C128  A    
C24   C51   A    
C132  O25   A    
O34   Zn7   S    
C8    C16   A    
O15   Zn9   S    
C102  C111  A    
C4    O42   A    
C109  C118  A    
O22   Zn5   S    
C7    O41   A    
C159  O15   A    
C125  Cl38  S    
C160  O16   A    
C65   H18   S    
C42   Cl34  S    
C127  C136  A    
C112  C120  A    
C155  O2    A    
C63   H11   S    
C82   C91   A    
C29   C45   A    
C103  C112  A    
C142  C151  A    
C39   Cl1   S    
C105  C114  A    
O18   Zn9   S    
C54   C70   S    
C11   C19   A    
C60   H38   S    
C120  Cl33  S    
C110  C131  S    
C118  Cl31  S    
O32   Zn2   S    
C161  O17   A    
C81   C90   A    
C13   C18   A    
O23   Zn6   S    
C40   Cl12  S    
C14   C57   A    
C83   Cl14  S    
C2    C19   A    
C25   C55   A    
C72   C73   S    
C73   H31   S    
C76   C100  A    
C124  Cl37  S    
C67   H22   S    
C106  C115  A    
C5    O32   A    
C62   H3    S    
C9    C15   A    
C153  O48   A    
C159  O6    A    
C46   C53   A    
C93   Cl9   S    
C24   Cl51  S    
C84   C93   A    
O6    Zn1   S    
C88   O23   A    
C121  O45   A    
C86   C95   A    
C70   H29   S    
C132  C134  S    
C76   C85   A    
C52   C65   S    
O29   Zn4   S    
C3    O30   A    
O30   Zn3   S    
C11   C18   A    
C106  C150  A    
C6    C111  S    
C105  Cl27  S    
C74   C145  S    
O7    Zn7   S    
C25   C43   A    
C31   C156  S    
C103  C147  A    
C162  O27   A    
C12   C68   A    
C101  C145  A    
C89   Cl19  S    
C33   C153  S    
C75   C84   A    
C4    C113  S    
C111  C119  A    
C61   H6    S    
C26   C45   A    
C29   C38   A    
C86   Cl17  S    
C72   H33   S    
C107  C151  A    
C135  C143  S    
C142  Cl47  S    
C64   H9    S    
C141  C150  A    
C75   C146  S    
C139  C148  A    
C4    O31   A    
C120  C129  A    
C38   C41   A    
O8    Zn6   S    
C164  O36   A    
C92   Cl10  S    
C81   C151  S    
C66   H15   S    
C8    C12   A    
C157  O13   A    
C10   C45   A    
O20   Zn11  S    
O11   Zn6   S    
C1    O18   A    
O36   Zn3   S    
C139  Cl43  S    
O43   Zn12  S    
O17   Zn11  S    
C114  C123  A    
C68   Cl4   S    
C136  C145  A    
C116  C125  A    
C118  C127  A    
C108  Cl30  S    
C58   H23   S    
C29   C51   A    
C27   C47   A    
O24   Zn1   S    
C48   C154  A    
C35   Cl52  S    
C108  C117  A    
C71   H26   S    
C63   C64   S    
C3    C114  S    
C163  O39   A    
C5    C112  S    
C126  Cl39  S    
C49   C59   S    
C77   O12   A    
C37   C159  S    
C69   H19   S    
C144  C152  A    
C99   O21   A    
C28   C37   A    
C85   Cl16  S    
C56   C58   S    
C30   C39   A    
C72   H35   S    
C61   C62   S    
C53   C67   S    
C107  C116  A    
O47   Zn11  S    
C104  C113  A    
C59   C60   S    
C163  O28   A    
O4    Zn10  S    
C50   C61   S    
C15   C46   A    
O1    Zn1   S    
C140  C149  A    
C27   C49   A    
C25   C33   A    
C54   C57   A    
O3    Zn11  S    
C125  C134  A    
C30   C157  S    
O39   Zn3   S    
O40   Zn12  S    
C104  C148  A    
C116  C163  S    
C11   C47   A    
C8    C43   A    
C136  Cl40  S    
C55   C68   A    
C138  Cl42  S    
O48   Zn9   S    
O45   Zn9   S    
C65   H17   S    
C124  C133  A    
C101  C109  A    
C31   C40   A    
C64   H8    S    
C80   C89   A    
C77   O19   A    
C108  C152  A    
C7    O35   A    
C143  O26   A    
C56   H34   S    
C70   C71   S    
C103  Cl25  S    
C106  Cl28  S    
C99   O34   A    
O12   Zn5   S    
C26   C48   A    
C63   H13   S    
C156  O3    A    
C91   Cl21  S    
C132  O46   A    
O46   Zn10  S    
C34   C41   A    
C130  C139  A    
C140  Cl44  S    
C75   C96   A    
C1    O1    A    
C51   C63   S    
C3    O37   A    
O37   Zn4   S    
C73   H30   S    
O33   Zn2   S    
C23   C44   A    
O35   Zn12  S    
C94   Cl13  S    
C62   H4    S    
C13   Cl50  S    
C84   Cl15  S    
C153  O9    A    
C9    C14   A    
C134  C142  A    
C137  C146  A    
C12   C15   A    
O16   Zn10  S    
C38   C158  S    
C90   Cl20  S    
C126  C135  A    
C117  C162  S    
C144  Cl48  S    
C115  C124  A    
C46   Cl2   S    
C99   C130  S    
C123  C131  A    
C59   H40   S    
O25   Zn7   S    
C59   H2    S    
C57   Cl3   S    
C27   C36   A    
C21   C30   A    
C133  C141  A    
C158  O14   A    
C23   C32   A    
C5    O43   A    
C71   H27   S    
O21   Zn10  S    
C56   H36   S    
C60   H37   S    
C155  O10   A    
C2    Cl49  S    
C35   C52   A    
C141  Cl46  S    
C82   C152  S    
C110  O22   A    
O19   Zn8   S    
C13   C50   A    
C80   C92   A    
O28   Zn4   S    
C121  O24   A    
C64   H10   S    
C73   H32   S    
C137  Cl41  S    
C80   C150  S    
C83   C92   A    
C33   C39   A    
C20   C154  A    
C79   C93   A    
C154  Cl45  S    
C6    O40   A    
C10   C17   A    
C66   H16   S    
C97   Cl5   S    
C119  Cl32  S    
C115  C164  S    
O44   Zn8   S    
C70   H28   S    
C21   C43   A    
C28   C50   A    
C26   C34   A    
C22   C44   A    
C129  C138  A    
C76   C147  S    
C78   C98   A    
C122  Cl35  S    
C55   C72   S    
C6    O33   A    
C143  O47   A    
C78   C86   A    
C96   Cl6   S    
C100  Cl7   S    
O26   Zn6   S    
O27   Zn3   S    
C22   C53   A    
C17   C24   A    
C22   C31   A    
C123  Cl36  S    
O9    Zn1   S    
C71   H25   S    
C60   H39   S    
C102  Cl24  S    
C7    C109  S    
C89   C97   A    
C67   C69   S    
O31   Zn12  S    
C128  C137  A    
C61   H7    S    
C2    C49   A    
C32   C155  S    
C85   C94   A    
C138  C147  A    
C158  O5    A    
C104  Cl26  S    
C87   C96   A    
C77   C128  S    
O42   Zn2   S    
C135  C144  A    
C14   C16   A    
C101  Cl22  S    
O41   Zn2   S    
C107  Cl29  S    
C58   H12   S    
C23   C54   A    
C48   C56   S    
C9    C44   A    
C1    C127  S    
C105  C149  A    
C66   H14   S    
C88   O20   A    
C98   Cl8   S    
O2    Zn8   S    
C102  C146  A    
C161  O8    A    
C156  O11   A    
C17   C19   A    
C90   C98   A    
C18   C20   A    
C32   C40   A    
C36   C160  S    
C65   C66   S    
C121  C133  S    
C162  O38   A    
C69   H21   S    
C122  C130  A    
C21   C52   A    
O13   Zn7   S    
