data_mof_unit_20567.cif
_audit_creation_date              2012-12-10T17:56:44-0500
_audit_creation_method            fapswitch 2.2
_symmetry_space_group_name_H-M    P1
_symmetry_Int_Tables_number       1
_space_group_crystal_system       triclinic
_cell_length_a                    10.971534
_cell_length_b                    9.590081
_cell_length_c                    10.825918
_cell_angle_alpha                 88.192236
_cell_angle_beta                  91.140945
_cell_angle_gamma                 89.42224
_cell_volume                      1138.22230673

loop_
_atom_site_label
_atom_site_type_symbol
_atom_type_description
_atom_site_fract_x
_atom_site_fract_y
_atom_site_fract_z
_atom_type_partial_charge
C1    C     C_R   0.262193 0.500426 0.508211 0.903876
C2    C     C_R   0.737203 0.499351 0.490091 0.848029
C3    C     C_R   0.935064 0.624224 0.473505 -0.122700
C4    C     C_R   0.058478 0.627442 0.505615 -0.131780
C5    C     C_R   0.426528 0.077625 0.419212 0.423057
C6    C     C_R   0.572289 0.070589 0.581699 0.409625
C7    C     C_R   0.428572 0.929610 0.417447 0.447681
C8    C     C_R   0.571609 0.922526 0.582597 0.408676
C9    C     C_R   0.513323 0.502939 0.262900 0.824444
C10   C     C_R   0.494972 0.497861 0.738087 0.855763
C11   C     C_R   0.522738 0.771639 0.092176 0.341940
C12   C     C_R   0.377812 0.718912 0.884620 0.285063
C13   C     C_R   0.462133 0.882100 0.027091 0.333362
C14   C     C_R   0.381789 0.854082 0.929114 0.306451
C15   C     C_R   0.455910 0.614689 0.936564 -0.085695
C16   C     C_R   0.503849 0.632992 0.055668 -0.085309
C17   C     C_R   0.532218 0.510893 0.128405 -0.049628
C18   C     C_R   0.490448 0.494352 0.873618 -0.027306
C19   C     C_R   0.558087 0.387382 0.068436 -0.080642
C20   C     C_R   0.543019 0.381150 0.940893 -0.073083
C21   C     C_R   0.063896 0.372604 0.516513 0.376504
C22   C     C_R   0.938285 0.370700 0.493407 0.374567
C23   C     C_R   0.871341 0.497456 0.480868 -0.259149
C24   C     C_R   0.127221 0.500918 0.514540 -0.240225
Cu1   Cu    Cu3+1 0.500000 0.640660 0.500000 1.133846
Cu2   Cu    Cu3+1 0.500000 0.359340 0.500000 1.135900
H1    H     H_    0.592061 0.296896 0.120813 0.219201
H2    H     H_    0.571292 0.287757 0.895571 0.229180
N1    N     N_R   0.500000 0.852070 0.500000 -0.282259
N2    N     N_R   0.500000 0.147940 0.500000 -0.295670
O1    O     O_R   0.319640 0.618740 0.499990 -0.527906
O2    O     O_R   0.680360 0.618740 0.500010 -0.534418
O3    O     O_R   0.319620 0.381170 0.499990 -0.510020
O4    O     O_R   0.680380 0.381170 0.500010 -0.515990
O5    O     O_R   0.500000 0.618810 0.319650 -0.526566
O6    O     O_R   0.500000 0.618810 0.680350 -0.538883
O7    O     O_R   0.499970 0.381240 0.319640 -0.550768
O8    O     O_R   0.500030 0.381240 0.680360 -0.552660
Cl1   Cl    Cl    0.642167 0.811857 0.196166 -0.518696
Cl2   Cl    Cl    0.258628 0.671530 0.784832 -0.539062
Cl3   Cl    Cl    0.482929 0.054446 0.071133 -0.471009
Cl4   Cl    Cl    0.291954 0.988697 0.857711 -0.397340
Cl5   Cl    Cl    0.134786 0.211621 0.563963 -0.410454
Cl6   Cl    Cl    0.871844 0.206189 0.465858 -0.414465
C25   C     C_2   0.883217 0.752080 0.411169 0.970880
O9    O     O_2   0.825876 0.836953 0.469141 -0.471054
O10   O     O_R   0.914498 0.782507 0.288870 -0.675293
H3    H     H_    0.886963 0.879389 0.259490 0.396558
C26   C     C_2   0.100077 0.761797 0.555708 1.025566
O11   O     O_2   0.175887 0.832407 0.503386 -0.494758
O12   O     O_R   0.040016 0.814706 0.657269 -0.632559
H4    H     H_    0.070730 0.909856 0.680669 0.410169
Cl7   Cl    Cl    0.324508 0.169068 0.317227 -0.367307
Cl8   Cl    Cl    0.667780 0.153672 0.688646 -0.430643
Cl9   Cl    Cl    0.337444 0.847138 0.306030 -0.427183
Cl10  Cl    Cl    0.666654 0.831776 0.692096 -0.419857

loop_
_geom_bond_atom_site_label_1
_geom_bond_atom_site_label_2
_ccdc_geom_bond_type
C10   O8    A    
Cu1   O1    S    
C15   C18   A    
C10   O6    A    
Cu2   O7    S    
C12   Cl2   S    
C7    N1    A    
C13   C14   A    
C19   H1    S    
C11   C16   A    
Cu2   O3    S    
C3    C23   A    
C19   C20   A    
C12   C15   A    
C7    Cl9   S    
C4    C26   S    
C14   Cl4   S    
C8    Cl10  S    
Cu1   O2    S    
C13   Cl3   S    
C1    O3    A    
C21   C22   A    
Cu2   O4    S    
C11   Cl1   S    
C11   C13   A    
C2    O4    A    
Cu1   O5    S    
C8    N1    A    
C5    Cl7   S    
C6    N2    A    
C10   C18   S    
Cu2   N2    S    
C18   C20   A    
C25   O10   S    
Cu1   N1    S    
C4    C24   A    
C9    O5    A    
Cu1   O6    S    
O12   H4    S    
O10   H3    S    
C25   O9    D    
C1    O1    A    
C1    C24   S    
C2    O2    A    
C26   O11   D    
C5    N2    A    
C21   C24   A    
C9    C17   S    
C2    C23   S    
C5    C7    A    
C22   C23   A    
Cu2   O8    S    
C6    C8    A    
C20   H2    S    
C17   C19   A    
Cu1   Cu2   S    
C21   Cl5   S    
C3    C25   S    
C6    Cl8   S    
C22   Cl6   S    
C3    C4    A    
C15   C16   A    
C12   C14   A    
C16   C17   A    
C26   O12   S    
C9    O7    A    
