data_mof_unit_36238.cif
_audit_creation_date              2013-03-05T15:41:55-0500
_audit_creation_method            fapswitch 2.2
_symmetry_space_group_name_H-M    P1
_symmetry_Int_Tables_number       1
_space_group_crystal_system       triclinic
_cell_length_a                    19.520881
_cell_length_b                    7.24752
_cell_length_c                    17.66048
_cell_angle_alpha                 89.967413
_cell_angle_beta                  107.59187
_cell_angle_gamma                 89.95952
_cell_volume                      2381.71839215

loop_
_atom_site_label
_atom_site_type_symbol
_atom_site_description
_atom_site_fract_x
_atom_site_fract_y
_atom_site_fract_z
_atom_type_partial_charge
O1    O     O_R   0.414820 0.494320 0.416790 -0.502771
O2    O     O_R   0.585180 0.994320 0.583210 -0.501955
O3    O     O_R   0.560270 0.819500 0.430140 -0.541456
O4    O     O_R   0.439730 0.319500 0.569860 -0.534544
C1    C     C_R   0.581554 0.655581 0.415623 0.944832
C2    C     C_R   0.418122 0.155651 0.583975 0.942665
O5    O     O_R   0.413840 0.823740 0.407440 -0.545624
O6    O     O_R   0.586160 0.323740 0.592560 -0.545672
O7    O     O_R   0.437710 0.998590 0.560350 -0.536375
O8    O     O_R   0.562290 0.498590 0.439650 -0.544348
C3    C     C_R   0.388381 0.655389 0.384553 0.868066
C4    C     C_R   0.611636 0.155187 0.615461 0.854590
O9    O     O_3   0.508000 0.662290 0.550200 -0.254695
O10   O     O_3   0.492000 0.162290 0.449800 -0.267284
V1    V     V_3+5 0.498520 0.935380 0.490690 1.364462
V2    V     V_3+5 0.501480 0.435380 0.509310 1.366348
C5    C     C_2   0.783565 0.254719 0.789436 -0.036203
C6    C     C_2   0.215897 0.755235 0.211292 -0.031243
C7    C     C_2   0.831259 0.114634 0.807284 0.271326
C8    C     C_2   0.168963 0.613747 0.192679 0.271954
H1    H     H_    0.788759 0.368248 0.830907 0.144862
H2    H     H_    0.210026 0.870561 0.170515 0.141233
C9    C     C_2   0.725586 0.268780 0.712702 0.348510
C10   C     C_2   0.273880 0.768208 0.288092 0.348392
C11   C     C_2   0.672226 0.141451 0.689871 0.242202
C12   C     C_2   0.327967 0.642443 0.310037 0.249415
C13   C     C_R   0.298842 0.230481 0.602120 0.356715
C14   C     C_R   0.704043 0.698782 0.401134 0.350287
C15   C     C_R   0.366931 0.147418 0.631121 -0.212994
C16   C     C_R   0.631872 0.647128 0.367456 -0.220333
C17   C     C_R   0.386649 0.053317 0.703976 0.278452
C18   C     C_R   0.607256 0.584122 0.288699 0.276431
C19   C     C_R   0.339460 0.047947 0.751456 -0.048168
C20   C     C_R   0.654181 0.580947 0.240694 -0.051131
C21   C     C_R   0.269315 0.127505 0.721157 -0.077615
C22   C     C_R   0.728458 0.624144 0.276277 -0.084403
C23   C     C_R   0.247697 0.212288 0.644764 -0.084054
C24   C     C_R   0.754253 0.672922 0.357998 -0.085444
C25   C     C_R   0.359574 0.967076 0.828499 0.399147
C26   C     C_R   0.630083 0.537082 0.158344 0.402545
C27   C     C_R   0.311652 0.964043 0.872610 -0.017367
C28   C     C_R   0.678276 0.532489 0.114321 -0.016117
C29   C     C_R   0.242895 0.040634 0.844183 -0.020051
C30   C     C_R   0.751225 0.572827 0.148230 -0.022394
C31   C     C_R   0.220831 0.122736 0.767753 -0.051192
C32   C     C_R   0.777009 0.619140 0.229876 -0.056535
C33   C     C_R   0.150598 0.199449 0.738292 -0.084460
C34   C     C_R   0.851141 0.659691 0.264877 -0.084463
C35   C     C_R   0.127639 0.265585 0.658963 0.287396
C36   C     C_R   0.877254 0.683153 0.348444 0.286057
C37   C     C_R   0.175377 0.273282 0.613342 0.279145
C38   C     C_R   0.829523 0.690254 0.394303 0.280263
C39   C     C_R   0.196222 0.036353 0.891500 0.317651
C40   C     C_R   0.798581 0.567765 0.101543 0.310281
C41   C     C_R   0.128245 0.119286 0.864258 -0.169666
C42   C     C_R   0.870770 0.618879 0.134714 -0.173283
C43   C     C_R   0.105669 0.204386 0.788987 0.332736
C44   C     C_R   0.896819 0.670199 0.215214 0.332293
H3    H     H_    0.329870 0.901056 0.930795 0.201652
H4    H     H_    0.657053 0.498812 0.051935 0.202330
O11   O     O_R   0.937810 0.773680 0.060480 -0.537956
O12   O     O_R   0.062190 0.273680 0.939520 -0.532991
O13   O     O_R   0.086190 0.439740 0.092580 -0.521106
O14   O     O_R   0.913810 0.939740 0.907420 -0.518478
C45   C     C_R   0.110348 0.608235 0.116671 0.826698
C46   C     C_R   0.889711 0.108426 0.883332 0.815409
O15   O     O_R   0.939760 0.444210 0.069890 -0.538869
O16   O     O_R   0.060240 0.944210 0.930110 -0.529286
O17   O     O_R   0.914790 0.269640 0.916760 -0.557295
O18   O     O_R   0.085210 0.769640 0.083240 -0.556509
C47   C     C_R   0.919713 0.612386 0.085051 0.933786
C48   C     C_R   0.080022 0.112460 0.914684 0.929780
O19   O     O_3   0.992050 0.601530 0.949880 -0.259854
O20   O     O_3   0.007950 0.101530 0.050120 -0.271075
V3    V     V_3+5 0.001480 0.328340 0.009300 1.317037
V4    V     V_3+5 0.998520 0.828340 0.990700 1.322731
Cl1   Cl    Cl    0.021923 0.322497 0.763371 -0.493905
Cl2   Cl    Cl    0.985515 0.760044 0.248850 -0.495766
N1    N     N_R   0.053559 0.306517 0.619597 0.158476
O21   O     O_R   0.033331 0.475624 0.600083 -0.182101
O22   O     O_R   0.008068 0.172353 0.594729 -0.181448
N2    N     N_R   0.952616 0.670532 0.389604 0.160572
O23   O     O_R   0.987410 0.812335 0.427537 -0.167889
O24   O     O_R   0.985666 0.513489 0.392605 -0.188976
N3    N     N_R   0.146192 0.325485 0.531659 0.161108
O25   O     O_R   0.131680 0.497785 0.512717 -0.177344
O26   O     O_R   0.126701 0.198827 0.477186 -0.165221
N4    N     N_R   0.859614 0.685998 0.479116 0.161346
O27   O     O_R   0.894332 0.827884 0.517059 -0.159821
O28   O     O_R   0.854950 0.536587 0.518159 -0.184199
Cl3   Cl    Cl    0.831306 0.941074 0.736682 -0.399861
Cl4   Cl    Cl    0.170192 0.436778 0.262358 -0.400774
Cl5   Cl    Cl    0.729955 0.462913 0.653970 -0.428308
Cl6   Cl    Cl    0.268507 0.958585 0.348371 -0.442538
Cl7   Cl    Cl    0.668546 0.953428 0.752749 -0.449151
Cl8   Cl    Cl    0.333059 0.458631 0.245821 -0.452124
Cl9   Cl    Cl    0.281971 0.361564 0.513135 -0.479011
Cl10  Cl    Cl    0.727399 0.809737 0.495185 -0.463837
N5    N     N_R   0.456244 0.969357 0.729608 0.125762
O29   O     O_R   0.463534 0.796393 0.713836 -0.260968
O30   O     O_R   0.512998 0.072498 0.755781 -0.274736
N6    N     N_R   0.533896 0.526608 0.258613 0.123826
O31   O     O_R   0.518008 0.352532 0.259794 -0.251195
O32   O     O_R   0.482842 0.649256 0.243770 -0.286424
Cl11  Cl    Cl    0.444563 0.870628 0.878047 -0.425997
Cl12  Cl    Cl    0.539807 0.494821 0.102432 -0.418101
Cl13  Cl    Cl    0.223507 0.935123 0.987803 -0.619032
Cl14  Cl    Cl    0.767962 0.503571 0.999758 -0.614783

loop_
_geom_bond_atom_site_label_1
_geom_bond_atom_site_label_2
_geom_bond_distance
_ccdc_geom_bond_type
O13   C45   1.332213 A    
C13   C15   1.406557 A    
O1    C3    1.331911 A    
O2    C4    1.331999 A    
C37   N3    1.432129 S    
C2    O7    1.308586 A    
C33   C35   1.418732 A    
N3    O25   1.301262 A    
O5    C3    1.333823 A    
C8    Cl4   1.772068 S    
C19   C25   1.422951 A    
C6    C10   1.483889 S    
C21   C23   1.424909 A    
C10   C12   1.358919 D    
C23   C37   1.421847 A    
C46   O17   1.334258 A    
C24   C38   1.420125 A    
C45   O18   1.334566 A    
C7    C46   1.476921 S    
C31   C33   1.423695 A    
C5    C7    1.348277 D    
C29   C39   1.410513 A    
C14   C16   1.404710 A    
C35   C37   1.405177 A    
C36   C38   1.408135 A    
C17   C19   1.421297 A    
C22   C32   1.428465 A    
C17   N5    1.430977 S    
C6    C8    1.348570 D    
C41   C48   1.479353 S    
O16   C48   1.331962 A    
O11   C47   1.331272 A    
C34   C36   1.418619 A    
O6    V2    2.019022 S    
C27   C29   1.397496 A    
C9    Cl5   1.764851 S    
C28   C30   1.399021 A    
C30   C32   1.416759 A    
C32   C34   1.422233 A    
C39   C41   1.402231 A    
O11   V4    1.990734 S    
C12   Cl8   1.772127 S    
C40   C42   1.402927 A    
O20   V3    1.783559 S    
N3    O26   1.301201 A    
C43   Cl1   1.777773 S    
C8    C45   1.477975 S    
C38   N4    1.434435 S    
C27   H3    1.081256 S    
C25   C27   1.386721 A    
C28   H4    1.081499 S    
N1    O22   1.301114 A    
C3    C12   1.481082 S    
C5    H1    1.086088 S    
C35   N1    1.433187 S    
C18   C20   1.424010 A    
O4    V2    2.020251 S    
C10   Cl6   1.765500 S    
C33   C43   1.430621 A    
C39   Cl13  1.779056 S    
N5    O29   1.301286 A    
C14   C24   1.423860 A    
O6    C4    1.334237 A    
C42   C47   1.480138 S    
O14   V4    2.018932 S    
O12   C48   1.330831 A    
O1    V2    2.010323 S    
C5    C9    1.483377 S    
N6    O32   1.301026 A    
O2    V1    2.011226 S    
C29   C31   1.417321 A    
O4    C2    1.309253 A    
N5    O30   1.300713 A    
N4    O28   1.301363 A    
C11   Cl7   1.772525 S    
N2    O24   1.301038 A    
C41   C43   1.409346 A    
O18   V4    2.010502 S    
O19   V4    1.784479 S    
C18   N6    1.431082 S    
O12   V3    1.990679 S    
O15   V3    2.020081 S    
C21   C31   1.430013 A    
O3    V1    2.020050 S    
C36   N2    1.433300 S    
C26   Cl12  1.767389 S    
C1    C16   1.482313 S    
C14   Cl10  1.776989 S    
C25   Cl11  1.768317 S    
C13   Cl9   1.779247 S    
C6    H2    1.086112 S    
C26   C28   1.390223 A    
O3    C1    1.309102 A    
C34   C44   1.429305 A    
O16   V4    2.020281 S    
C40   Cl14  1.776754 S    
C4    C11   1.481857 S    
C22   C24   1.422315 A    
O7    V1    2.003766 S    
C1    O8    1.308646 A    
C15   C17   1.402865 A    
O8    V2    2.003830 S    
C16   C18   1.403931 A    
O13   V3    2.020535 S    
C13   C23   1.426871 A    
O5    V1    2.020627 S    
C19   C21   1.431566 A    
C20   C22   1.430157 A    
C42   C44   1.407813 A    
O17   V3    2.011402 S    
O15   C47   1.331720 A    
C9    C11   1.359069 D    
N6    O31   1.301054 A    
C7    Cl3   1.771836 S    
C44   Cl2   1.776246 S    
N1    O21   1.301298 A    
C30   C40   1.412950 A    
C2    C15   1.482679 S    
N4    O27   1.301163 A    
N2    O23   1.301168 A    
O9    V2    1.785571 S    
O10   V1    1.784649 S    
C20   C26   1.422908 A    
O14   C46   1.332119 A    
