data_mof_unit_66393.cif
_audit_creation_date              2012-10-26T17:20:26-0400
_audit_creation_method            fapswitch 2.2
_symmetry_space_group_name_H-M    P1
_symmetry_Int_Tables_number       1
_space_group_crystal_system       triclinic
_cell_length_a                    23.709807
_cell_length_b                    23.709804
_cell_length_c                    38.625401
_cell_angle_alpha                 90.000204
_cell_angle_beta                  90.0002
_cell_angle_gamma                 90.0
_cell_volume                      21713.4575421

loop_
_atom_site_label
_atom_site_type_symbol
_atom_type_description
_atom_site_fract_x
_atom_site_fract_y
_atom_site_fract_z
_atom_type_partial_charge
C1    C     C_R   0.500000 0.108203 0.500000 0.538160
C2    C     C_R   0.000000 0.500000 0.395722 0.028518
C3    C     C_R   0.547942 0.017689 0.841341 -0.103388
C4    C     C_R   0.982308 0.452060 0.158659 -0.103388
C5    C     C_R   0.452060 0.017694 0.158659 -0.103388
C6    C     C_R   0.017693 0.547940 0.158660 -0.103388
C7    C     C_R   0.547940 0.982307 0.158660 -0.103388
C8    C     C_R   0.500000 1.000000 0.323197 0.003525
C9    C     C_R   0.000000 0.500000 0.323197 0.003525
C10   C     C_R   0.500000 1.000000 0.676803 0.003525
C11   C     C_R   1.000000 0.500000 0.676803 0.003525
C12   C     C_R   1.000000 0.500000 0.823197 0.003525
C13   C     C_R   0.500000 1.000000 0.604279 0.028514
C14   C     C_R   0.500000 1.000000 0.823197 0.003524
C15   C     C_R   0.000000 0.500000 0.176803 0.003525
C16   C     C_R   0.500000 0.000000 0.176803 0.003525
C17   C     C_3   0.465949 0.101721 0.398095 -0.246940
C18   C     C_3   0.453266 0.154836 0.376667 -0.316904
C19   C     C_3   0.440217 0.205002 0.400138 -0.440534
C20   C     C_3   0.898280 0.465949 0.398094 -0.246940
C21   C     C_3   0.845164 0.453266 0.376666 -0.316904
C22   C     C_3   0.794998 0.440217 0.400137 -0.440534
C23   C     C_3   0.534050 0.898279 0.398095 -0.246940
C24   C     C_R   0.000000 0.500000 0.604278 0.028519
C25   C     C_3   0.546733 0.845164 0.376667 -0.316904
C26   C     C_3   0.559782 0.794998 0.400137 -0.440533
C27   C     C_3   0.101721 0.534051 0.398095 -0.246940
C28   C     C_3   0.154836 0.546733 0.376667 -0.316904
C29   C     C_3   0.205002 0.559782 0.400138 -0.440534
C30   C     C_3   0.465909 0.898291 0.601905 -0.246932
C31   C     C_3   0.453212 0.845179 0.623333 -0.316902
C32   C     C_3   0.440145 0.795017 0.599863 -0.440532
C33   C     C_3   0.898278 0.534046 0.601905 -0.246941
C34   C     C_3   0.845162 0.546728 0.623333 -0.316904
C35   C     C_R   1.000000 0.500000 0.895721 0.028518
C36   C     C_3   0.794995 0.559775 0.599862 -0.440533
C37   C     C_3   0.534092 0.101709 0.601906 -0.246933
C38   C     C_3   0.546791 0.154820 0.623334 -0.316902
C39   C     C_3   0.559859 0.204983 0.599864 -0.440531
C40   C     C_3   0.101722 0.465954 0.601905 -0.246941
C41   C     C_3   0.154838 0.453273 0.623333 -0.316904
C42   C     C_3   0.205005 0.440226 0.599863 -0.440532
C43   C     C_3   0.965948 0.601721 0.898095 -0.246940
C44   C     C_3   0.953265 0.654836 0.876667 -0.316904
C45   C     C_3   0.940216 0.705002 0.900138 -0.440534
C46   C     C_R   0.500000 1.000000 0.895722 0.028521
C47   C     C_3   0.398276 0.965960 0.898095 -0.246942
C48   C     C_3   0.345160 0.953281 0.876667 -0.316904
C49   C     C_3   0.294992 0.940236 0.900138 -0.440533
C50   C     C_3   0.034051 0.398279 0.898095 -0.246940
C51   C     C_3   0.046733 0.345164 0.876667 -0.316904
C52   C     C_3   0.059783 0.294998 0.900137 -0.440533
C53   C     C_3   0.601724 0.034039 0.898095 -0.246942
C54   C     C_3   0.654841 0.046718 0.876668 -0.316904
C55   C     C_3   0.705008 0.059762 0.900139 -0.440533
C56   C     C_3   0.965955 0.398278 0.101905 -0.246941
C57   C     C_R   0.000000 0.500000 0.104278 0.028519
C58   C     C_3   0.953274 0.345162 0.123332 -0.316904
C59   C     C_3   0.940227 0.294995 0.099862 -0.440533
C60   C     C_3   0.398278 0.034048 0.101905 -0.246941
C61   C     C_3   0.345163 0.046730 0.123333 -0.316904
C62   C     C_3   0.294996 0.059777 0.099862 -0.440533
C63   C     C_3   0.034046 0.601722 0.101905 -0.246941
C64   C     C_3   0.046727 0.654838 0.123333 -0.316904
C65   C     C_3   0.059774 0.705005 0.099863 -0.440533
C66   C     C_3   0.601722 0.965953 0.101905 -0.246941
C67   C     C_3   0.654837 0.953271 0.123333 -0.316903
C68   C     C_R   0.500000 0.000000 0.104278 0.028519
C69   C     C_3   0.705004 0.940224 0.099863 -0.440533
C70   C     C_R   0.500000 0.000000 0.214913 0.339757
C71   C     C_R   0.000000 0.500000 0.214913 0.339757
C72   C     C_R   0.500000 1.000000 0.785088 0.339759
C73   C     C_R   0.891797 0.500000 0.500000 0.538158
C74   C     C_R   1.000000 0.500000 0.785087 0.339757
C75   C     C_R   1.000000 0.500000 0.714912 0.339757
C76   C     C_R   0.500000 1.000000 0.714913 0.339759
C77   C     C_R   0.000000 0.500000 0.285087 0.339757
C78   C     C_R   0.500000 0.000000 0.285087 0.339757
C79   C     C_R   0.392955 0.500000 0.500000 0.544136
C80   C     C_R   0.500000 0.392955 0.500000 0.544136
C81   C     C_R   0.607045 0.500000 0.500000 0.544136
C82   C     C_R   0.500000 0.607045 0.500000 0.544136
C83   C     C_R   0.892955 0.000000 1.000000 0.544136
C84   C     C_R   0.500000 0.891797 0.500000 0.538160
C85   C     C_R   1.000000 0.892955 1.000000 0.544136
C86   C     C_R   0.107045 0.000000 0.000000 0.544136
C87   C     C_R   0.000000 0.107045 0.000000 0.544136
C88   C     C_R   0.500000 1.000000 0.433643 0.531465
C89   C     C_R   0.000000 0.500000 0.433643 0.531465
C90   C     C_R   0.500000 1.000000 0.566357 0.531469
C91   C     C_R   0.000000 0.500000 0.566357 0.531464
C92   C     C_R   1.000000 0.500000 0.933643 0.531465
C93   C     C_R   0.500000 1.000000 0.933644 0.531465
C94   C     C_R   0.000000 0.500000 0.066356 0.531463
C95   C     C_R   0.108203 0.500000 0.500000 0.538157
C96   C     C_R   0.500000 1.000000 0.066356 0.531464
C97   C     C_1   0.500000 0.169305 0.500000 -0.037382
C98   C     C_1   0.830695 0.500000 0.500000 -0.037384
C99   C     C_1   0.500000 0.830695 0.500000 -0.037382
C100  C     C_1   0.169305 0.500000 0.500000 -0.037384
C101  C     C_1   1.000000 0.669305 1.000000 -0.037383
C102  C     C_1   0.330695 0.000000 0.000000 -0.037384
C103  C     C_1   0.000000 0.330695 0.000000 -0.037383
C104  C     C_1   0.669305 1.000000 1.000000 -0.037384
C105  C     C_1   0.500000 0.220498 0.500000 -0.052988
C106  C     C_R   0.000000 0.608203 0.000000 0.538157
C107  C     C_1   0.779502 0.500000 0.500000 -0.052992
C108  C     C_1   0.500000 0.779502 0.500000 -0.052988
C109  C     C_1   0.220498 0.500000 0.500000 -0.052992
C110  C     C_1   1.000000 0.720498 1.000000 -0.052991
C111  C     C_1   0.279502 1.000000 0.000000 -0.052992
C112  C     C_1   0.000000 0.279502 0.000000 -0.052992
C113  C     C_1   0.720498 1.000000 1.000000 -0.052992
C114  C     C_1   0.500000 0.280616 0.500000 -0.044381
C115  C     C_1   0.719384 0.500000 0.500000 -0.044383
C116  C     C_1   0.500000 0.719384 0.500000 -0.044381
C117  C     C_R   0.391797 0.000000 0.000000 0.538157
C118  C     C_1   0.280616 0.500000 0.500000 -0.044383
C119  C     C_1   1.000000 0.780616 1.000000 -0.044383
C120  C     C_1   0.219384 1.000000 0.000000 -0.044384
C121  C     C_1   1.000000 0.219384 0.000000 -0.044383
C122  C     C_1   0.780616 1.000000 1.000000 -0.044384
C123  C     C_1   0.500000 0.331821 0.500000 -0.021649
C124  C     C_1   0.668179 0.500000 0.500000 -0.021649
C125  C     C_1   0.500000 0.668179 0.500000 -0.021649
C126  C     C_1   0.331821 0.500000 0.500000 -0.021649
C127  C     C_1   1.000000 0.831821 1.000000 -0.021649
C128  C     C_R   0.000000 0.391797 0.000000 0.538157
C129  C     C_1   0.168179 1.000000 0.000000 -0.021649
C130  C     C_1   0.000000 0.168179 0.000000 -0.021649
C131  C     C_1   0.831821 1.000000 1.000000 -0.021649
C132  C     C_R   0.482676 0.049088 0.377697 -0.022521
C133  C     C_R   0.950913 0.482676 0.377696 -0.022521
C134  C     C_R   0.517323 0.950912 0.377696 -0.022521
C135  C     C_R   0.049088 0.517323 0.377697 -0.022521
C136  C     C_R   0.482657 0.950919 0.622303 -0.022523
C137  C     C_R   0.950911 0.517322 0.622303 -0.022521
C138  C     C_R   0.517344 0.049081 0.622304 -0.022523
C139  C     C_R   0.608203 0.000000 0.000000 0.538157
C140  C     C_R   0.049089 0.482679 0.622303 -0.022521
C141  C     C_R   0.982676 0.549087 0.877697 -0.022521
C142  C     C_R   0.450910 0.982682 0.877697 -0.022522
C143  C     C_R   0.017323 0.450912 0.877696 -0.022521
C144  C     C_R   0.549090 0.017318 0.877697 -0.022522
C145  C     C_R   0.982679 0.450911 0.122303 -0.022521
C146  C     C_R   0.450912 0.017322 0.122303 -0.022521
C147  C     C_R   0.017321 0.549088 0.122303 -0.022521
C148  C     C_R   0.549088 0.982678 0.122303 -0.022521
C149  C     C_R   0.482304 0.047939 0.341340 -0.103388
C150  C     C_R   0.500000 0.000000 0.395722 0.028518
C151  C     C_R   0.952061 0.482304 0.341340 -0.103388
C152  C     C_R   0.517695 0.952061 0.341340 -0.103388
C153  C     C_R   0.047939 0.517695 0.341340 -0.103388
C154  C     C_R   0.482286 0.952067 0.658660 -0.103390
C155  C     C_R   0.952060 0.517693 0.658659 -0.103388
C156  C     C_R   0.517715 0.047933 0.658660 -0.103390
C157  C     C_R   0.047940 0.482307 0.658659 -0.103388
C158  C     C_R   0.982304 0.547939 0.841341 -0.103388
C159  C     C_R   0.452059 0.982310 0.841341 -0.103388
C160  C     C_R   0.017695 0.452061 0.841340 -0.103388
Cu1   Cu    Cu3+1 0.555710 1.000000 0.500000 0.921431
Cu2   Cu    Cu3+1 0.500000 0.500000 0.534110 0.949672
Cu3   Cu    Cu3+1 1.000000 1.000000 0.965890 0.949668
Cu4   Cu    Cu3+1 1.000000 1.000000 0.034110 0.949669
Cu5   Cu    Cu3+1 0.000000 0.555710 0.500000 0.921436
Cu6   Cu    Cu3+1 0.444290 1.000000 0.500000 0.921432
Cu7   Cu    Cu3+1 0.000000 0.444290 0.500000 0.921436
Cu8   Cu    Cu3+1 0.055710 0.500000 0.000000 0.921437
Cu9   Cu    Cu3+1 0.500000 0.055710 0.000000 0.921438
Cu10  Cu    Cu3+1 0.944290 0.500000 0.000000 0.921437
Cu11  Cu    Cu3+1 0.500000 0.944290 0.000000 0.921438
Cu12  Cu    Cu3+1 0.500000 0.500000 0.465890 0.949669
H1    H     H_    0.469183 0.084482 0.326711 0.131660
H2    H     H_    0.415514 0.969193 0.826711 0.131662
H3    H     H_    0.612018 0.999006 0.916184 0.151078
H4    H     H_    0.903026 0.304253 0.083325 0.160113
H5    H     H_    0.977032 0.285305 0.083081 0.163036
H6    H     H_    0.930761 0.257346 0.115940 0.151575
H7    H     H_    0.990389 0.334334 0.139621 0.168573
H8    H     H_    0.916148 0.352791 0.140274 0.166784
H9    H     H_    0.928015 0.408378 0.086181 0.168835
H10   H     H_    0.000986 0.387982 0.083816 0.151077
H11   H     H_    0.304254 0.096978 0.083325 0.160113
H12   H     H_    0.285305 0.022973 0.083081 0.163035
H13   H     H_    0.030816 0.415518 0.826711 0.131660
H14   H     H_    0.257347 0.069245 0.115940 0.151575
H15   H     H_    0.334334 0.009615 0.139621 0.168573
H16   H     H_    0.352793 0.083856 0.140274 0.166784
H17   H     H_    0.408379 0.071987 0.086181 0.168835
H18   H     H_    0.387982 0.999016 0.083816 0.151077
H19   H     H_    0.096975 0.695747 0.083326 0.160113
H20   H     H_    0.022969 0.714695 0.083082 0.163035
H21   H     H_    0.069240 0.742654 0.115941 0.151575
H22   H     H_    0.009612 0.665666 0.139622 0.168573
H23   H     H_    0.083853 0.647208 0.140275 0.166784
H24   H     H_    0.584486 0.030806 0.826712 0.131662
H25   H     H_    0.071986 0.591622 0.086182 0.168834
H26   H     H_    0.999014 0.612017 0.083816 0.151077
H27   H     H_    0.695746 0.903023 0.083326 0.160113
H28   H     H_    0.714695 0.977028 0.083082 0.163035
H29   H     H_    0.742653 0.930757 0.115941 0.151575
H30   H     H_    0.665666 0.990386 0.139622 0.168572
H31   H     H_    0.647207 0.916145 0.140275 0.166784
H32   H     H_    0.591621 0.928013 0.086182 0.168835
H33   H     H_    0.612017 0.000985 0.083816 0.151077
H34   H     H_    0.969188 0.415516 0.173289 0.131660
H35   H     H_    0.415517 0.030814 0.173289 0.131660
H36   H     H_    0.030813 0.584483 0.173289 0.131660
H37   H     H_    0.584483 0.969187 0.173289 0.131660
H38   H     H_    0.403016 0.195743 0.416675 0.160113
H39   H     H_    0.477021 0.214694 0.416919 0.163035
H40   H     H_    0.430749 0.242651 0.384060 0.151575
H41   H     H_    0.915519 0.469183 0.326711 0.131660
H42   H     H_    0.490380 0.165665 0.360379 0.168573
H43   H     H_    0.416140 0.147205 0.359725 0.166784
H44   H     H_    0.428010 0.091619 0.413818 0.168836
H45   H     H_    0.500981 0.112017 0.416184 0.151076
H46   H     H_    0.804257 0.403016 0.416673 0.160112
H47   H     H_    0.785306 0.477021 0.416918 0.163035
H48   H     H_    0.757349 0.430749 0.384059 0.151575
H49   H     H_    0.834335 0.490380 0.360378 0.168573
H50   H     H_    0.852795 0.416140 0.359725 0.166784
H51   H     H_    0.908381 0.428009 0.413817 0.168835
H52   H     H_    0.530816 0.915518 0.326711 0.131660
H53   H     H_    0.887983 0.500980 0.416184 0.151077
H54   H     H_    0.596983 0.804257 0.416674 0.160113
H55   H     H_    0.522978 0.785306 0.416918 0.163035
H56   H     H_    0.569249 0.757349 0.384059 0.151575
H57   H     H_    0.509618 0.834335 0.360378 0.168573
H58   H     H_    0.583858 0.852795 0.359725 0.166783
H59   H     H_    0.571990 0.908381 0.413818 0.168836
H60   H     H_    0.499019 0.887983 0.416184 0.151076
H61   H     H_    0.195743 0.596983 0.416675 0.160112
H62   H     H_    0.214694 0.522978 0.416919 0.163036
H63   H     H_    0.084482 0.530816 0.326711 0.131660
H64   H     H_    0.242651 0.569250 0.384060 0.151575
H65   H     H_    0.165665 0.509619 0.360379 0.168573
H66   H     H_    0.147205 0.583859 0.359725 0.166783
H67   H     H_    0.091619 0.571990 0.413818 0.168836
H68   H     H_    0.112017 0.499019 0.416184 0.151077
H69   H     H_    0.402945 0.804288 0.583327 0.160109
H70   H     H_    0.476944 0.785313 0.583080 0.163035
H71   H     H_    0.430667 0.757370 0.615941 0.151573
H72   H     H_    0.490324 0.834338 0.639621 0.168574
H73   H     H_    0.416089 0.852821 0.640276 0.166779
H74   H     H_    0.469149 0.915530 0.673289 0.131662
H75   H     H_    0.427970 0.908406 0.586184 0.168844
H76   H     H_    0.500935 0.887983 0.583814 0.151073
H77   H     H_    0.804253 0.596976 0.583325 0.160113
H78   H     H_    0.785305 0.522970 0.583081 0.163035
H79   H     H_    0.757346 0.569241 0.615940 0.151576
H80   H     H_    0.834334 0.509613 0.639621 0.168573
H81   H     H_    0.852792 0.583854 0.640274 0.166784
H82   H     H_    0.908378 0.571986 0.586181 0.168835
H83   H     H_    0.887982 0.499014 0.583816 0.151077
H84   H     H_    0.597059 0.195711 0.583329 0.160108
H85   H     H_    0.915517 0.530813 0.673289 0.131660
H86   H     H_    0.523059 0.214687 0.583081 0.163034
H87   H     H_    0.569338 0.242629 0.615942 0.151573
H88   H     H_    0.509678 0.165662 0.639621 0.168574
H89   H     H_    0.583913 0.147177 0.640277 0.166779
H90   H     H_    0.572030 0.091593 0.586185 0.168845
H91   H     H_    0.499066 0.112018 0.583815 0.151072
H92   H     H_    0.195747 0.403025 0.583326 0.160113
H93   H     H_    0.214695 0.477031 0.583082 0.163035
H94   H     H_    0.242654 0.430760 0.615941 0.151576
H95   H     H_    0.165666 0.490388 0.639622 0.168572
H96   H     H_    0.530851 0.084470 0.673289 0.131662
H97   H     H_    0.147208 0.416147 0.640275 0.166784
H98   H     H_    0.091622 0.428015 0.586182 0.168835
H99   H     H_    0.112018 0.500986 0.583816 0.151077
H100  H     H_    0.903015 0.695743 0.916674 0.160112
H101  H     H_    0.977020 0.714694 0.916919 0.163035
H102  H     H_    0.930748 0.742651 0.884060 0.151575
H103  H     H_    0.990379 0.665665 0.860379 0.168573
H104  H     H_    0.916139 0.647204 0.859725 0.166784
H105  H     H_    0.928009 0.591619 0.913818 0.168836
H106  H     H_    0.000980 0.612017 0.916184 0.151077
H107  H     H_    0.084483 0.469188 0.673289 0.131660
H108  H     H_    0.304248 0.903035 0.916674 0.160113
H109  H     H_    0.285303 0.977041 0.916919 0.163035
H110  H     H_    0.257343 0.930771 0.884059 0.151575
H111  H     H_    0.334333 0.990396 0.860378 0.168572
H112  H     H_    0.352788 0.916154 0.859725 0.166784
H113  H     H_    0.408374 0.928020 0.913819 0.168833
H114  H     H_    0.387982 0.000993 0.916184 0.151078
H115  H     H_    0.096984 0.304257 0.916674 0.160112
H116  H     H_    0.022979 0.285306 0.916918 0.163035
H117  H     H_    0.069250 0.257349 0.884059 0.151575
H118  H     H_    0.969183 0.584482 0.826711 0.131660
H119  H     H_    0.009619 0.334335 0.860378 0.168573
H120  H     H_    0.083859 0.352795 0.859725 0.166784
H121  H     H_    0.071990 0.408381 0.913818 0.168836
H122  H     H_    0.999020 0.387983 0.916184 0.151077
H123  H     H_    0.695752 0.096964 0.916676 0.160113
H124  H     H_    0.714697 0.022957 0.916920 0.163036
H125  H     H_    0.742658 0.069227 0.884061 0.151576
H126  H     H_    0.665667 0.009603 0.860379 0.168573
H127  H     H_    0.647213 0.083845 0.859726 0.166784
H128  H     H_    0.591626 0.071979 0.913819 0.168834
N1    N     N_R   0.534780 0.965083 0.267217 -0.233561
N2    N     N_R   0.534926 0.034771 0.767218 -0.233563
N3    N     N_R   0.965219 0.534917 0.767217 -0.233561
N4    N     N_R   0.465074 0.965229 0.767218 -0.233563
N5    N     N_R   0.034779 0.534918 0.232783 -0.233562
N6    N     N_R   0.534918 0.965221 0.232782 -0.233561
N7    N     N_R   0.965222 0.465081 0.232782 -0.233561
N8    N     N_R   0.465082 0.034779 0.232782 -0.233562
N9    N     N_R   0.034917 0.534780 0.267218 -0.233562
N10   N     N_R   0.465220 0.034917 0.267217 -0.233562
N11   N     N_R   0.965084 0.465219 0.267217 -0.233561
N12   N     N_R   0.534788 0.034909 0.732783 -0.233564
N13   N     N_R   0.034918 0.465222 0.732782 -0.233561
N14   N     N_R   0.465212 0.965091 0.732783 -0.233564
N15   N     N_R   0.965081 0.534779 0.732782 -0.233562
N16   N     N_R   0.034780 0.465084 0.767217 -0.233561
O1    O     O_R   0.547030 0.081100 0.499900 -0.501504
O2    O     O_R   0.418900 0.047030 0.999900 -0.501502
O3    O     O_R   0.952970 0.418900 0.999900 -0.501501
O4    O     O_R   0.581100 0.952970 0.999900 -0.501502
O5    O     O_R   0.047030 0.418900 0.000100 -0.501502
O6    O     O_R   0.418900 0.952970 0.000100 -0.501501
O7    O     O_R   0.952970 0.581100 0.000100 -0.501502
O8    O     O_R   0.581100 0.047030 0.000100 -0.501501
O9    O     O_R   0.547030 0.999700 0.449980 -0.509095
O10   O     O_R   0.000300 0.547030 0.449980 -0.509095
O11   O     O_R   0.452970 0.000300 0.449980 -0.509095
O12   O     O_R   0.918900 0.547030 0.499900 -0.501501
O13   O     O_R   0.999700 0.452970 0.449980 -0.509094
O14   O     O_R   0.547030 0.000300 0.550020 -0.509099
O15   O     O_R   0.000300 0.452970 0.550020 -0.509094
O16   O     O_R   0.452970 0.999700 0.550020 -0.509098
O17   O     O_R   0.999700 0.547030 0.550020 -0.509094
O18   O     O_R   0.047030 0.499700 0.949980 -0.509095
O19   O     O_R   0.500300 0.047030 0.949980 -0.509094
O20   O     O_R   0.952970 0.500300 0.949980 -0.509094
O21   O     O_R   0.499700 0.952970 0.949980 -0.509094
O22   O     O_R   0.047030 0.500300 0.050020 -0.509094
O23   O     O_R   0.452970 0.918900 0.499900 -0.501504
O24   O     O_R   0.500300 0.952970 0.050020 -0.509094
O25   O     O_R   0.952970 0.499700 0.050020 -0.509094
O26   O     O_R   0.499700 0.047030 0.050020 -0.509094
O27   O     O_R   0.419660 0.499650 0.470270 -0.499919
O28   O     O_R   0.500350 0.419660 0.470270 -0.499920
O29   O     O_R   0.580340 0.500350 0.470270 -0.499919
O30   O     O_R   0.499650 0.580340 0.470270 -0.499920
O31   O     O_R   0.419660 0.500350 0.529730 -0.499919
O32   O     O_R   0.500350 0.580340 0.529730 -0.499918
O33   O     O_R   0.580340 0.499650 0.529730 -0.499919
O34   O     O_R   0.081100 0.452970 0.499900 -0.501501
O35   O     O_R   0.499650 0.419660 0.529730 -0.499918
O36   O     O_R   0.919660 0.999650 0.970270 -0.499920
O37   O     O_R   0.000350 0.919660 0.970270 -0.499919
O38   O     O_R   0.080340 0.000350 0.970270 -0.499920
O39   O     O_R   0.999650 0.080340 0.970270 -0.499919
O40   O     O_R   0.919660 0.000350 0.029730 -0.499919
O41   O     O_R   0.000350 0.080340 0.029730 -0.499920
O42   O     O_R   0.080340 0.999650 0.029730 -0.499919
O43   O     O_R   0.999650 0.919660 0.029730 -0.499919
O44   O     O_R   0.547030 0.918900 0.500100 -0.501497
O45   O     O_R   0.918900 0.452970 0.500100 -0.501502
O46   O     O_R   0.452970 0.081100 0.500100 -0.501497
O47   O     O_R   0.081100 0.547030 0.500100 -0.501502
O48   O     O_R   0.047030 0.581100 0.999900 -0.501501

loop_
_geom_bond_atom_site_label_1
_geom_bond_atom_site_label_2
_ccdc_geom_bond_type
Cu9   O19   S    
C57   C145  A    
C132  C150  A    
C73   O45   A    
C133  C151  A    
C10   C154  A    
C52   H115  S    
C48   H112  S    
C68   C146  A    
C24   C140  A    
C80   O35   A    
C30   H76   S    
C34   H81   S    
C87   C130  S    
C91   O17   A    
C74   N16   A    
C45   H102  S    
C64   H23   S    
C49   H110  S    
C70   N6    A    
C62   H11   S    
C9    C151  A    
C113  C122  S    
C154  H74   S    
C33   C137  S    
C1    O1    A    
C36   H78   S    
C42   H94   S    
C66   C148  S    
C97   C105  T    
C100  C109  T    
Cu6   O16   S    
C21   C22   S    
C102  C111  T    
C60   C146  S    
C83   O36   A    
C88   O11   A    
C109  C118  S    
C86   O38   A    
C25   H58   S    
C51   C52   S    
C31   H72   S    
C33   H83   S    
C49   H108  S    
C101  C110  T    
C61   H16   S    
C63   H25   S    
C103  C112  T    
C50   H122  S    
C43   C44   S    
C82   C125  S    
C51   H119  S    
C37   C38   S    
C28   H65   S    
C5    H35   S    
Cu1   O9    S    
C26   H55   S    
C128  O3    A    
C74   N3    A    
C9    C77   S    
C29   H61   S    
C21   H49   S    
C44   H104  S    
C30   C136  S    
C57   C147  A    
C41   H95   S    
C158  H118  S    
C1    C97   S    
C82   O32   A    
C11   C157  A    
C28   C29   S    
C32   H70   S    
C91   O15   A    
Cu4   O41   S    
C94   O25   A    
C38   H88   S    
C104  C139  S    
Cu7   O34   S    
C40   H98   S    
C1    O46   A    
C81   O29   A    
Cu7   O13   S    
C40   C140  S    
Cu8   O5    S    
C67   H31   S    
N5    N9    A    
C139  O8    A    
C60   H18   S    
C117  O2    A    
C58   H8    S    
C75   N15   A    
C80   C123  S    
C77   N9    A    
C22   H47   S    
C19   H38   S    
C52   H117  S    
C143  C160  A    
C53   C54   S    
C99   C108  T    
Cu11  O6    S    
C8    C152  A    
C72   N2    A    
C38   C39   S    
C95   O34   A    
C92   O18   A    
C156  H96   S    
Cu12  O27   S    
C137  C155  A    
Cu1   O1    S    
C56   C145  S    
C37   H90   S    
Cu12  O29   S    
C65   H19   S    
C64   H22   S    
C41   H97   S    
C96   O24   A    
Cu1   O44   S    
C54   H126  S    
C6    H36   S    
C82   O30   A    
C55   H123  S    
C62   H14   S    
C66   H32   S    
C66   C67   S    
C9    C153  A    
Cu5   Cu7   S    
Cu9   Cu11  S    
C18   H42   S    
C160  H13   S    
Cu4   O43   S    
C63   C147  S    
N8    N10   A    
Cu5   O47   S    
C73   C98   S    
C120  C129  T    
C16   C70   S    
C59   H4    S    
C66   H33   S    
Cu2   O31   S    
C46   C144  A    
C117  O6    A    
C25   C26   S    
Cu11  O24   S    
C39   H86   S    
Cu7   O15   S    
C157  H107  S    
Cu3   O38   S    
C31   C32   S    
C43   H105  S    
C107  C115  S    
C17   C18   S    
Cu5   O10   S    
C20   C21   S    
C75   N13   A    
C102  C117  S    
C114  C123  T    
C77   N11   A    
C57   C94   S    
C151  H41   S    
Cu8   O22   S    
C122  C131  T    
C53   H3    S    
C101  C106  S    
C54   C55   S    
C23   C134  S    
Cu5   O17   S    
C59   H6    S    
C47   H114  S    
C110  C119  S    
C52   H116  S    
C92   O20   A    
C24   C137  A    
C2    C135  A    
C85   O43   A    
C14   C159  A    
C37   C138  S    
C53   C144  S    
C27   C135  S    
C13   C138  A    
C112  C121  S    
Cu4   O40   S    
C11   C75   S    
C6    C147  A    
C45   H101  S    
C4    C145  A    
C49   H109  S    
C56   C58   S    
C87   O39   A    
C93   O21   A    
C61   C62   S    
Cu11  O21   S    
C23   H59   S    
C62   H12   S    
C104  C113  T    
C93   O19   A    
C76   N14   A    
C53   H128  S    
C12   C158  A    
Cu3   O36   S    
C119  C127  T    
C45   H100  S    
C106  O7    A    
C132  C149  A    
C12   C74   S    
C13   C90   S    
C81   O33   A    
C41   C42   S    
C142  C159  A    
C27   H67   S    
C46   C142  A    
C25   H57   S    
C68   C96   S    
C106  O48   A    
C19   H39   S    
C33   H82   S    
C90   O16   A    
C72   N4    A    
C30   C31   S    
C155  H85   S    
C56   H9    S    
C61   H15   S    
C128  O5    A    
C18   C19   S    
Cu5   O12   S    
C28   H66   S    
C76   N12   A    
C55   H125  S    
C18   H43   S    
C26   H56   S    
C78   N10   A    
C159  H2    S    
C27   H68   S    
C69   H28   S    
C89   O13   A    
C17   H44   S    
C121  C130  T    
C35   C92   S    
Cu8   Cu10  S    
C17   C132  S    
Cu9   O26   S    
C14   C72   S    
C7    H37   S    
C48   H111  S    
C94   O22   A    
C65   H21   S    
C2    C133  A    
C85   O37   A    
C30   H75   S    
Cu4   O42   S    
C21   H50   S    
C38   H89   S    
C71   N7    A    
C95   C100  S    
C39   H84   S    
C58   C59   S    
C98   C107  T    
C19   H40   S    
C60   C61   S    
C2    C89   S    
C136  C154  A    
Cu8   O48   S    
C134  C152  A    
C79   O27   A    
C36   H77   S    
C12   C160  A    
C42   H93   S    
C4    H34   S    
C3    C14   A    
C39   H87   S    
Cu9   O2    S    
Cu3   O39   S    
C42   H92   S    
C7    C16   A    
Cu11  O4    S    
Cu9   O8    S    
C152  H52   S    
C43   C141  S    
Cu2   O35   S    
C139  O4    A    
C22   H48   S    
C115  C124  T    
C84   C99   S    
C88   C150  S    
C3    C144  A    
C90   O14   A    
Cu6   O46   S    
C15   C71   S    
C3    H24   S    
C63   H26   S    
C64   C65   S    
C108  C116  S    
C50   H121  S    
C8    C149  A    
C51   H120  S    
Cu10  O25   S    
N1    N6    A    
C26   H54   S    
C20   H51   S    
C95   O47   A    
N7    N11   A    
Cu8   O18   S    
C29   H62   S    
C141  C158  A    
C44   H103  S    
Cu12  O30   S    
N2    N12   A    
Cu6   O11   S    
C54   H127  S    
C35   C143  A    
C86   O42   A    
C78   N1    A    
C69   H29   S    
C32   H69   S    
Cu3   Cu4   S    
C71   N5    A    
C83   C131  S    
C46   C93   S    
C47   C142  S    
C83   O40   A    
C84   O44   A    
Cu2   O32   S    
C134  C150  A    
Cu1   O14   S    
C36   H79   S    
C153  H63   S    
C5    C16   A    
C6    C15   A    
Cu3   O37   S    
C10   C76   S    
Cu10  O3    S    
C116  C125  T    
C60   H17   S    
Cu10  O20   S    
C58   H7    S    
Cu6   O23   S    
C34   C36   S    
C23   H60   S    
Cu2   O33   S    
C22   H46   S    
C84   O23   A    
C80   O28   A    
Cu12  O28   S    
C8    C78   S    
C89   O10   A    
Cu10  O7    S    
C50   C51   S    
C81   C124  S    
C105  C114  S    
C59   H5    S    
C96   O26   A    
C47   H113  S    
C10   C156  A    
N13   N16   A    
N3    N15   A    
C20   H53   S    
C63   C64   S    
C111  C120  S    
C67   C69   S    
C37   H91   S    
C29   H64   S    
C140  C157  A    
C47   C48   S    
C65   H20   S    
C33   C34   S    
Cu2   Cu12  S    
C103  C128  S    
C70   N8    A    
C55   H124  S    
C35   C141  A    
C40   C41   S    
C79   C126  S    
C32   H71   S    
C20   C133  S    
C13   C136  A    
C85   C127  S    
C24   C91   S    
C17   H45   S    
C50   C143  S    
Cu7   O45   S    
C7    C148  A    
C40   H99   S    
C138  C156  A    
C48   C49   S    
C5    C146  A    
C87   O41   A    
C44   C45   S    
Cu1   Cu6   S    
C68   C148  A    
C88   O9    A    
C86   C129  S    
N4    N14   A    
C11   C155  A    
C79   O31   A    
C135  C153  A    
C4    C15   A    
C67   H30   S    
C43   H106  S    
C56   H10   S    
C149  H1    S    
C23   C25   S    
C73   O12   A    
C27   C28   S    
C69   H27   S    
C31   H73   S    
C34   H80   S    
C118  C126  T    
