data_mof_unit_68562.cif
_audit_creation_date              2012-12-11T16:54:02-0500
_audit_creation_method            fapswitch 2.2
_symmetry_space_group_name_H-M    P1
_symmetry_Int_Tables_number       1
_space_group_crystal_system       triclinic
_cell_length_a                    8.210742
_cell_length_b                    12.748043
_cell_length_c                    16.326576
_cell_angle_alpha                 95.465428
_cell_angle_beta                  92.536261
_cell_angle_gamma                 97.92442
_cell_volume                      1682.04759623

loop_
_atom_site_label
_atom_site_type_symbol
_atom_type_description
_atom_site_fract_x
_atom_site_fract_y
_atom_site_fract_z
_atom_type_partial_charge
Ba1   Ba    Ba6+2 0.162890 0.552530 0.460820 1.359032
Ba2   Ba    Ba6+2 0.647290 0.447460 0.539110 1.335371
C1    C     C_3   0.435654 0.799419 0.145881 0.424680
C2    C     C_R   0.732315 0.816025 0.470851 -0.253960
C3    C     C_R   0.707284 0.993251 0.435128 0.571786
C4    C     C_3   0.954087 0.840889 0.259498 0.737054
C5    C     C_R   0.641760 0.886088 0.435027 -0.069917
C6    C     C_R   0.884433 0.851076 0.512896 0.054838
C7    C     C_R   0.947741 0.963147 0.520010 -0.122255
C8    C     C_R   0.857883 0.035999 0.480286 -0.114305
C9    C     C_R   0.921373 0.148341 0.488789 0.110763
C10   C     C_R   0.162937 0.112735 0.568221 -0.022963
C11   C     C_R   0.099480 0.004192 0.563765 -0.031491
C12   C     C_3   0.448969 0.776218 0.235632 0.238737
C13   C     C_R   0.630922 0.536856 0.266273 -0.280785
C14   C     C_R   0.473511 0.485418 0.241407 0.014302
C15   C     C_R   0.415550 0.481729 0.159016 -0.112547
C16   C     C_3   0.891105 0.917568 0.202472 0.260950
C17   C     C_R   0.518069 0.526847 0.100363 0.276942
C18   C     C_R   0.680613 0.572223 0.125831 -0.211212
C19   C     C_R   0.736227 0.577359 0.208699 -0.011432
C20   C     C_R   0.376990 0.534920 0.855028 -0.192063
C21   C     C_R   0.329591 0.523046 0.771195 0.016138
C22   C     C_R   0.268214 0.492457 0.912244 0.223370
C23   C     C_3   0.529644 0.777587 0.649122 0.237836
C24   C     C_R   0.177182 0.466906 0.742766 -0.376891
C25   C     C_R   0.064316 0.429828 0.797956 -0.069541
C26   C     C_R   0.108413 0.443682 0.883026 0.467424
C27   C     C_3   0.755078 0.308163 0.291758 0.399562
C28   C     C_3   0.699887 0.268808 0.202061 0.331001
C29   C     C_3   0.007764 0.679117 0.709115 0.310930
C30   C     C_3   0.959698 0.696925 0.797811 -0.400781
C31   C     C_3   0.267620 0.231769 0.367531 0.260292
C32   C     C_3   0.234632 0.111524 0.349395 -0.320487
C33   C     C_3   0.911588 0.303592 0.114605 0.271114
C34   C     C_3   0.527754 0.898655 0.665706 0.244559
C35   C     C_3   0.064253 0.263609 0.081696 -0.290636
C36   C     C_3   0.336338 0.914531 0.766141 0.346633
C37   C     C_3   0.317991 0.921767 0.858929 -0.429972
C38   C     C_3   0.763565 0.082317 0.915751 0.218930
C39   C     C_3   0.724911 0.019729 0.989460 -0.302816
C40   C     C_3   0.125179 0.994102 0.142977 0.296154
C41   C     C_3   0.209582 0.001359 0.062100 -0.323274
C42   C     C_3   0.949839 0.184506 0.779748 0.355338
C43   C     C_3   0.916145 0.068377 0.798724 0.255069
C44   C     C_3   0.381896 0.236500 0.764223 0.392778
C45   C     C_3   0.379922 0.215443 0.854168 -0.378478
C46   C     C_R   0.069789 0.183484 0.534758 -0.306251
F1    F     F_    0.277507 0.765080 0.112583 -0.662795
F2    F     F_    0.621896 0.052486 0.389413 -0.705168
F3    F     F_    0.996865 0.409007 0.936741 -0.734011
H1    H     H_    0.371175 0.698981 0.241163 0.103998
H2    H     H_    0.367806 0.251727 0.416338 0.111958
H3    H     H_    0.114387 0.088439 0.314580 0.057626
H4    H     H_    0.230414 0.073452 0.407480 0.114601
H5    H     H_    0.333766 0.082623 0.313133 0.179514
H6    H     H_    0.579106 0.768921 0.252214 0.058590
H7    H     H_    0.521442 0.756417 0.109580 -0.008776
H8    H     H_    0.652089 0.761386 0.628099 -0.024991
H9    H     H_    0.434435 0.746666 0.598710 0.048635
H10   H     H_    0.649229 0.940675 0.649331 0.022565
H11   H     H_    0.434163 0.925505 0.623287 0.005737
H12   H     H_    0.595004 0.203511 0.201603 0.071685
H13   H     H_    0.468549 0.885946 0.140789 0.018735
H14   H     H_    0.761189 0.887016 0.183202 0.011826
H15   H     H_    0.996870 0.184399 0.716860 -0.111465
H16   H     H_    0.044278 0.226656 0.826418 0.017872
H17   H     H_    0.804267 0.025001 0.763675 0.094319
H18   H     H_    0.019163 0.028135 0.775355 -0.010732
H19   H     H_    0.262898 0.260916 0.745640 -0.096792
H20   H     H_    0.479362 0.303398 0.758434 0.122612
H21   H     H_    0.281934 0.148426 0.862193 0.107788
H22   H     H_    0.354593 0.287568 0.892766 0.081592
H23   H     H_    0.651035 0.332856 0.170845 -0.143168
H24   H     H_    0.057408 0.884599 0.300782 0.030452
H25   H     H_    0.501811 0.196819 0.875451 0.123366
H26   H     H_    0.171262 0.952423 0.593329 0.069538
H27   H     H_    0.118926 0.267253 0.540408 0.079091
H28   H     H_    0.680928 0.732828 0.468069 0.096273
H29   H     H_    0.497142 0.578256 0.875091 0.130979
H30   H     H_    0.762665 0.604605 0.081439 0.141297
H31   H     H_    0.292277 0.443094 0.141222 0.111466
H32   H     H_    0.674755 0.540321 0.330094 0.095680
H33   H     H_    0.853673 0.813497 0.299398 -0.825195
H34   H     H_    0.134940 0.660586 0.708363 -0.030349
H35   H     H_    0.142630 0.457211 0.677443 0.114855
H36   H     H_    0.888745 0.997494 0.236219 0.022482
H37   H     H_    0.649224 0.335182 0.322880 -0.069952
H38   H     H_    0.857023 0.375578 0.293982 -0.008133
H39   H     H_    0.950951 0.379987 0.153091 0.077191
H40   H     H_    0.830228 0.317195 0.061561 0.104863
H41   H     H_    0.028657 0.188945 0.041093 0.123587
H42   H     H_    0.130547 0.322382 0.044762 0.145042
H43   H     H_    0.148935 0.250599 0.133592 0.105082
H44   H     H_    0.274684 0.835527 0.739420 0.079240
H45   H     H_    0.922913 0.609688 0.679481 0.098052
H46   H     H_    0.271385 0.975009 0.739613 0.056041
H47   H     H_    0.392126 0.994642 0.890166 0.131030
H48   H     H_    0.186941 0.924855 0.872098 0.123817
H49   H     H_    0.358991 0.851478 0.884646 0.146985
H50   H     H_    0.657214 0.060331 0.869995 0.112116
H51   H     H_    0.774778 0.169121 0.935742 0.103081
H52   H     H_    0.821448 0.045106 0.040025 0.174811
H53   H     H_    0.602960 0.035023 0.012008 0.058423
H54   H     H_    0.719728 0.932358 0.971629 0.154210
H55   H     H_    0.210597 0.966517 0.188319 0.090292
H56   H     H_    0.055670 0.753254 0.834729 0.117027
H57   H     H_    0.099620 0.074967 0.165368 0.051317
H58   H     H_    0.127838 0.029439 0.015537 0.154074
H59   H     H_    0.326474 0.057906 0.072006 0.039345
H60   H     H_    0.237599 0.921847 0.037509 0.196649
H61   H     H_    0.945559 0.620897 0.826083 0.104658
H62   H     H_    0.840759 0.729054 0.799685 0.169704
H63   H     H_    0.155260 0.261118 0.389456 0.018037
N1    N     N_2   0.466068 0.525356 0.015526 -0.223490
N2    N     N_2   0.315670 0.496007 0.998055 -0.186917
O1    O     O_2   0.158840 0.763480 0.539220 -0.476376
O2    O     O_2   0.724800 0.425347 0.790199 -0.456075
O3    O     O_3   0.807036 0.233429 0.782363 -0.589719
O4    O     O_3   0.888900 0.629060 0.541050 -0.475583
O5    O     O_3   0.432390 0.444990 0.403690 -0.478612
O6    O     O_2   0.627510 0.552390 0.696520 -0.452340
O7    O     O_3   0.498733 0.728976 0.721385 -0.609076
O8    O     O_2   0.507962 0.114449 0.564526 -0.463587
O9    O     O_3   0.412870 0.145735 0.714911 -0.587472
O10   O     O_3   0.391330 0.697380 0.393380 -0.481672
O11   O     O_2   0.298650 0.883797 0.437313 -0.474536
O12   O     O_3   0.311841 0.276425 0.295301 -0.643188
O13   O     O_3   0.000647 0.772882 0.671167 -0.653358
O14   O     O_3   0.396035 0.858487 0.286943 -0.585929
O15   O     O_2   0.182780 0.447540 0.303450 -0.448911
O16   O     O_3   0.969510 0.643060 0.352850 -0.433329
O17   O     O_2   0.070894 0.564369 0.209757 -0.461166
O18   O     O_3   0.829001 0.227121 0.161074 -0.652156
O19   O     O_3   0.505450 0.929986 0.749904 -0.602633
O20   O     O_3   0.914402 0.058986 0.884563 -0.648328
O21   O     O_3   0.978025 0.921648 0.129521 -0.603935
O22   O     O_3   0.013652 0.758385 0.211364 -0.515658
O23   O     O_2   0.651450 0.236450 0.460750 -0.405162
O24   O     O_3   0.921400 0.370930 0.458880 -0.498266
O25   O     O_3   0.418970 0.302610 0.606550 -0.482373
O26   O     O_3   0.808316 0.223873 0.329255 -0.580026
O27   O     O_3   0.377910 0.555000 0.596240 -0.466108
O28   O     O_3   0.840790 0.356930 0.647080 -0.462365
P1    P     P_3+3 0.983580 0.746680 0.563420 0.993162
P2    P     P_3+3 0.350740 0.415080 0.315970 0.993601
P3    P     P_3+3 0.946761 0.634560 0.245239 1.098761
P4    P     P_3+3 0.826720 0.253310 0.436510 1.096248
P5    P     P_3+3 0.859940 0.363505 0.755311 1.005646
P6    P     P_3+3 0.432567 0.834176 0.389529 1.037161
P7    P     P_3+3 0.455308 0.591400 0.697949 0.979579
P8    P     P_3+3 0.374579 0.165720 0.611654 0.956379

loop_
_geom_bond_atom_site_label_1
_geom_bond_atom_site_label_2
_ccdc_geom_bond_type
O3    P5    S    
C32   H5    S    
C29   H34   S    
C16   O21   S    
Ba2   O28   S    
C10   P8    S    
C44   O9    S    
C42   H15   S    
C6    P1    S    
C10   C46   A    
Ba1   O16   S    
O24   P4    S    
C27   H38   S    
C1    F1    S    
C4    H24   S    
C1    H13   S    
C16   H14   S    
C38   O20   S    
C31   H63   S    
O28   P5    S    
C39   H54   S    
Ba2   O23   S    
C19   P3    S    
O1    P1    D    
C33   C35   S    
C45   H25   S    
C15   H31   S    
C36   H46   S    
O11   P6    D    
C36   C37   S    
C28   H23   S    
C26   F3    S    
C9    P4    S    
Ba2   P4    S    
C29   H45   S    
O15   P2    D    
C14   P2    S    
Ba1   Ba2   S    
C21   C24   A    
C46   H27   S    
C7    C11   A    
C27   H37   S    
C38   H50   S    
Ba1   P1    S    
C12   H1    S    
C17   C18   A    
C6    C7    A    
C28   O18   S    
C30   H56   S    
C36   H44   S    
O14   P6    S    
O17   P3    D    
C23   H9    S    
C30   H62   S    
C7    C8    A    
O13   P1    S    
C2    C6    A    
O27   P7    S    
O8    P8    D    
C32   H4    S    
C25   P5    S    
C28   H12   S    
C40   O21   S    
Ba2   O27   S    
Ba1   P2    S    
C41   H60   S    
C2    C5    A    
C34   H11   S    
C33   O18   S    
C11   H26   S    
Ba2   O6    S    
C31   H2    S    
C4    C16   S    
O7    P7    S    
O23   P4    D    
C4    H33   S    
C13   C14   A    
C43   H18   S    
O26   P4    S    
Ba1   O10   S    
C45   H22   S    
C2    H28   S    
C3    C5    A    
Ba2   O4    S    
C14   C15   A    
C37   H47   S    
C13   H32   S    
C42   O3    S    
C31   O12   S    
C39   H52   S    
Ba1   O4    S    
C4    O22   S    
O2    P5    D    
C33   H39   S    
C27   C28   S    
Ba1   O27   S    
O9    P8    S    
C5    P6    S    
C40   H55   S    
C37   H48   S    
C29   C30   S    
C17   N1    S    
O22   P3    S    
C24   H35   S    
C43   H17   S    
C31   C32   S    
C24   C25   A    
C35   H42   S    
Ba1   O1    S    
C36   O19   S    
C10   C11   A    
C9    C46   A    
C23   O7    S    
C44   H20   S    
Ba1   O24   S    
C38   C39   S    
C41   H59   S    
C32   H3    S    
C20   C22   A    
C3    F2    S    
C40   C41   S    
C34   H10   S    
C34   O19   S    
C42   C43   S    
C12   O14   S    
Ba2   O5    S    
C12   H6    S    
C21   P7    S    
C44   C45   S    
C43   O20   S    
C30   H61   S    
C35   H41   S    
O5    P2    S    
O16   P3    S    
C22   C26   A    
Ba1   O15   S    
C22   N2    S    
C1    C12   S    
C23   H8    S    
C16   H36   S    
C39   H53   S    
Ba2   O24   S    
O6    P7    D    
C20   H29   S    
C3    C8    A    
C29   O13   S    
O10   P6    S    
O12   P2    S    
C37   H49   S    
C13   C19   A    
C27   O26   S    
C15   C17   A    
C35   H43   S    
Ba1   O5    S    
C45   H21   S    
C44   H19   S    
C8    C9    A    
C23   C34   S    
C38   H51   S    
C1    H7    S    
O4    P1    S    
C18   C19   A    
C25   C26   A    
Ba2   O25   S    
C20   C21   A    
C42   H16   S    
C41   H58   S    
C18   H30   S    
C40   H57   S    
N1    N2    D    
O25   P8    S    
C33   H40   S    
