data_mof_unit_15991.cif
_audit_creation_date              2012-12-10T19:16:08-0500
_audit_creation_method            fapswitch 2.2
_symmetry_space_group_name_H-M    P1
_symmetry_Int_Tables_number       1
_space_group_crystal_system       triclinic
_cell_length_a                    14.741653
_cell_length_b                    15.848135
_cell_length_c                    15.986033
_cell_angle_alpha                 89.849056
_cell_angle_beta                  89.477324
_cell_angle_gamma                 69.764787
_cell_volume                      3504.12560445

loop_
_atom_site_label
_atom_site_type_symbol
_atom_type_description
_atom_site_fract_x
_atom_site_fract_y
_atom_site_fract_z
_atom_type_partial_charge
C1    C     C_R   0.500405 0.500043 0.340878 0.824095
C2    C     C_R   0.499582 0.499988 0.659129 0.824511
C3    C     C_R   0.615830 0.903155 0.512051 -0.231521
C4    C     C_R   0.394130 0.091410 0.449013 -0.229188
C5    C     C_R   0.680969 0.947179 0.524929 -0.228968
C6    C     C_R   0.329319 0.047009 0.436032 -0.228410
C7    C     C_R   0.564661 0.528120 0.952974 -0.239216
C8    C     C_R   0.434803 0.472872 0.047087 -0.239010
C9    C     C_R   0.498087 0.497479 0.912700 0.089602
C10   C     C_R   0.501414 0.503441 0.087353 0.089810
C11   C     C_R   0.432145 0.469208 0.959670 0.015832
C12   C     C_R   0.567283 0.531812 0.040399 0.015808
C13   C     C_1   0.497649 0.498658 0.823088 -0.071568
C14   C     C_1   0.502046 0.501968 0.176949 -0.071794
C15   C     C_1   0.501348 0.500878 0.251926 -0.193216
C16   C     C_1   0.498508 0.499453 0.748099 -0.192010
C17   C     C_R   0.936659 0.538442 0.567161 -0.047810
C18   C     C_R   0.063158 0.462183 0.431744 -0.048060
C19   C     C_R   0.902682 0.500536 0.499341 -0.076480
C20   C     C_R   0.097268 0.499636 0.499857 -0.076447
C21   C     C_R   0.966528 0.461593 0.431859 -0.041020
C22   C     C_R   0.033305 0.538816 0.567156 -0.041121
C23   C     C_R   0.558397 0.327157 0.502790 0.791472
C24   C     C_R   0.441673 0.672723 0.496517 0.792541
C25   C     C_1   0.802603 0.499838 0.500040 0.165790
C26   C     C_1   0.197398 0.500176 0.499582 0.166104
C27   C     C_R   0.594581 0.228169 0.508236 -0.101572
C28   C     C_R   0.406321 0.770933 0.484474 -0.100303
C29   C     C_R   0.717641 0.083476 0.536328 -0.244836
C30   C     C_R   0.288750 0.912178 0.438513 -0.244986
C31   C     C_R   0.689592 0.177224 0.533736 -0.006335
C32   C     C_R   0.314033 0.819657 0.451682 -0.009475
C33   C     C_R   0.529965 0.184251 0.488376 -0.275950
C34   C     C_R   0.470826 0.815693 0.501680 -0.273747
C35   C     C_R   0.556020 0.090414 0.493732 0.088375
C36   C     C_R   0.449369 0.906855 0.482038 0.088452
C37   C     C_R   0.651781 0.040233 0.517920 0.152492
C38   C     C_R   0.355540 0.955548 0.452521 0.150598
C39   C     C_R   0.489077 0.045395 0.477938 0.071822
C40   C     C_R   0.518225 0.950888 0.491514 0.071929
Cu1   Cu    Cu3+1 0.589210 0.500030 0.500000 0.980509
Cu2   Cu    Cu3+1 0.410790 0.499970 0.500000 0.979825
H1    H     H_    0.754707 0.907923 0.541611 0.135085
H2    H     H_    0.257757 0.084890 0.413020 0.136826
H3    H     H_    0.537781 0.777401 0.531217 0.153131
H4    H     H_    0.458421 0.225785 0.470401 0.156036
H5    H     H_    0.790335 0.044219 0.555952 0.131924
H6    H     H_    0.217721 0.949902 0.414225 0.132853
H7    H     H_    0.645340 0.831040 0.517088 0.135212
H8    H     H_    0.367270 0.161781 0.433811 0.132294
H9    H     H_    0.613970 0.550574 0.915821 0.142813
H10   H     H_    0.385509 0.450412 0.084247 0.142376
N1    N     N_1   0.276700 0.500030 0.499980 -0.146081
N2    N     N_1   0.723300 0.499970 0.500020 -0.146187
O1    O     O_R   0.575310 0.500040 0.380310 -0.570615
O2    O     O_R   0.424690 0.499960 0.619690 -0.570566
O3    O     O_R   0.424640 0.500000 0.380310 -0.566522
O4    O     O_R   0.575360 0.500000 0.619690 -0.565907
O5    O     O_R   0.617590 0.370200 0.500000 -0.559673
O6    O     O_R   0.382410 0.629800 0.500000 -0.560246
O7    O     O_R   0.466910 0.370160 0.500000 -0.583966
O8    O     O_R   0.533090 0.629840 0.500000 -0.582918
C41   C     C_R   0.244090 0.776228 0.426960 0.124854
C42   C     C_R   0.264078 0.716983 0.358428 -0.096313
C43   C     C_R   0.198278 0.675386 0.335761 -0.113452
C44   C     C_R   0.111619 0.693734 0.380423 -0.122537
C45   C     C_R   0.090686 0.753564 0.447862 -0.133202
C46   C     C_R   0.156577 0.794813 0.471152 -0.141099
H11   H     H_    0.330943 0.702430 0.323292 0.100257
H12   H     H_    0.214463 0.628937 0.283610 0.132362
H13   H     H_    0.060681 0.661606 0.362849 0.122342
H14   H     H_    0.023334 0.768026 0.482026 0.120342
H15   H     H_    0.139775 0.840690 0.523802 0.123270
C47   C     C_R   0.759437 0.219228 0.562454 0.126092
C48   C     C_R   0.846706 0.204043 0.518679 -0.141685
C49   C     C_R   0.912051 0.244454 0.545455 -0.131723
C50   C     C_R   0.890794 0.300223 0.615859 -0.121493
C51   C     C_R   0.804562 0.314967 0.660244 -0.114853
C52   C     C_R   0.739420 0.274009 0.634218 -0.098313
H16   H     H_    0.863667 0.161615 0.463581 0.123417
H17   H     H_    0.979214 0.232549 0.511653 0.121554
H18   H     H_    0.941177 0.331940 0.636017 0.121550
H19   H     H_    0.788178 0.358158 0.714783 0.129488
H20   H     H_    0.672862 0.285853 0.669190 0.099068
C53   C     C_R   0.639440 0.565069 0.080123 0.107646
C54   C     C_R   0.611141 0.632879 0.141521 -0.136205
C55   C     C_R   0.679468 0.664211 0.177815 -0.147718
C56   C     C_R   0.776275 0.629224 0.152427 -0.121889
C57   C     C_R   0.804971 0.562848 0.090637 -0.131816
C58   C     C_R   0.737037 0.530877 0.054545 -0.182927
H21   H     H_    0.536135 0.662213 0.160761 0.126059
H22   H     H_    0.657240 0.715971 0.225392 0.131398
H23   H     H_    0.829065 0.653477 0.180678 0.118252
H24   H     H_    0.880001 0.535737 0.071055 0.125632
H25   H     H_    0.760757 0.478844 0.007244 0.122688
C59   C     C_R   0.359877 0.436043 0.920023 0.107964
C60   C     C_R   0.388028 0.368181 0.858674 -0.136095
C61   C     C_R   0.319605 0.336834 0.822579 -0.148056
C62   C     C_R   0.222855 0.371851 0.848124 -0.121942
C63   C     C_R   0.194306 0.438282 0.909867 -0.132521
C64   C     C_R   0.262330 0.470275 0.945753 -0.183445
H26   H     H_    0.462997 0.338784 0.839351 0.125710
H27   H     H_    0.341721 0.285021 0.775049 0.130364
H28   H     H_    0.169999 0.347569 0.820038 0.118117
H29   H     H_    0.119325 0.465406 0.929586 0.125650
H30   H     H_    0.238724 0.522329 0.993043 0.122862
C65   C     C_R   0.065908 0.585628 0.635020 0.111974
C66   C     C_R   0.146707 0.539107 0.683806 -0.140042
C67   C     C_R   0.181197 0.585097 0.743002 -0.098281
C68   C     C_R   0.133969 0.677161 0.755616 -0.123757
C69   C     C_R   0.052605 0.723651 0.708464 -0.139310
C70   C     C_R   0.018877 0.678288 0.648140 -0.124409
H31   H     H_    0.183947 0.467672 0.674873 0.123805
H32   H     H_    0.245011 0.549533 0.778651 0.158728
H33   H     H_    0.160691 0.712529 0.801659 0.125056
H34   H     H_    0.016273 0.795072 0.717994 0.123967
H35   H     H_    0.956948 0.715588 0.610873 0.111702
C71   C     C_R   0.933734 0.415198 0.363713 0.111824
C72   C     C_R   0.981880 0.322981 0.348988 -0.125042
C73   C     C_R   0.948117 0.277949 0.288388 -0.140894
C74   C     C_R   0.865673 0.324324 0.242465 -0.123541
C75   C     C_R   0.817429 0.415972 0.256539 -0.097175
C76   C     C_R   0.851926 0.461660 0.316009 -0.139865
H36   H     H_    0.044759 0.285725 0.385205 0.112189
H37   H     H_    0.985298 0.206855 0.277677 0.123274
H38   H     H_    0.838951 0.289195 0.196199 0.125135
H39   H     H_    0.752867 0.451460 0.221768 0.158566
H40   H     H_    0.813950 0.532817 0.325943 0.123720
C77   C     C_R   0.871881 0.574002 0.640349 0.122005
C78   C     C_R   0.893541 0.530951 0.718327 -0.137130
C79   C     C_R   0.831038 0.562652 0.786571 -0.143866
C80   C     C_R   0.746724 0.637438 0.777436 -0.103328
C81   C     C_R   0.724954 0.680896 0.700118 -0.120965
C82   C     C_R   0.787290 0.649452 0.631764 -0.151106
H41   H     H_    0.958268 0.472505 0.725949 0.111633
H42   H     H_    0.847757 0.529059 0.846469 0.119478
H43   H     H_    0.698291 0.661688 0.830269 0.123254
H44   H     H_    0.659680 0.738825 0.693063 0.125013
H45   H     H_    0.769662 0.683506 0.572119 0.108237
C83   C     C_R   0.127355 0.428156 0.357847 0.122176
C84   C     C_R   0.103607 0.471536 0.280160 -0.139229
C85   C     C_R   0.165333 0.441433 0.211188 -0.146709
C86   C     C_R   0.250988 0.367896 0.219249 -0.102134
C87   C     C_R   0.274873 0.324075 0.296214 -0.122263
C88   C     C_R   0.213290 0.353884 0.365315 -0.153439
H46   H     H_    0.037801 0.529032 0.273300 0.112095
H47   H     H_    0.146956 0.475308 0.151552 0.119825
H48   H     H_    0.298815 0.344867 0.165850 0.123297
H49   H     H_    0.341221 0.267130 0.302360 0.123046
H50   H     H_    0.232557 0.319481 0.424659 0.110436

loop_
_geom_bond_atom_site_label_1
_geom_bond_atom_site_label_2
_ccdc_geom_bond_type
C11   C59   S    
C55   C56   A    
C5    C37   A    
C18   C21   A    
Cu1   Cu2   S    
C78   H41   S    
C60   C61   A    
C3    H7    S    
C58   H25   S    
C50   C51   A    
C27   C33   A    
C23   O5    A    
C63   H29   S    
C87   H49   S    
C12   C53   S    
C29   H5    S    
C30   H6    S    
C35   C37   A    
Cu1   O4    S    
C54   H21   S    
Cu2   N1    S    
C53   C54   A    
C70   H35   S    
C43   H12   S    
C57   H24   S    
C66   C67   A    
C30   C38   A    
C45   H14   S    
C65   C70   A    
C75   H39   S    
C9    C13   S    
C71   C72   A    
Cu1   O1    S    
Cu2   O2    S    
C68   C69   A    
C51   H19   S    
C69   C70   A    
C80   C81   A    
C61   H27   S    
C65   C66   A    
C6    C38   A    
C69   H34   S    
C1    C15   S    
C23   C27   S    
C2    C16   S    
C48   H16   S    
C8    H10   S    
C18   C20   A    
C60   H26   S    
C44   C45   A    
C5    H1    S    
C28   C34   A    
C81   H44   S    
C6    H2    S    
C59   C64   A    
C33   H4    S    
C22   C65   S    
C7    C12   A    
Cu1   O8    S    
Cu2   O3    S    
C83   C84   A    
C86   H48   S    
C47   C48   A    
C27   C31   A    
C45   C46   A    
C24   C28   S    
C36   C40   A    
C49   C50   A    
Cu1   O5    S    
C4    C6    A    
C79   H42   S    
C10   C14   S    
Cu2   O6    S    
C82   H45   S    
C54   C55   A    
C17   C19   A    
C31   C47   S    
C80   H43   S    
C72   H36   S    
C17   C77   S    
C41   C42   A    
C4    H8    S    
C66   H31   S    
C49   H17   S    
C35   C39   A    
C48   C49   A    
C21   C71   S    
C1    O3    A    
C44   H13   S    
C14   C15   T    
C4    C39   A    
C28   C32   A    
C24   O6    A    
C59   C60   A    
C34   H3    S    
C42   H11   S    
C25   N2    T    
C72   C73   A    
C18   C83   S    
C9    C11   A    
Cu2   O7    S    
C74   C75   A    
C10   C12   A    
C84   H46   S    
C67   H32   S    
C20   C22   A    
C3    C40   A    
C61   C62   A    
C47   C52   A    
C81   C82   A    
C79   C80   A    
C57   C58   A    
C26   N1    T    
C39   C40   A    
C55   H22   S    
C73   C74   A    
C77   C78   A    
C64   H30   S    
C7    C9    A    
C56   H23   S    
C24   O8    A    
C19   C21   A    
C51   C52   A    
C85   H47   S    
C88   H50   S    
C32   C41   S    
C87   C88   A    
C3    C5    A    
C83   C88   A    
C53   C58   A    
C2    O4    A    
C41   C46   A    
C17   C22   A    
C62   C63   A    
C42   C43   A    
C36   C38   A    
C78   C79   A    
C46   H15   S    
C7    H9    S    
C74   H38   S    
C29   C31   A    
C2    O2    A    
C84   C85   A    
C30   C32   A    
C76   H40   S    
C52   H20   S    
C20   C26   S    
C50   H18   S    
C8    C11   A    
C63   C64   A    
C33   C35   A    
C62   H28   S    
C34   C36   A    
C71   C76   A    
C73   H37   S    
C1    O1    A    
C19   C25   S    
Cu1   N2    S    
C77   C82   A    
C23   O7    A    
C56   C57   A    
C8    C10   A    
C43   C44   A    
C13   C16   T    
C29   C37   A    
C85   C86   A    
C75   C76   A    
C67   C68   A    
C68   H33   S    
C86   C87   A    
