data_mof_unit_46416.cif
_audit_creation_date              2012-12-11T15:12:50-0500
_audit_creation_method            fapswitch 2.2
_symmetry_space_group_name_H-M    P1
_symmetry_Int_Tables_number       1
_space_group_crystal_system       triclinic
_cell_length_a                    21.975895
_cell_length_b                    7.162262
_cell_length_c                    19.856252
_cell_angle_alpha                 89.998012
_cell_angle_beta                  99.035951
_cell_angle_gamma                 90.002021
_cell_volume                      3086.53161396

loop_
_atom_site_label
_atom_site_type_symbol
_atom_type_description
_atom_site_fract_x
_atom_site_fract_y
_atom_site_fract_z
_atom_type_partial_charge
O1    O     O_R   0.448420 0.506120 0.415750 -0.534710
O2    O     O_R   0.551580 0.006120 0.584250 -0.534700
O3    O     O_R   0.436490 0.174470 0.555610 -0.506273
O4    O     O_R   0.563510 0.674470 0.444390 -0.506269
C1    C     C_R   0.423638 0.344794 0.577671 0.743061
C2    C     C_R   0.576361 0.844803 0.422329 0.743042
O5    O     O_R   0.441310 0.176330 0.414520 -0.526646
O6    O     O_R   0.558690 0.676330 0.585480 -0.526650
O7    O     O_R   0.556430 0.007110 0.442150 -0.533056
O8    O     O_R   0.443570 0.507110 0.557850 -0.533050
C3    C     C_R   0.425159 0.344943 0.390644 0.806147
C4    C     C_R   0.574843 0.844943 0.609353 0.806149
O9    O     O_3   0.537770 0.339560 0.509230 -0.370493
O10   O     O_3   0.462230 0.839560 0.490770 -0.370498
V1    V     V_3+5 0.492990 0.064280 0.498290 1.646654
V2    V     V_3+5 0.507010 0.564280 0.501710 1.646647
C5    C     C_R   0.880154 0.861275 0.703703 -0.043408
C6    C     C_R   0.119846 0.361286 0.296299 -0.043411
H1    H     H_    0.965223 0.881014 0.773954 0.171898
H2    H     H_    0.034777 0.381009 0.226047 0.171911
C7    C     C_R   0.887516 0.936086 0.823456 -0.088471
C8    C     C_R   0.112484 0.436084 0.176543 -0.088477
C9    C     C_R   0.589298 0.861590 0.734994 0.109031
C10   C     C_R   0.410701 0.361564 0.265000 0.109046
C11   C     C_R   0.625098 0.847791 0.800039 -0.108307
C12   C     C_R   0.374898 0.347778 0.199958 -0.108297
C13   C     C_R   0.689673 0.830620 0.806300 0.262053
C14   C     C_R   0.310323 0.330627 0.193698 0.262006
C15   C     C_R   0.719798 0.860829 0.748823 -0.028731
C16   C     C_R   0.280200 0.360842 0.251176 -0.028708
C17   C     C_R   0.683361 0.848557 0.682337 -0.098812
C18   C     C_R   0.316639 0.348574 0.317663 -0.098807
C19   C     C_R   0.785502 0.886442 0.755172 0.080004
C20   C     C_R   0.214498 0.386454 0.244828 0.080011
C21   C     C_R   0.814728 0.874031 0.696378 -0.071880
C22   C     C_R   0.185273 0.374047 0.303623 -0.071887
C23   C     C_R   0.777920 0.875642 0.632113 0.222741
C24   C     C_R   0.222081 0.375671 0.367887 0.222735
C25   C     C_R   0.714992 0.839270 0.625306 0.199865
C26   C     C_R   0.285009 0.339298 0.374695 0.199881
C27   C     C_R   0.823065 0.935863 0.817440 -0.117198
C28   C     C_R   0.176936 0.435872 0.182559 -0.117185
C29   C     C_R   0.915446 0.894359 0.767275 -0.116548
C30   C     C_R   0.084554 0.394358 0.232725 -0.116537
C31   C     C_R   0.617176 0.850088 0.675891 -0.102820
C32   C     C_R   0.382824 0.350090 0.324106 -0.102838
H3    H     H_    0.803095 0.976210 0.861577 0.162676
H4    H     H_    0.196907 0.476230 0.138422 0.162680
C33   C     C_3   0.796888 0.732746 0.247081 0.028289
C34   C     C_3   0.203094 0.232780 0.752920 0.028233
C35   C     C_3   0.790618 0.079086 0.247247 0.391339
C36   C     C_3   0.209399 0.579111 0.752755 0.391262
C37   C     C_3   0.735636 0.078256 0.290544 0.073894
C38   C     C_3   0.264374 0.578247 0.709449 0.073866
H5    H     H_    0.702062 0.183398 0.267655 0.192999
H6    H     H_    0.297953 0.683394 0.732325 0.193094
C39   C     C_1   0.619944 0.859012 0.374584 0.012173
C40   C     C_1   0.380054 0.358980 0.625415 0.012159
C41   C     C_3   0.785935 0.904740 0.199465 -0.188177
C42   C     C_3   0.214065 0.404759 0.800536 -0.188089
C43   C     C_3   0.754041 0.731167 0.303684 0.114994
C44   C     C_3   0.245943 0.231170 0.696319 0.115009
C45   C     C_3   0.702046 0.884511 0.285511 -0.166934
C46   C     C_3   0.297952 0.384488 0.714488 -0.166841
C47   C     C_3   0.667985 0.862340 0.208190 -0.069246
C48   C     C_3   0.332013 0.362320 0.791810 -0.069277
C49   C     C_3   0.717811 0.881881 0.156303 0.408673
C50   C     C_3   0.282188 0.381856 0.843698 0.408682
C51   C     C_1   0.656268 0.874618 0.334513 0.206627
C52   C     C_1   0.343729 0.374577 0.665486 0.206634
C53   C     C_1   0.833866 0.915571 0.153267 0.234680
C54   C     C_1   0.166136 0.415610 0.846736 0.234667
C55   C     C_1   0.873260 0.933470 0.117104 -0.039316
C56   C     C_1   0.126742 0.433502 0.882899 -0.039323
H7    H     H_    0.780792 0.623035 0.212432 0.168912
H8    H     H_    0.219168 0.123043 0.787566 0.168948
O11   O     O_R   0.056480 0.288780 0.942210 -0.532337
O12   O     O_R   0.943520 0.788780 0.057790 -0.532339
O13   O     O_R   0.058700 0.616820 0.085490 -0.537630
O14   O     O_R   0.941300 0.116820 0.914510 -0.537632
C57   C     C_R   0.073107 0.448359 0.109995 0.704203
C58   C     C_R   0.926894 0.948360 0.890005 0.704198
O15   O     O_R   0.063520 0.618570 0.944410 -0.529183
O16   O     O_R   0.936480 0.118570 0.055590 -0.529173
O17   O     O_R   0.948420 0.787670 0.915740 -0.535544
O18   O     O_R   0.051580 0.287670 0.084260 -0.535543
C59   C     C_R   0.079233 0.449141 0.925578 0.705354
C60   C     C_R   0.920768 0.949132 0.074423 0.705357
O19   O     O_3   0.962260 0.453430 0.990800 -0.371350
O20   O     O_3   0.037740 0.953430 0.009200 -0.371352
V3    V     V_3+5 0.007000 0.728750 0.001710 1.560712
V4    V     V_3+5 0.993000 0.228750 0.998290 1.560712
Br1   Br    Br    0.883219 0.653283 0.275566 -0.286531
Br2   Br    Br    0.116752 0.153417 0.724430 -0.286594
Br3   Br    Br    0.792499 0.291840 0.188655 -0.453412
Br4   Br    Br    0.207559 0.791838 0.811358 -0.453437
Br5   Br    Br    0.871448 0.103993 0.305043 -0.213087
Br6   Br    Br    0.128569 0.604127 0.694969 -0.213190
Br7   Br    Br    0.755651 0.164189 0.386851 -0.265062
Br8   Br    Br    0.244366 0.664173 0.613137 -0.265114
Br9   Br    Br    0.717732 0.675092 0.090187 -0.266351
Br10  Br    Br    0.282252 0.175054 0.909807 -0.266415
Br11  Br    Br    0.695580 0.074088 0.085611 -0.190649
Br12  Br    Br    0.304440 0.574007 0.914405 -0.190595
C61   C     C_2   0.628861 0.684334 0.199254 0.589012
H9    H     H_    0.581461 0.688826 0.208434 0.116433
O21   O     O_2   0.649168 0.532349 0.186247 -0.464232
C62   C     C_2   0.371135 0.184320 0.800755 0.589176
H10   H     H_    0.418540 0.188827 0.791592 0.116395
O22   O     O_2   0.350822 0.032329 0.813751 -0.464182
C63   C     C_2   0.728678 0.540202 0.308491 0.534673
H11   H     H_    0.758678 0.430319 0.299324 0.110605
O23   O     O_2   0.680207 0.506397 0.328935 -0.495636
C64   C     C_2   0.271285 0.040187 0.691509 0.534605
H12   H     H_    0.241250 0.930321 0.700618 0.110731
O24   O     O_2   0.319776 0.006362 0.671114 -0.495653
Br13  Br    Br    0.808222 0.981969 0.554418 -0.300753
Br14  Br    Br    0.191783 0.482037 0.445576 -0.300780
Br15  Br    Br    0.602503 0.055719 0.190998 -0.392393
Br16  Br    Br    0.397497 0.555708 0.808995 -0.392426
C65   C     C_2   0.912385 0.784843 0.649288 0.577285
H13   H     H_    0.887709 0.698287 0.609190 0.105226
O25   O     O_2   0.967140 0.814473 0.649364 -0.441636
C66   C     C_2   0.087615 0.284855 0.350718 0.577281
H14   H     H_    0.112296 0.198355 0.390829 0.105246
O26   O     O_2   0.032855 0.314412 0.350626 -0.441652
Br17  Br    Br    0.500614 0.890525 0.726174 -0.503081
Br18  Br    Br    0.499385 0.390441 0.273812 -0.503055
Br19  Br    Br    0.731081 0.698819 0.886104 -0.415665
Br20  Br    Br    0.268910 0.198839 0.113895 -0.415727
C67   C     C_2   0.594285 0.845686 0.861557 0.620248
H15   H     H_    0.547931 0.791298 0.858919 0.115783
O27   O     O_2   0.619776 0.909609 0.915723 -0.437759
C68   C     C_2   0.405706 0.345630 0.138439 0.620310
H16   H     H_    0.452036 0.291049 0.141065 0.115760
O28   O     O_2   0.380234 0.409690 0.084287 -0.437770
Br21  Br    Br    0.683488 0.716876 0.541563 -0.442121
Br22  Br    Br    0.316510 0.216911 0.458441 -0.442147
Br23  Br    Br    0.802538 0.747773 0.395311 -0.190776
Br24  Br    Br    0.197449 0.247799 0.604690 -0.190841

loop_
_geom_bond_atom_site_label_1
_geom_bond_atom_site_label_2
_ccdc_geom_bond_type
C35   Br5   S    
C48   C50   S    
C45   C47   S    
O11   V4    S    
O4    V2    S    
C9    C31   A    
C13   C15   A    
O15   C59   A    
C63   H11   S    
O1    C3    A    
O2    C4    A    
C2    O7    A    
C25   Br21  S    
C64   H12   S    
O17   V3    S    
C49   Br11  S    
C37   Br7   S    
O5    C3    A    
C61   O21   D    
C41   C53   S    
C1    C40   S    
C66   O26   D    
C21   C23   A    
C50   Br10  S    
C44   C64   S    
C34   H8    S    
C42   C54   S    
C15   C19   A    
C62   H10   S    
C36   Br6   S    
C43   C45   S    
C44   C46   S    
C36   C42   S    
C41   C49   S    
C7    C29   A    
C8    C30   A    
C45   C51   S    
C36   C38   S    
C47   C49   S    
C20   C28   A    
C33   H7    S    
C46   C52   S    
C56   C59   S    
O19   V3    S    
O13   V3    S    
C57   O18   A    
O5    V1    S    
O6    V2    S    
C24   C26   A    
C48   Br16  S    
C2    C39   S    
C38   Br8   S    
C47   C61   S    
C12   C14   A    
H2    C30   S    
H1    C29   S    
C37   H5    S    
C47   Br15  S    
C38   H6    S    
C33   C43   S    
C16   C20   A    
C8    C57   S    
O16   C60   A    
C5    C21   A    
C54   C56   T    
C48   C62   S    
C53   C55   T    
C40   C52   T    
C68   O28   D    
O3    C1    A    
C26   Br22  S    
C35   C37   S    
C46   C48   S    
O14   V4    S    
C5    C29   A    
C55   C60   S    
C12   C68   S    
C6    C30   A    
O20   V4    S    
O6    C4    A    
C27   H3    S    
C63   O23   D    
O1    V2    S    
C28   H4    S    
O19   V4    S    
O2    V1    S    
O11   C59   A    
C65   H13   S    
C7    C27   A    
C5    C65   S    
O9    V1    S    
C39   C51   T    
C13   Br19  S    
O10   V2    S    
O4    C2    A    
C35   C41   S    
C67   H15   S    
C11   C67   S    
O3    V1    S    
C49   Br9   S    
C9    Br17  S    
O12   C60   A    
C18   C32   A    
C34   Br2   S    
C50   Br12  S    
C10   C12   A    
C4    C31   S    
C67   O27   D    
C64   O24   D    
C62   O22   D    
C68   H16   S    
O12   V3    S    
C11   C13   A    
C58   O17   A    
O15   V3    S    
C61   H9    S    
O13   C57   A    
C33   C41   S    
C33   Br1   S    
C34   C42   S    
C14   C16   A    
O7    V1    S    
C19   C27   A    
C1    O8    A    
C15   C17   A    
O8    V2    S    
C16   C18   A    
C37   C45   S    
C14   Br20  S    
O20   V3    S    
C8    C28   A    
C38   C46   S    
C34   C44   S    
C22   C24   A    
C19   C21   A    
O14   C58   A    
C17   C25   A    
C36   Br4   S    
C20   C22   A    
C18   C26   A    
C43   Br23  S    
C65   O25   D    
C24   Br14  S    
C9    C11   A    
C23   Br13  S    
C7    C58   S    
C42   C50   S    
C23   C25   A    
C17   C31   A    
O9    V2    S    
C35   Br3   S    
C10   Br18  S    
O10   V1    S    
C66   H14   S    
C3    C32   S    
O18   V4    S    
O16   V4    S    
C44   Br24  S    
C6    C22   A    
C6    C66   S    
C10   C32   A    
C43   C63   S    
