data_mof_unit_29391.cif
_audit_creation_date              2012-12-11T19:09:19-0500
_audit_creation_method            fapswitch 2.2
_symmetry_space_group_name_H-M    P1
_symmetry_Int_Tables_number       1
_space_group_crystal_system       triclinic
_cell_length_a                    8.201431
_cell_length_b                    15.060053
_cell_length_c                    26.989491
_cell_angle_alpha                 98.647541
_cell_angle_beta                  92.799229
_cell_angle_gamma                 81.138429
_cell_volume                      3255.21916929

loop_
_atom_site_label
_atom_site_type_symbol
_atom_type_description
_atom_site_fract_x
_atom_site_fract_y
_atom_site_fract_z
_atom_type_partial_charge
Ba1   Ba    Ba6+2 0.860050 0.456430 0.522540 1.648002
Ba2   Ba    Ba6+2 0.329780 0.543490 0.477450 1.651091
Br1   Br    Br    0.092873 0.894366 0.638017 -0.612251
C1    C     C_3   0.698374 0.134728 0.649155 -0.333762
C2    C     C_R   0.900852 0.589050 0.179616 0.572348
C3    C     C_2   0.752595 0.557632 0.273200 -0.084254
C4    C     C_3   0.193304 0.254994 0.654669 0.292190
C5    C     C_3   0.731495 0.588096 0.328587 -0.045265
C6    C     C_1   0.983977 0.484195 0.342551 0.033869
C7    C     C_2   0.026184 0.480195 0.294829 -0.105622
C8    C     C_2   0.902637 0.516386 0.256415 0.191742
C9    C     C_R   0.024848 0.508343 0.101923 -0.079670
C10   C     C_R   0.071173 0.431538 0.126348 -0.036340
C11   C     C_R   0.158077 0.353169 0.099361 -0.059730
C12   C     C_3   0.689283 0.226299 0.631088 0.326703
C13   C     C_R   0.938509 0.587269 0.128902 -0.024240
C14   C     C_2   0.843474 0.530138 0.360588 -0.290632
C15   C     C_2   0.355648 0.480029 0.640800 -0.288547
C16   C     C_3   0.162612 0.236966 0.707039 -0.324393
C17   C     C_R   0.201258 0.426737 0.973282 0.019421
C18   C     C_R   0.046810 0.581041 0.974497 0.020232
C19   C     C_R   0.143886 0.503175 0.948522 0.050704
C20   C     C_R   0.302677 0.352477 0.946143 -0.098670
C21   C     C_R   0.343257 0.352598 0.896555 -0.057805
C22   C     C_R   0.284552 0.426540 0.871367 -0.031272
C23   C     C_3   0.484341 0.687223 0.631809 0.317626
C24   C     C_R   0.184237 0.501884 0.897237 -0.077508
C25   C     C_R   0.124892 0.576183 0.871894 -0.035573
C26   C     C_R   0.166265 0.574346 0.821353 0.592120
C27   C     C_R   0.324681 0.426568 0.820848 0.579288
C28   C     C_3   0.218685 0.265085 0.412513 0.313098
C29   C     C_2   0.464266 0.482404 0.728976 -0.072344
C30   C     C_3   0.505488 0.487318 0.675215 -0.050725
C31   C     C_1   0.209995 0.519219 0.657400 0.035935
C32   C     C_2   0.171454 0.519675 0.704792 -0.097444
C33   C     C_2   0.304897 0.499103 0.743687 0.199947
C34   C     C_3   0.472764 0.719540 0.687898 -0.339177
C35   C     C_R   0.156676 0.427219 0.024067 0.019908
C36   C     C_R   0.064730 0.506418 0.050526 0.050160
C37   C     C_R   0.012297 0.583907 0.026202 0.020257
C38   C     C_R   0.200179 0.350965 0.049618 -0.098537
C39   C     C_R   0.892216 0.663891 0.104876 -0.059497
C40   C     C_3   0.241724 0.162464 0.397531 -0.382026
C41   C     C_R   0.986672 0.653577 0.947476 -0.099737
C42   C     C_R   0.025116 0.651116 0.897563 -0.059008
C43   C     C_R   0.927916 0.662409 0.054899 -0.101967
C44   C     C_R   0.350522 0.175564 0.533445 -0.012810
C45   C     C_3   0.033598 0.735979 0.344428 0.337592
C46   C     C_R   0.576248 0.209195 0.488602 0.067110
C47   C     C_R   0.755533 0.770284 0.482707 -0.296791
C48   C     C_R   0.846372 0.829334 0.465442 0.017315
C49   C     C_R   0.788139 0.922475 0.471184 -0.133706
C50   C     C_R   0.637777 0.958269 0.495812 0.017308
C51   C     C_R   0.553489 0.897162 0.516673 -0.033107
C52   C     C_3   0.971836 0.735009 0.586880 0.340522
C53   C     C_R   0.570669 0.052655 0.501908 0.010121
C54   C     C_R   0.421024 0.083222 0.528378 -0.033429
C55   C     C_R   0.344679 0.021237 0.549146 -0.089799
C56   C     C_3   0.045246 0.759627 0.292021 -0.311835
C57   C     C_R   0.410625 0.930702 0.543993 -0.036551
C58   C     C_R   0.644321 0.117527 0.481483 -0.129766
C59   C     C_R   0.432522 0.237971 0.515269 -0.287798
C60   C     C_R   0.615165 0.803514 0.510357 0.011822
C61   C     C_3   0.915055 0.835817 0.604311 0.068069
C62   C     C_3   0.694214 0.342110 0.371766 0.300387
C63   C     C_3   0.698089 0.319184 0.314965 -0.361035
C64   C     C_3   0.488194 0.786219 0.368017 0.360975
C65   C     C_3   0.435358 0.878261 0.350806 -0.365115
C66   C     C_R   0.028505 0.434304 0.177085 0.598149
H1    H     H_    0.801037 0.224918 0.609235 0.112535
H2    H     H_    0.595776 0.400706 0.381505 0.076472
H3    H     H_    0.704461 0.079972 0.616451 0.090175
H4    H     H_    0.800767 0.263444 0.303976 0.134395
H5    H     H_    0.716518 0.379543 0.298160 0.069328
H6    H     H_    0.579349 0.297609 0.300172 0.133605
H7    H     H_    0.577732 0.236475 0.606631 -0.035171
H8    H     H_    0.587212 0.133364 0.670775 0.124459
H9    H     H_    0.360310 0.674234 0.617057 0.044843
H10   H     H_    0.574022 0.623615 0.625467 0.021027
H11   H     H_    0.393862 0.786803 0.694826 0.186861
H12   H     H_    0.327743 0.142189 0.365905 0.126899
H13   H     H_    0.417054 0.671014 0.706427 0.068388
H14   H     H_    0.597816 0.725501 0.704574 0.118602
H15   H     H_    0.810466 0.122121 0.673383 0.160652
H16   H     H_    0.215865 0.286650 0.735196 0.125116
H17   H     H_    0.120694 0.672703 0.347686 0.092528
H18   H     H_    0.905587 0.724528 0.349503 -0.052772
H19   H     H_    0.157515 0.790886 0.288875 0.146884
H20   H     H_    0.053263 0.696800 0.264507 0.118670
H21   H     H_    0.935047 0.807962 0.283098 0.121043
H22   H     H_    0.625386 0.773028 0.368418 -0.064322
H23   H     H_    0.293346 0.127876 0.429490 0.061834
H24   H     H_    0.444493 0.789962 0.406712 0.077823
H25   H     H_    0.492705 0.930971 0.375978 0.068018
H26   H     H_    0.299279 0.896978 0.351988 0.151006
H27   H     H_    0.140283 0.326566 0.651942 0.070412
H28   H     H_    0.475841 0.876294 0.311937 0.122669
H29   H     H_    0.151228 0.452497 0.283696 0.134351
H30   H     H_    0.194689 0.292560 0.116744 0.122374
H31   H     H_    0.564339 0.471610 0.756272 0.106150
H32   H     H_    0.421643 0.293776 0.877874 0.125341
H33   H     H_    0.355595 0.293124 0.962359 0.071126
H34   H     H_    0.120923 0.140123 0.385895 0.129642
H35   H     H_    0.265181 0.287347 0.032008 0.070556
H36   H     H_    0.655739 0.581572 0.247443 0.120576
H37   H     H_    0.827271 0.726178 0.124769 0.123234
H38   H     H_    0.906685 0.713420 0.963492 0.071068
H39   H     H_    0.328463 0.245045 0.649145 -0.014463
H40   H     H_    0.975614 0.708882 0.879021 0.126585
H41   H     H_    0.043562 0.535135 0.715704 0.127973
H42   H     H_    0.889657 0.725184 0.040236 0.070334
H43   H     H_    0.822855 0.542408 0.400606 0.081751
H44   H     H_    0.367449 0.443189 0.603015 0.073681
H45   H     H_    0.865463 0.703525 0.569950 -0.056995
H46   H     H_    0.379286 0.308920 0.519354 0.068873
H47   H     H_    0.232680 0.041507 0.569957 0.143828
H48   H     H_    0.752629 0.099072 0.459032 0.082770
H49   H     H_    0.802000 0.698359 0.478307 0.067571
H50   H     H_    0.864815 0.964760 0.457293 0.080531
H51   H     H_    0.027818 0.244205 0.712927 0.144512
H52   H     H_    0.345055 0.887396 0.561361 0.154336
H53   H     H_    0.220879 0.167210 0.712156 0.140367
H54   H     H_    0.339946 0.286599 0.422660 0.002294
H55   H     H_    0.136731 0.283182 0.445157 0.067468
H56   H     H_    0.067265 0.727642 0.558363 0.063898
H57   H     H_    0.872245 0.870965 0.571863 0.008500
H58   H     H_    0.811625 0.844197 0.630467 0.112248
H59   H     H_    0.814895 0.360437 0.385992 0.010311
N1    N     N_R   0.944560 0.512834 0.203632 -0.421534
N2    N     N_R   0.264427 0.499752 0.796034 -0.425470
O1    O     O_2   0.906490 0.548660 0.619040 -0.466678
O2    O     O_2   0.186167 0.824683 0.472105 -0.480763
O3    O     O_3   0.075091 0.807684 0.379810 -0.604052
O4    O     O_3   0.138490 0.548590 0.558860 -0.493887
O5    O     O_3   0.572560 0.389970 0.472910 -0.492523
O6    O     O_2   0.345680 0.723560 0.528460 -0.460775
O7    O     O_3   0.537823 0.754917 0.609104 -0.637937
O8    O     O_2   0.405145 0.543434 0.323617 -0.498990
O9    O     O_3   0.419170 0.718646 0.335478 -0.594821
O10   O     O_2   0.064247 0.366207 0.197219 -0.596753
O11   O     O_2   0.412682 0.360985 0.798925 -0.597526
O12   O     O_3   0.663350 0.265947 0.391735 -0.634349
O13   O     O_2   0.829861 0.659462 0.202486 -0.620553
O14   O     O_2   0.116843 0.640053 0.800176 -0.588861
O15   O     O_3   0.686290 0.382320 0.585720 -0.488875
O16   O     O_2   0.849643 0.426695 0.670612 -0.496330
O17   O     O_3   0.035166 0.694047 0.628291 -0.604791
O18   O     O_3   0.679852 0.295492 0.672458 -0.591286
O19   O     O_2   0.844020 0.276410 0.471510 -0.461786
O20   O     O_3   0.101490 0.335510 0.560360 -0.488610
O21   O     O_2   0.009920 0.175274 0.526748 -0.484631
O22   O     O_3   0.117338 0.194528 0.619658 -0.598067
O23   O     O_2   0.283210 0.451320 0.380930 -0.462389
O24   O     O_3   0.051220 0.451340 0.441130 -0.498376
O25   O     O_3   0.503420 0.617610 0.414270 -0.478113
O26   O     O_3   0.150083 0.305847 0.371583 -0.624114
O27   O     O_3   0.617160 0.609950 0.527080 -0.474804
O28   O     O_3   0.088220 0.664410 0.439630 -0.494706
P1    P     P_3+3 0.071960 0.575810 0.612130 1.007140
P2    P     P_3+3 0.664360 0.290070 0.457280 0.982976
P3    P     P_3+3 0.144973 0.218729 0.559523 0.934767
P4    P     P_3+3 0.117760 0.424110 0.387870 0.990358
P5    P     P_3+3 0.049582 0.782150 0.439758 0.951159
P6    P     P_3+3 0.680818 0.399958 0.651193 0.973210
P7    P     P_3+3 0.532217 0.723818 0.544021 0.949150
P8    P     P_3+3 0.514189 0.612947 0.349594 0.944547

loop_
_geom_bond_atom_site_label_1
_geom_bond_atom_site_label_2
_ccdc_geom_bond_type
C16   H53   S    
Ba2   O25   S    
Ba1   O15   S    
C32   C33   S    
C23   O7    S    
O17   P1    S    
Ba2   P4    S    
C44   C59   A    
O7    P7    S    
C28   O26   S    
C11   H30   S    
C51   C57   A    
Br1   C61   S    
C49   C50   A    
C37   C43   A    
C4    H27   S    
Ba2   O4    S    
C27   O11   D    
C28   C40   S    
C29   C33   D    
C25   C26   A    
C28   H55   S    
C31   C32   D    
C56   H20   S    
C35   C36   A    
C42   H40   S    
C2    O13   D    
C20   H33   S    
C51   C60   A    
O25   P8    S    
C55   C57   A    
C63   H5    S    
C8    N1    S    
C53   C54   A    
C21   H32   S    
C39   C43   A    
C7    H29   S    
C65   H28   S    
C2    C13   A    
C56   H19   S    
C52   H56   S    
O21   P3    D    
C20   C21   A    
C46   P2    S    
C48   P5    S    
O5    P2    S    
C64   O9    S    
C6    C7    D    
O22   P3    S    
C31   P1    S    
C50   C53   A    
C66   O10   D    
C2    N1    Am   
O4    P1    S    
O26   P4    S    
Ba2   O24   S    
C10   C11   A    
C55   H47   S    
C47   C60   A    
Ba1   O24   S    
O3    P5    S    
C15   H44   S    
C15   C30   S    
C57   H52   S    
C34   H11   S    
C25   C42   A    
C65   H26   S    
C46   C58   A    
C36   C37   A    
C58   H48   S    
C48   C49   A    
O18   P6    S    
C62   H59   S    
C9    C13   A    
C45   O3    S    
Ba1   P1    S    
C30   P6    S    
C21   C22   A    
C35   C38   A    
O27   P7    S    
C3    C8    D    
C3    C5    S    
C16   H16   S    
C27   N2    Am   
C26   O14   D    
O16   P6    D    
Ba2   O6    S    
C29   H31   S    
C56   H21   S    
O9    P8    S    
C64   C65   S    
C33   N2    S    
C44   C54   A    
C18   C41   A    
C17   C35   A    
C52   O17   S    
C26   N2    Am   
C1    H15   S    
C17   C20   A    
Ba2   O28   S    
C61   H58   S    
C43   H42   S    
C52   C61   S    
C64   H22   S    
C47   C48   A    
C45   H18   S    
Ba1   O20   S    
C53   C58   A    
C23   H9    S    
O1    P1    D    
C15   C31   D    
C32   H41   S    
C5    P8    S    
O28   P5    S    
C11   C38   A    
C40   H23   S    
C6    C14   D    
O15   P6    S    
C39   H37   S    
C17   C19   A    
C16   H51   S    
Ba2   O23   S    
C61   H57   S    
C19   C24   A    
C40   H12   S    
C45   H17   S    
C34   H13   S    
Ba1   O4    S    
C14   H43   S    
C13   C39   A    
C1    H3    S    
C41   C42   A    
C45   C56   S    
C41   H38   S    
C22   C27   A    
C12   H1    S    
C46   C59   A    
C47   H49   S    
O24   P4    S    
Ba1   P2    S    
Ba2   O5    S    
O12   P2    S    
Ba1   O19   S    
Ba1   O1    S    
O20   P3    S    
C23   C34   S    
C50   C51   A    
C52   H45   S    
C22   C24   A    
C65   H25   S    
C4    C16   S    
C23   H10   S    
C38   H35   S    
O23   P4    D    
O8    P8    D    
C29   C30   S    
C9    C36   A    
Ba1   O27   S    
O2    P5    D    
C28   H54   S    
C59   H46   S    
C62   H2    S    
C5    C14   S    
C62   O12   S    
C63   H4    S    
C54   C55   A    
C12   O18   S    
C18   C37   A    
C10   C66   A    
C1    C12   S    
Ba2   O27   S    
C63   H6    S    
Ba1   Ba2   S    
C3    H36   S    
C12   H7    S    
C6    P4    S    
O19   P2    D    
C40   H34   S    
C7    C8    S    
C4    O22   S    
C44   P3    S    
C49   H50   S    
C1    H8    S    
C60   P7    S    
C9    C10   A    
C66   N1    Am   
C62   C63   S    
O6    P7    D    
Ba1   O5    S    
C24   C25   A    
C64   H24   S    
C4    H39   S    
C34   H14   S    
C18   C19   A    
