data_mof_unit_8802.cif
_audit_creation_date              2012-12-10T18:19:08-0500
_audit_creation_method            fapswitch 2.2
_symmetry_space_group_name_H-M    P1
_symmetry_Int_Tables_number       1
_space_group_crystal_system       triclinic
_cell_length_a                    14.937998
_cell_length_b                    14.022473
_cell_length_c                    11.53449
_cell_angle_alpha                 89.999889
_cell_angle_beta                  89.769103
_cell_angle_gamma                 90.000023
_cell_volume                      2416.08316783

loop_
_atom_site_label
_atom_site_type_symbol
_atom_type_description
_atom_site_fract_x
_atom_site_fract_y
_atom_site_fract_z
_atom_type_partial_charge
C1    C     C_R   0.326599 0.499997 0.500843 1.081320
C2    C     C_R   0.673401 0.499997 0.499157 1.081319
C3    C     C_R   0.906933 0.530269 0.393230 -0.016739
C4    C     C_R   0.093067 0.530268 0.606770 -0.016739
C5    C     C_R   0.952450 0.551798 0.707810 -0.136048
C6    C     C_R   0.047550 0.551801 0.292191 -0.136043
C7    C     C_R   0.045148 0.552454 0.708112 -0.106688
C8    C     C_R   0.954852 0.552457 0.291889 -0.106690
C9    C     C_R   0.558230 0.798159 0.429519 -0.027788
C10   C     C_R   0.441821 0.201742 0.570468 -0.021366
C11   C     C_R   0.441769 0.798158 0.570480 -0.027788
C12   C     C_R   0.558179 0.201742 0.429532 -0.021365
C13   C     C_R   0.440365 0.898788 0.572175 0.007959
C14   C     C_R   0.559603 0.101116 0.427836 0.002577
C15   C     C_R   0.559635 0.898788 0.427825 0.007959
C16   C     C_R   0.440397 0.101116 0.572164 0.002577
C17   C     C_R   0.500000 0.949355 0.500000 0.090880
C18   C     C_R   0.500000 0.050541 0.500000 0.092233
C19   C     C_R   0.381061 0.949837 0.643955 -0.177171
C20   C     C_R   0.618919 0.050091 0.356045 -0.174880
C21   C     C_R   0.618939 0.949837 0.356045 -0.177171
C22   C     C_R   0.381081 0.050091 0.643955 -0.174881
C23   C     C_R   0.500107 0.500059 0.281754 1.021964
C24   C     C_R   0.499893 0.500059 0.718246 1.021962
C25   C     C_1   0.499995 0.500131 0.161384 -0.044412
C26   C     C_1   0.500005 0.500131 0.838616 -0.044411
C27   C     C_1   0.499986 0.500133 0.059266 0.076002
C28   C     C_1   0.500014 0.500133 0.940734 0.076002
C29   C     C_R   0.815140 0.508969 0.391948 0.319279
C30   C     C_R   0.184860 0.508968 0.608053 0.319278
C31   C     C_R   0.769601 0.501148 0.499215 -0.309304
C32   C     C_R   0.230399 0.501148 0.500786 -0.309305
C33   C     C_R   0.814251 0.508339 0.606644 0.257418
C34   C     C_R   0.185749 0.508340 0.393357 0.257422
C35   C     C_R   0.905866 0.529802 0.605943 -0.016056
C36   C     C_R   0.094134 0.529803 0.394058 -0.016055
C37   C     C_R   0.952925 0.531926 0.499785 0.011884
C38   C     C_R   0.047075 0.531926 0.500216 0.011882
H1    H     H_    0.918248 0.569257 0.787678 0.231797
H2    H     H_    0.081752 0.569261 0.212323 0.231796
H3    H     H_    0.078079 0.571251 0.788007 0.219276
H4    H     H_    0.921921 0.571255 0.211994 0.219274
H5    H     H_    0.603526 0.757957 0.374667 0.156208
H6    H     H_    0.396550 0.241758 0.625336 0.173349
H7    H     H_    0.396474 0.757956 0.625333 0.156207
H8    H     H_    0.603450 0.241759 0.374664 0.173349
H9    H     H_    0.334671 0.912255 0.700092 0.161170
H10   H     H_    0.665292 0.087697 0.299905 0.163335
H11   H     H_    0.665329 0.912255 0.299907 0.161170
H12   H     H_    0.334707 0.087696 0.700095 0.163335
N1    N     N_R   0.500000 0.750030 0.500000 -0.112414
N2    N     N_R   0.500000 0.249970 0.500000 -0.108497
O1    O     O_R   0.367850 0.580280 0.500030 -0.633537
O2    O     O_R   0.632150 0.419720 0.499970 -0.559637
O3    O     O_R   0.632150 0.580280 0.499970 -0.633537
O4    O     O_R   0.367850 0.419720 0.500030 -0.559636
O5    O     O_R   0.500010 0.580270 0.334450 -0.615576
O6    O     O_R   0.499990 0.419730 0.665550 -0.598763
O7    O     O_R   0.499990 0.580270 0.665550 -0.615577
O8    O     O_R   0.500010 0.419730 0.334450 -0.598764
Zn1   Zn    Zn3+2 0.500000 0.607200 0.500000 1.024293
Zn2   Zn    Zn3+2 0.500000 0.392800 0.500000 1.065581
S1    S     S_3+6 0.758786 0.481644 0.258815 0.011255
O9    O     O_2   0.711388 0.569533 0.216820 -0.321769
O10   O     O_2   0.822793 0.447683 0.166724 -0.256766
O11   O     O_3   0.683848 0.394016 0.279417 -0.589014
H13   H     H_    0.663809 0.375919 0.200666 0.377443
S2    S     S_3+6 0.241214 0.481641 0.741185 0.011254
O12   O     O_2   0.288611 0.569531 0.783182 -0.321767
O13   O     O_2   0.177207 0.447679 0.833275 -0.256768
O14   O     O_3   0.316152 0.394014 0.720582 -0.589016
H14   H     H_    0.336191 0.375916 0.799333 0.377443
S3    S     S_3+6 0.757645 0.480637 0.740023 0.022621
O15   O     O_2   0.716176 0.570276 0.787176 -0.274516
O16   O     O_2   0.685523 0.407788 0.721493 -0.315661
O17   O     O_3   0.827885 0.435566 0.839709 -0.491265
H15   H     H_    0.852151 0.376666 0.804060 0.366067
S4    S     S_3+6 0.242355 0.480640 0.259977 0.022620
O18   O     O_2   0.283824 0.570280 0.212826 -0.274516
O19   O     O_2   0.314477 0.407790 0.278506 -0.315665
O20   O     O_3   0.172115 0.435571 0.160290 -0.491268
H16   H     H_    0.147853 0.376668 0.195936 0.366070

loop_
_geom_bond_atom_site_label_1
_geom_bond_atom_site_label_2
_ccdc_geom_bond_type
O6    Zn2   S    
S1    O10   D    
S3    O15   D    
C14   C18   A    
C9    N1    A    
C10   N2    A    
C21   H11   S    
O20   H16   S    
O8    Zn2   S    
C35   C37   A    
C1    O4    A    
C8    H4    S    
C2    O3    A    
C24   O7    A    
S4    O19   D    
C5    C35   A    
C23   O5    A    
C3    C29   A    
C1    O1    A    
O1    Zn1   S    
S2    O12   D    
N1    Zn1   S    
C31   C33   A    
C34   C36   A    
C22   H12   S    
C7    H3    S    
O11   H13   S    
S1    O11   S    
S3    O16   D    
C4    C7    A    
C12   N2    A    
C23   O8    A    
C9    H5    S    
O7    Zn1   S    
C13   C19   A    
C10   H6    S    
C14   C20   A    
C19   C22   A    
O17   H15   S    
C12   H8    S    
C3    C8    A    
C2    O2    A    
C5    C7    A    
S4    O18   D    
C6    C8    A    
O2    Zn2   S    
C1    C32   S    
C2    C31   S    
C32   C34   A    
C37   C38   A    
C17   C18   A    
C16   C18   A    
C20   H10   S    
C33   S3    S    
C12   C14   A    
C5    H1    S    
S3    O17   S    
O4    Zn2   S    
C11   H7    S    
C15   C17   A    
C16   C22   A    
C24   C26   S    
C4    C38   A    
O5    Zn1   S    
C25   C27   T    
C26   C28   T    
C13   C17   A    
C36   C38   A    
C9    C15   A    
O14   H14   S    
C29   C31   A    
N2    Zn2   S    
C34   S4    S    
C30   C32   A    
C11   C13   A    
S4    O20   S    
S2    O14   S    
O3    Zn1   S    
C29   S1    S    
C33   C35   A    
C6    C36   A    
C6    H2    S    
C23   C25   S    
C4    C30   A    
C11   N1    A    
S1    O9    D    
C15   C21   A    
C20   C21   A    
C3    C37   A    
C24   O6    A    
C19   H9    S    
C27   C28   S    
S2    O13   D    
C10   C16   A    
C30   S2    S    
