data_mof_unit_5699.cif
_audit_creation_date              2012-10-26T21:20:09-0400
_audit_creation_method            fapswitch 2.2
_symmetry_space_group_name_H-M    P1
_symmetry_Int_Tables_number       1
_space_group_crystal_system       triclinic
_cell_length_a                    12.976688
_cell_length_b                    10.969191
_cell_length_c                    9.582518
_cell_angle_alpha                 90.868327
_cell_angle_beta                  96.317731
_cell_angle_gamma                 91.996035
_cell_volume                      1354.65786371

loop_
_atom_site_label
_atom_site_type_symbol
_atom_type_description
_atom_site_fract_x
_atom_site_fract_y
_atom_site_fract_z
_atom_type_partial_charge
C1    C     C_R   0.505846 0.262633 0.499752 0.542858
C2    C     C_R   0.699060 0.494242 0.526439 0.544198
C3    C     C_R   0.811592 0.482677 0.541231 0.022313
C4    C     C_R   0.188415 0.517322 0.458769 0.022340
C5    C     C_R   0.027848 0.601722 0.354902 -0.109719
C6    C     C_R   0.972165 0.398319 0.645106 -0.109670
C7    C     C_R   0.135609 0.594206 0.358874 0.001058
C8    C     C_R   0.864409 0.405859 0.641178 0.000989
C9    C     C_R   0.133076 0.453140 0.553226 -0.131114
C10   C     C_R   0.866928 0.546833 0.446731 -0.131100
C11   C     C_R   0.026468 0.462815 0.550015 0.025938
C12   C     C_R   0.494147 0.737366 0.500246 0.542846
C13   C     C_R   0.973538 0.537181 0.449950 0.025930
C14   C     C_R   0.495355 0.060186 0.371204 -0.043479
C15   C     C_R   0.504611 0.939810 0.628793 -0.043476
C16   C     C_R   0.476900 0.934187 0.372769 -0.042758
C17   C     C_R   0.523070 0.065807 0.627228 -0.042744
C18   C     C_3   0.809781 0.324860 0.738630 -0.259553
C19   C     C_3   0.821264 0.378737 0.887544 -0.402561
C20   C     C_3   0.190269 0.675393 0.261639 -0.259539
C21   C     C_3   0.178846 0.621785 0.112596 -0.402425
C22   C     C_1   0.507272 0.114925 0.237028 0.265008
C23   C     C_R   0.488974 0.871748 0.501132 -0.040498
C24   C     C_1   0.492686 0.885072 0.762966 0.265002
C25   C     C_1   0.436894 0.872075 0.241987 0.242690
C26   C     C_1   0.563078 0.127915 0.758013 0.242712
C27   C     C_1   0.357349 0.348544 0.125119 0.257400
C28   C     C_1   0.642627 0.651483 0.874877 0.257400
C29   C     C_1   0.366305 0.336892 0.830320 0.264846
C30   C     C_1   0.633693 0.663109 0.169680 0.264832
C31   C     C_R   0.511002 0.128248 0.498865 -0.040477
C32   C     C_R   0.431918 0.425585 0.063219 0.080619
C33   C     C_R   0.568077 0.574421 0.936780 0.080667
C34   C     C_R   0.433102 0.424063 0.914630 0.086502
C35   C     C_R   0.566897 0.575938 0.085370 0.086499
C36   C     C_R   0.300942 0.505747 0.473563 0.544196
Cu1   Cu    Cu3+1 0.500000 0.500020 0.640660 1.002051
Cu2   Cu    Cu3+1 0.500000 0.499980 0.359340 1.002066
H1    H     H_    0.826753 0.604748 0.369976 0.145565
H2    H     H_    0.210700 0.529364 0.112034 0.172091
H3    H     H_    0.095832 0.615675 0.069063 0.145520
H4    H     H_    0.221723 0.681019 0.044018 0.171690
H5    H     H_    0.156309 0.767116 0.259603 0.145027
H6    H     H_    0.273363 0.691515 0.299466 0.177788
H7    H     H_    0.173249 0.395203 0.629962 0.145568
H8    H     H_    0.986587 0.660235 0.279223 0.118831
H9    H     H_    0.013433 0.339856 0.720831 0.118842
H10   H     H_    0.904257 0.384425 0.931237 0.145519
H11   H     H_    0.789839 0.471389 0.887816 0.172142
H12   H     H_    0.778032 0.319945 0.956151 0.171620
H13   H     H_    0.726685 0.308701 0.700889 0.177914
H14   H     H_    0.843731 0.233132 0.740870 0.145073
N1    N     N_R   0.500030 0.500030 0.852080 -0.265954
N2    N     N_1   0.686803 0.734637 0.235447 -0.307451
N3    N     N_R   0.499970 0.499970 0.147920 -0.265960
N4    N     N_1   0.518073 0.156771 0.129432 -0.250211
N5    N     N_1   0.481880 0.843225 0.870560 -0.250214
N6    N     N_1   0.404095 0.822743 0.138225 -0.276546
N7    N     N_1   0.595877 0.177243 0.861777 -0.276510
N8    N     N_1   0.297158 0.286484 0.173495 -0.289365
N9    N     N_1   0.702800 0.713563 0.826499 -0.289436
N10   N     N_1   0.313196 0.265364 0.764554 -0.307472
O1    O     O_R   0.499990 0.319660 0.618740 -0.493619
O2    O     O_R   0.500010 0.680340 0.381260 -0.493600
O3    O     O_R   0.499990 0.319630 0.381170 -0.489706
O4    O     O_R   0.500010 0.680370 0.618830 -0.489695
O5    O     O_R   0.349000 0.499990 0.599490 -0.506596
O6    O     O_R   0.651000 0.500010 0.400510 -0.506578
O7    O     O_R   0.348990 0.499960 0.361920 -0.503054
O8    O     O_R   0.651010 0.500040 0.638080 -0.503072

loop_
_geom_bond_atom_site_label_1
_geom_bond_atom_site_label_2
_ccdc_geom_bond_type
C28   C33   S    
C1    O3    A    
C4    C36   S    
C9    H7    S    
Cu1   Cu2   S    
C33   C35   A    
C11   C13   A    
C5    H8    S    
C19   H11   S    
C32   N3    A    
C5    C13   A    
C19   H12   S    
Cu2   O3    S    
C22   N4    T    
C14   C31   A    
Cu1   N1    S    
Cu1   O4    S    
C14   C22   S    
C15   C23   A    
C2    C3    S    
C4    C9    A    
Cu2   O7    S    
C18   H14   S    
C3    C10   A    
C2    O8    A    
Cu1   O8    S    
C28   N9    T    
C9    C11   A    
C12   C23   S    
C21   H2    S    
C30   C35   S    
C4    C7    A    
C21   H3    S    
C17   C26   S    
Cu1   O5    S    
C15   C24   S    
Cu1   O1    S    
Cu2   O6    S    
C18   H13   S    
C3    C8    A    
C16   C23   A    
C2    O6    A    
C27   N8    T    
C6    C11   A    
C33   N1    A    
C17   C31   A    
C14   C16   A    
C30   N2    T    
C36   O5    A    
C6    H9    S    
C35   N3    A    
C21   H4    S    
C1    O1    A    
C1    C31   S    
C20   H5    S    
C36   O7    A    
C34   N1    A    
C20   C21   S    
C18   C19   S    
C25   N6    T    
C16   C25   S    
C15   C17   A    
C12   O2    A    
C5    C7    A    
C24   N5    T    
C26   N7    T    
C6    C8    A    
C19   H10   S    
C20   H6    S    
C27   C32   S    
C29   N10   T    
Cu2   O2    S    
C12   O4    A    
C29   C34   S    
C7    C20   S    
C8    C18   S    
Cu2   N3    S    
C10   H1    S    
C10   C13   A    
C32   C34   A    
