data_mof_unit_56966.cif
_audit_creation_date              2013-03-05T16:36:13-0500
_audit_creation_method            fapswitch 2.2
_symmetry_space_group_name_H-M    P1
_symmetry_Int_Tables_number       1
_space_group_crystal_system       triclinic
_cell_length_a                    27.923413
_cell_length_b                    9.074345
_cell_length_c                    7.772247
_cell_angle_alpha                 90.176853
_cell_angle_beta                  90.146851
_cell_angle_gamma                 89.98264
_cell_volume                      1969.36795193

loop_
_atom_site_label
_atom_site_type_symbol
_atom_site_description
_atom_site_fract_x
_atom_site_fract_y
_atom_site_fract_z
_atom_type_partial_charge
O1    O     O_R   0.500000 0.288390 0.642760 -0.569687
O2    O     O_R   0.500000 0.711610 0.357240 -0.568941
O3    O     O_R   0.500000 0.711610 0.642760 -0.574564
O4    O     O_R   0.500000 0.288390 0.357240 -0.574473
C1    C     C_R   0.499969 0.220002 0.499838 0.852791
C2    C     C_R   0.499967 0.779998 0.500161 0.853285
O5    O     O_R   0.430260 0.500000 0.642770 -0.549902
O6    O     O_R   0.569740 0.500000 0.357230 -0.539767
O7    O     O_R   0.569740 0.500000 0.642770 -0.540336
O8    O     O_R   0.430260 0.500000 0.357230 -0.550103
C3    C     C_R   0.407347 0.500463 0.499748 0.896101
C4    C     C_R   0.592920 0.500130 0.500256 0.873047
Cu1   Cu    Cu3+1 0.500000 0.500000 0.669080 1.127405
Cu2   Cu    Cu3+1 0.500000 0.500000 0.330920 1.127707
C5    C     C_R   0.179056 0.386229 0.428468 0.624652
C6    C     C_R   0.822974 0.626241 0.544961 0.618694
C7    C     C_R   0.179101 0.627214 0.551584 0.622265
C8    C     C_R   0.823051 0.371896 0.468361 0.617162
O9    O     O_2   0.204839 0.270831 0.370498 -0.410241
O10   O     O_2   0.797949 0.752056 0.565946 -0.407272
O11   O     O_2   0.204918 0.740916 0.614141 -0.412659
O12   O     O_2   0.797920 0.246484 0.446039 -0.408921
N1    N     N_R   0.202761 0.506027 0.491928 -0.473182
N2    N     N_R   0.798970 0.499249 0.505536 -0.468927
C9    C     C_R   0.279695 0.595767 0.382717 -0.093377
C10   C     C_R   0.722160 0.449701 0.359180 -0.099922
C11   C     C_R   0.278662 0.413194 0.609087 -0.092708
C12   C     C_R   0.721810 0.549743 0.647367 -0.099523
C13   C     C_R   0.329632 0.595395 0.383962 0.319090
C14   C     C_R   0.672216 0.446254 0.357778 0.335922
C15   C     C_R   0.328620 0.411030 0.611930 0.318957
C16   C     C_R   0.671896 0.554116 0.645910 0.336343
C17   C     C_R   0.254154 0.505025 0.494719 0.175757
C18   C     C_R   0.747288 0.499495 0.504023 0.173421
C19   C     C_R   0.102976 0.507221 0.488648 -0.148962
C20   C     C_R   0.898995 0.499871 0.505701 -0.151576
C21   C     C_R   0.128513 0.383523 0.424049 -0.101905
C22   C     C_R   0.873331 0.626772 0.558675 -0.100585
C23   C     C_R   0.128561 0.632181 0.549800 -0.103884
C24   C     C_R   0.873521 0.371114 0.456875 -0.102721
C25   C     C_R   0.102586 0.262971 0.355858 0.449589
C26   C     C_R   0.898852 0.749132 0.623492 0.453198
C27   C     C_R   0.102696 0.757248 0.605698 0.446755
C28   C     C_R   0.899421 0.246119 0.401254 0.449653
C29   C     C_R   0.354685 0.502368 0.498767 -0.214083
C30   C     C_R   0.646071 0.500283 0.501177 -0.234227
H1    H     H_    0.258682 0.342758 0.695295 0.207370
H2    H     H_    0.741051 0.587973 0.760193 0.203707
H3    H     H_    0.260518 0.667172 0.294853 0.206443
H4    H     H_    0.741682 0.411197 0.247452 0.203011
C31   C     C_R   0.975538 0.376206 0.443065 0.019093
C32   C     C_R   0.026411 0.631043 0.552903 0.018781
C33   C     C_R   0.975346 0.628900 0.558132 0.019705
C34   C     C_R   0.026473 0.380232 0.432547 0.019505
C35   C     C_R   0.950106 0.501774 0.501938 0.081894
C36   C     C_R   0.051821 0.506057 0.491749 0.082359
C37   C     C_R   0.949093 0.249182 0.397989 -0.240449
C38   C     C_R   0.053023 0.755893 0.604343 -0.237611
C39   C     C_R   0.948536 0.748748 0.622996 -0.238698
C40   C     C_R   0.052936 0.263089 0.360197 -0.238215
H5    H     H_    0.965860 0.147336 0.360814 0.174247
H6    H     H_    0.036475 0.857319 0.643876 0.174801
H7    H     H_    0.964872 0.844891 0.678730 0.175197
H8    H     H_    0.036143 0.169347 0.300499 0.176750
C41   C     C_1   0.499945 0.065399 0.499776 -0.095420
C42   C     C_1   0.499944 0.934600 0.500221 -0.094692
N3    N     N_1   0.500000 0.500000 0.076820 0.007861
N4    N     N_1   0.500000 0.500000 0.923180 0.007732
Cl1   Cl    Cl    0.356903 0.287085 0.753870 -0.499018
Cl2   Cl    Cl    0.644300 0.635372 0.826866 -0.483471
Cl3   Cl    Cl    0.359161 0.718286 0.244581 -0.501817
Cl4   Cl    Cl    0.644953 0.366017 0.175126 -0.484029
Cl5   Cl    Cl    0.128990 0.106987 0.257118 -0.436425
Cl6   Cl    Cl    0.871527 0.903063 0.723290 -0.435438
Cl7   Cl    Cl    0.129242 0.923527 0.677653 -0.437542
Cl8   Cl    Cl    0.872747 0.082303 0.322715 -0.434975

loop_
_geom_bond_atom_site_label_1
_geom_bond_atom_site_label_2
_geom_bond_distance
_ccdc_geom_bond_type
C38   H6    1.074119 S    
O3    C2    1.271898 A    
C33   C39   1.412584 A    
C34   C40   1.410736 A    
C11   C17   1.397843 A    
O5    C3    1.281169 A    
C7    N1    1.363371 A    
C2    C42   1.402909 S    
O1    C1    1.270741 A    
C19   C21   1.420696 A    
C22   C26   1.410553 A    
C10   H4    1.083402 S    
C7    C23   1.411972 A    
C28   Cl8   1.769143 S    
O7    Cu1   1.958604 S    
C5    C21   1.411882 A    
C20   C24   1.418270 A    
C8    C24   1.412381 A    
C27   C38   1.387102 A    
C5    O9    1.347663 S    
C10   C18   1.398867 A    
N1    C17   1.435200 S    
Cu2   N3    1.974927 S    
C31   C37   1.411867 A    
O3    Cu1   1.931716 S    
C6    O10   1.348075 S    
C5    N1    1.363328 A    
C12   C18   1.398564 A    
C6    N2    1.366878 A    
Cu1   Cu2   2.628264 S    
O4    Cu2   1.931717 S    
O2    C2    1.270738 A    
C33   C35   1.419179 A    
C9    C13   1.394421 A    
C34   C36   1.418435 A    
C26   Cl6   1.769365 S    
C11   C15   1.395263 A    
N3    N4    1.194129 T    
C12   C16   1.394343 A    
C4    C30   1.484143 S    
O8    Cu2   1.958607 S    
C16   Cl2   1.764753 S    
N2    C18   1.443179 S    
C13   C29   1.413965 A    
C19   C23   1.420407 A    
C15   Cl1   1.763057 S    
C24   C28   1.412276 A    
C28   C37   1.387594 A    
O6    C4    1.284910 A    
C32   C38   1.411292 A    
C1    C41   1.402917 S    
C10   C14   1.394973 A    
C8    N2    1.367326 A    
C3    C29   1.470600 S    
O1    Cu1   1.930461 S    
C32   C33   1.426732 A    
C27   Cl7   1.769818 S    
C11   H1    1.083293 S    
C12   H2    1.083427 S    
O6    Cu2   1.957562 S    
C19   C36   1.428711 A    
C8    O12   1.347689 S    
C16   C30   1.420110 A    
C14   C30   1.419902 A    
C25   C40   1.386897 A    
O4    C1    1.271896 A    
C26   C39   1.387365 A    
C14   Cl4   1.764489 S    
C37   H5    1.074979 S    
C39   H7    1.074131 S    
C40   H8    1.074922 S    
C31   C34   1.425310 A    
C20   C22   1.416767 A    
C20   C35   1.427665 A    
C31   C35   1.417744 A    
C21   C25   1.413017 A    
O2    Cu2   1.930460 S    
O7    C4    1.284347 A    
C9    H3    1.083323 S    
O8    C3    1.280600 A    
C25   Cl5   1.769628 S    
O5    Cu1   1.957564 S    
C23   C27   1.412968 A    
C41   C42   1.186931 T    
C15   C29   1.413652 A    
C9    C17   1.397284 A    
C32   C36   1.419014 A    
C6    C22   1.409915 A    
C13   Cl3   1.763396 S    
Cu1   N4    1.974927 S    
C7    O11   1.347658 S    
