data_mof_unit_54993.cif
_audit_creation_date              2012-12-10T18:35:24-0500
_audit_creation_method            fapswitch 2.2
_symmetry_space_group_name_H-M    P1
_symmetry_Int_Tables_number       1
_space_group_crystal_system       triclinic
_cell_length_a                    14.928896
_cell_length_b                    15.443078
_cell_length_c                    16.510466
_cell_angle_alpha                 92.089781
_cell_angle_beta                  100.448965
_cell_angle_gamma                 97.728758
_cell_volume                      3702.08848053

loop_
_atom_site_label
_atom_site_type_symbol
_atom_type_description
_atom_site_fract_x
_atom_site_fract_y
_atom_site_fract_z
_atom_type_partial_charge
C1    C     C_R   0.557523 0.662463 0.513159 0.856788
C2    C     C_R   0.471728 0.187499 0.502910 -0.232358
C3    C     C_R   0.561862 0.903354 0.552361 0.063198
C4    C     C_R   0.455130 0.106024 0.535008 0.057274
C5    C     C_R   0.654880 0.935297 0.549013 0.058383
C6    C     C_R   0.366721 0.078092 0.552658 0.047399
C7    C     C_R   0.498595 0.962231 0.559708 0.007237
C8    C     C_R   0.524011 0.051020 0.547087 -0.009305
C9    C     C_R   0.617661 0.082571 0.548222 -0.352258
C10   C     C_R   0.411093 0.935423 0.579526 -0.314320
C11   C     C_R   0.682780 0.025540 0.548145 0.457609
C12   C     C_R   0.442505 0.337614 0.490142 0.900719
C13   C     C_R   0.346077 0.992983 0.577333 0.435391
C14   C     C_R   0.171253 0.645176 0.385046 0.405736
C15   C     C_R   0.820185 0.337028 0.591484 0.392209
C16   C     C_R   0.509117 0.494198 0.348633 0.932728
C17   C     C_R   0.487978 0.497773 0.651046 0.901287
C18   C     C_R   0.258878 0.620987 0.408068 -0.137650
C19   C     C_R   0.737406 0.372026 0.582349 -0.133007
C20   C     C_R   0.202813 0.504488 0.482582 -0.070951
C21   C     C_R   0.796832 0.493365 0.515209 -0.060616
C22   C     C_R   0.112066 0.523431 0.461482 -0.078697
C23   C     C_R   0.593335 0.755316 0.528770 -0.055490
C24   C     C_R   0.880528 0.460106 0.516745 -0.083110
C25   C     C_R   0.096168 0.595986 0.412271 -0.048273
C26   C     C_R   0.892927 0.380775 0.556771 -0.038304
C27   C     C_R   0.037932 0.473699 0.489950 0.044531
C28   C     C_R   0.951015 0.503001 0.478557 0.046796
C29   C     C_R   0.935751 0.571658 0.426041 -0.288150
C30   C     C_R   0.047658 0.394145 0.527276 -0.287411
C31   C     C_R   0.005494 0.615877 0.391463 0.407612
C32   C     C_R   0.977129 0.347465 0.558945 0.402550
C33   C     C_R   0.503733 0.467737 0.262602 -0.193793
C34   C     C_R   0.408702 0.246301 0.499662 -0.060948
C35   C     C_R   0.473474 0.468846 0.731798 -0.209380
C36   C     C_R   0.429822 0.405426 0.222166 0.328771
C37   C     C_R   0.528143 0.409625 0.772518 0.374530
C38   C     C_R   0.432654 0.368892 0.143716 0.407756
C39   C     C_R   0.498464 0.363799 0.836686 0.367557
C40   C     C_R   0.503217 0.403126 0.102800 -0.013635
C41   C     C_R   0.429406 0.393213 0.873518 0.001086
C42   C     C_R   0.576465 0.464422 0.144135 -0.228367
C43   C     C_R   0.376615 0.453517 0.834619 -0.234535
C44   C     C_R   0.577494 0.495499 0.224161 -0.266456
C45   C     C_R   0.717425 0.875893 0.543422 -0.177602
C46   C     C_R   0.396703 0.489017 0.762666 -0.262094
C47   C     C_2   0.501065 0.380936 0.015606 -0.145050
C48   C     C_2   0.423264 0.375895 0.959137 -0.116945
C49   C     C_3   0.281035 0.409530 0.234586 0.121994
C50   C     C_3   0.207342 0.376756 0.283887 -0.317963
C51   C     C_3   0.119749 0.417529 0.257822 -0.961248
C52   C     C_3   0.685829 0.430664 0.803651 0.100140
C53   C     C_3   0.720287 0.522308 0.779507 -0.348975
C54   C     C_3   0.808695 0.562538 0.837712 -0.966722
C55   C     C_3   0.196735 0.725266 0.272454 0.170749
C56   C     C_R   0.300776 0.136009 0.544854 -0.165008
C57   C     C_3   0.275250 0.801626 0.278946 -0.409092
C58   C     C_3   0.242511 0.890006 0.290477 -0.766757
C59   C     C_3   0.803789 0.245331 0.699201 0.137691
C60   C     C_3   0.883800 0.289545 0.766032 -0.352011
C61   C     C_3   0.871932 0.262022 0.851841 -0.968816
C62   C     C_3   0.511847 0.220523 0.814315 0.108039
C63   C     C_3   0.563830 0.146261 0.846361 -0.345717
C64   C     C_3   0.537395 0.064917 0.786998 -0.935862
C65   C     C_3   0.383890 0.221054 0.137480 0.124791
C66   C     C_3   0.441196 0.176481 0.084700 -0.361752
C67   C     C_R   0.686715 0.786338 0.533174 -0.213791
C68   C     C_3   0.452860 0.084416 0.111226 -0.967472
C69   C     C_3   0.785504 0.094195 0.473882 0.162818
C70   C     C_3   0.804753 0.024425 0.413492 -0.412112
C71   C     C_3   0.825795 0.064063 0.334531 -0.917382
C72   C     C_3   0.202294 0.916287 0.539857 0.072841
C73   C     C_3   0.108866 0.897278 0.565967 -0.348673
C74   C     C_3   0.039268 0.838950 0.500698 -0.853773
C75   C     C_R   0.322306 0.220401 0.519772 -0.213656
C76   C     C_R   0.532461 0.813315 0.540630 -0.240914
Cl1   Cl    Cl    0.971590 0.693290 0.320056 -0.628821
Cl2   Cl    Cl    0.002220 0.247548 0.600160 -0.634834
H1    H     H_    0.642550 0.151837 0.551407 0.173535
H2    H     H_    0.635263 0.541937 0.255860 0.178168
H3    H     H_    0.358230 0.380728 0.978405 0.180922
H4    H     H_    0.567271 0.388143 0.996187 0.176670
H5    H     H_    0.632227 0.489606 0.113746 0.166467
H6    H     H_    0.321977 0.475528 0.861569 0.162375
H7    H     H_    0.534760 0.207146 0.480785 0.151460
H8    H     H_    0.460728 0.787485 0.535875 0.156431
H9    H     H_    0.272830 0.265852 0.518502 0.161597
H10   H     H_    0.735328 0.741776 0.526052 0.159012
H11   H     H_    0.789405 0.898383 0.543833 0.178612
H12   H     H_    0.393072 0.871103 0.600553 0.162446
H13   H     H_    0.233289 0.116895 0.559417 0.193885
H14   H     H_    0.254025 0.390047 0.168125 0.161669
H15   H     H_    0.295341 0.482398 0.242909 0.132269
H16   H     H_    0.190668 0.304334 0.274364 0.222074
H17   H     H_    0.234265 0.393410 0.350593 0.248811
H18   H     H_    0.134980 0.490013 0.266055 0.261496
H19   H     H_    0.068797 0.394346 0.296468 0.276197
H20   H     H_    0.089334 0.398257 0.192103 0.266512
H21   H     H_    0.740658 0.389663 0.801776 0.162990
H22   H     H_    0.675391 0.433419 0.868906 0.141207
H23   H     H_    0.782788 0.553840 0.488665 0.136285
H24   H     H_    0.734119 0.518228 0.715691 0.248602
H25   H     H_    0.666853 0.565523 0.781601 0.215416
H26   H     H_    0.796609 0.568640 0.901978 0.269814
H27   H     H_    0.831916 0.628765 0.818651 0.272946
H28   H     H_    0.863840 0.521321 0.835484 0.263991
H29   H     H_    0.140456 0.735576 0.221238 0.186438
H30   H     H_    0.221005 0.663466 0.254030 0.042341
H31   H     H_    0.331039 0.794198 0.331610 0.210275
H32   H     H_    0.304295 0.800530 0.221579 0.179233
H33   H     H_    0.188145 0.899882 0.237454 0.248624
H34   H     H_    0.221891 0.454050 0.522803 0.140465
H35   H     H_    0.301246 0.943352 0.294323 0.227755
H36   H     H_    0.214895 0.893681 0.348342 0.274548
H37   H     H_    0.793021 0.174166 0.708979 0.201397
H38   H     H_    0.738428 0.268875 0.706051 0.106695
H39   H     H_    0.949654 0.270883 0.754107 0.287339
H40   H     H_    0.887995 0.361832 0.764513 0.195554
H41   H     H_    0.804642 0.275194 0.865170 0.257677
H42   H     H_    0.927723 0.299120 0.899035 0.272727
H43   H     H_    0.875887 0.190996 0.856346 0.275634
H44   H     H_    0.524517 0.232734 0.750924 0.171014
H45   H     H_    0.677653 0.336046 0.600158 0.175428
H46   H     H_    0.436790 0.199737 0.811345 0.144193
H47   H     H_    0.639113 0.167986 0.853748 0.228724
H48   H     H_    0.547948 0.129627 0.907664 0.228238
H49   H     H_    0.462208 0.042232 0.777794 0.277860
H50   H     H_    0.574694 0.011554 0.812702 0.267492
H51   H     H_    0.556492 0.079568 0.726500 0.270583
H52   H     H_    0.316876 0.178592 0.134018 0.168187
H53   H     H_    0.418427 0.226594 0.203751 0.144642
H54   H     H_    0.406865 0.172530 0.018757 0.246000
H55   H     H_    0.510420 0.215672 0.090946 0.227183
H56   H     H_    0.317935 0.658125 0.390109 0.144855
H57   H     H_    0.488375 0.087019 0.176694 0.265117
H58   H     H_    0.494943 0.054192 0.072132 0.270450
H59   H     H_    0.384730 0.042933 0.103918 0.267573
H60   H     H_    0.845911 0.146387 0.486866 0.235628
H61   H     H_    0.726290 0.126319 0.444457 0.108992
H62   H     H_    0.864550 0.993565 0.443095 0.243876
H63   H     H_    0.743758 0.972935 0.397281 0.220726
H64   H     H_    0.766343 0.094165 0.303138 0.260259
H65   H     H_    0.839246 0.011940 0.292079 0.275683
H66   H     H_    0.887713 0.114683 0.348821 0.270100
H67   H     H_    0.868325 0.589935 0.406913 0.173640
H68   H     H_    0.227253 0.853086 0.527721 0.160371
H69   H     H_    0.193196 0.952094 0.482144 0.135249
H70   H     H_    0.116948 0.864103 0.624954 0.234027
H71   H     H_    0.082404 0.959987 0.576001 0.241230
H72   H     H_    0.030118 0.870538 0.440939 0.290238
H73   H     H_    0.971780 0.827620 0.520759 0.249776
H74   H     H_    0.063267 0.774827 0.492391 0.285243
H75   H     H_    0.108936 0.363858 0.529588 0.169376
H76   H     H_    0.353608 0.533877 0.732296 0.187026
N1    N     N_R   0.271750 0.551950 0.454510 -0.119531
N2    N     N_R   0.728250 0.448050 0.545490 -0.123911
O1    O     O_R   0.615140 0.606020 0.522930 -0.622436
O2    O     O_3   0.607029 0.391324 0.746301 -0.643276
O3    O     O_3   0.161130 0.722623 0.346539 -0.583443
O4    O     O_3   0.824311 0.253442 0.619059 -0.598648
O5    O     O_3   0.542992 0.295897 0.868413 -0.662327
O6    O     O_3   0.364854 0.302108 0.106111 -0.667720
O7    O     O_3   0.774427 0.058038 0.549795 -0.619115
O8    O     O_3   0.264440 0.967421 0.603983 -0.644473
O9    O     O_R   0.384860 0.393980 0.477070 -0.615821
O10   O     O_R   0.468580 0.639400 0.493740 -0.624217
O11   O     O_R   0.531420 0.360600 0.506260 -0.620612
O12   O     O_R   0.581950 0.481350 0.400520 -0.606334
O13   O     O_R   0.418050 0.518650 0.599480 -0.616361
O14   O     O_R   0.435380 0.514730 0.371330 -0.597506
O15   O     O_R   0.564620 0.485270 0.628670 -0.568956
O16   O     O_3   0.361257 0.372113 0.263541 -0.642104
Zn1   Zn    Zn3+2 0.597860 0.477710 0.519490 0.948891
Zn2   Zn    Zn3+2 0.402140 0.522290 0.480510 0.934204

loop_
_geom_bond_atom_site_label_1
_geom_bond_atom_site_label_2
_ccdc_geom_bond_type
C25   C31   A    
C40   C47   S    
C66   C68   S    
C51   H19   S    
C43   H6    S    
C20   N1    A    
C61   H41   S    
C73   C74   S    
C14   C18   A    
C23   C76   A    
C4    C8    A    
C12   O11   A    
C62   H46   S    
C65   H52   S    
C7    C8    A    
C39   C41   A    
C53   C54   S    
C15   C19   A    
O15   Zn1   S    
C19   H45   S    
C67   H10   S    
C54   H26   S    
C28   C29   A    
C35   C37   A    
C24   C26   A    
C5    C11   A    
C3    C7    A    
C29   H67   S    
C17   O13   A    
C50   H17   S    
C62   O5    S    
C33   C36   A    
C48   H3    S    
C2    H7    S    
C61   H43   S    
C9    H1    S    
C47   H4    S    
C23   C67   A    
C49   C50   S    
C59   H37   S    
C20   H34   S    
C41   C48   S    
C56   H13   S    
C57   H31   S    
C57   H32   S    
C8    C9    A    
C64   H50   S    
C22   C25   A    
C65   O6    S    
C45   C67   A    
C58   H35   S    
O13   Zn2   S    
C60   H40   S    
C70   C71   S    
C39   O5    S    
C45   H11   S    
C34   C75   A    
O11   Zn1   S    
C21   H23   S    
C2    C34   A    
C51   H20   S    
C55   O3    S    
C59   C60   S    
C56   C75   A    
C53   H25   S    
C27   C30   A    
C19   N2    A    
C41   C43   A    
C74   H74   S    
C68   H59   S    
C42   C44   A    
C65   H53   S    
C31   Cl1   S    
C66   H54   S    
C30   H75   S    
C52   O2    S    
O12   Zn1   S    
C46   H76   S    
N2    Zn1   S    
C36   O16   S    
O10   Zn2   S    
C54   H28   S    
C73   H70   S    
C58   H33   S    
C69   O7    S    
C44   H2    S    
C4    C6    A    
C12   O9    A    
C26   C32   A    
C50   H16   S    
C15   C26   A    
O9    Zn2   S    
C59   H38   S    
C14   O3    S    
C5    C45   A    
C52   H22   S    
C55   H29   S    
C60   C61   S    
C37   O2    S    
C2    C4    A    
C62   C63   S    
C16   C33   S    
C66   H55   S    
C59   O4    S    
C40   C42   A    
C47   C48   D    
C68   H58   S    
C53   H24   S    
C64   H49   S    
C11   O7    S    
C50   C51   S    
C72   O8    S    
C69   H61   S    
C70   H62   S    
C3    C76   A    
C9    C11   A    
C63   H47   S    
C71   H64   S    
N1    Zn2   S    
C75   H9    S    
C20   C22   A    
C1    C23   S    
C22   C27   A    
C55   C57   S    
C60   H39   S    
C74   H73   S    
C49   H14   S    
C12   C34   S    
C76   H8    S    
C62   H44   S    
C52   C53   S    
C13   O8    S    
C71   H65   S    
O14   Zn2   S    
C69   H60   S    
C70   H63   S    
C54   H27   S    
C73   H71   S    
C33   C44   A    
C68   H57   S    
C42   H5    S    
C24   C28   A    
C6    C56   A    
C72   C73   S    
C3    C5    A    
C10   C13   A    
C49   O16   S    
C17   O15   A    
C72   H69   S    
C51   H18   S    
C52   H21   S    
C55   H30   S    
C7    C10   A    
C36   C38   A    
C15   O4    S    
C29   C31   A    
C6    C13   A    
C30   C32   A    
C57   C58   S    
C38   C40   A    
C1    O10   A    
C16   O12   A    
C72   H68   S    
C1    O1    A    
C21   N2    A    
C18   H56   S    
C14   C25   A    
C69   C70   S    
C43   C46   A    
C63   H48   S    
C32   Cl2   S    
C63   C64   S    
C16   O14   A    
C38   O6    S    
C64   H51   S    
C10   H12   S    
C37   C39   A    
C65   C66   S    
C21   C24   A    
C27   C28   A    
C58   H36   S    
C74   H72   S    
C17   C35   S    
C49   H15   S    
C35   C46   A    
C18   N1    A    
O1    Zn1   S    
C71   H66   S    
C61   H42   S    
