data_mof_unit_9853.cif
_audit_creation_date              2013-03-05T16:35:44-0500
_audit_creation_method            fapswitch 2.2
_symmetry_space_group_name_H-M    P1
_symmetry_Int_Tables_number       1
_space_group_crystal_system       triclinic
_cell_length_a                    19.325508
_cell_length_b                    9.09638
_cell_length_c                    7.796428
_cell_angle_alpha                 90.003008
_cell_angle_beta                  90.002236
_cell_angle_gamma                 90.007242
_cell_volume                      1370.5509393

loop_
_atom_site_label
_atom_site_type_symbol
_atom_site_description
_atom_site_fract_x
_atom_site_fract_y
_atom_site_fract_z
_atom_type_partial_charge
O1    O     O_R   0.500000 0.288390 0.642760 -0.577100
O2    O     O_R   0.500000 0.711610 0.357240 -0.577103
O3    O     O_R   0.500000 0.711610 0.642760 -0.574142
O4    O     O_R   0.500000 0.288390 0.357240 -0.574140
C1    C     C_R   0.500000 0.220057 0.499998 0.847274
C2    C     C_R   0.500000 0.779943 0.500002 0.847269
O5    O     O_R   0.400140 0.500000 0.642830 -0.583641
O6    O     O_R   0.599860 0.500000 0.357170 -0.583650
O7    O     O_R   0.599860 0.500000 0.642830 -0.583661
O8    O     O_R   0.400140 0.500000 0.357170 -0.583655
C3    C     C_R   0.367065 0.499989 0.499996 0.800598
C4    C     C_R   0.632935 0.500019 0.500004 0.800608
Cu1   Cu    Cu3+1 0.500000 0.500000 0.669080 0.999607
Cu2   Cu    Cu3+1 0.500000 0.500000 0.330920 0.999604
C5    C     C_1   0.500000 0.065375 0.499997 -0.175131
C6    C     C_1   0.500000 0.934625 0.500003 -0.175128
N1    N     N_1   0.500000 0.500000 0.076820 -0.051016
N2    N     N_1   0.500000 0.500000 0.923180 -0.051015
C7    C     C_R   0.254667 0.452312 0.644999 -0.177699
C8    C     C_R   0.745325 0.547741 0.354969 -0.177692
C9    C     C_R   0.745319 0.452344 0.645061 -0.177644
C10   C     C_R   0.254692 0.547886 0.354992 -0.177645
H1    H     H_    0.282801 0.413946 0.756619 0.160824
H2    H     H_    0.717183 0.586012 0.243314 0.160837
H3    H     H_    0.717171 0.414024 0.756687 0.160845
H4    H     H_    0.282848 0.586240 0.243400 0.160843
C11   C     C_R   0.182258 0.450235 0.645796 0.147204
C12   C     C_R   0.817733 0.549958 0.354198 0.147268
C13   C     C_R   0.817726 0.450086 0.645823 0.147379
C14   C     C_R   0.182286 0.550261 0.354250 0.147401
C15   C     C_R   0.145759 0.500294 0.500024 0.049707
C16   C     C_R   0.854244 0.500031 0.500017 0.049712
C17   C     C_R   0.291062 0.500031 0.499983 -0.117095
C18   C     C_R   0.708940 0.500048 0.500017 -0.117105
N3    N     N_R   0.034429 0.407374 0.396110 -0.233364
N4    N     N_R   0.965574 0.592987 0.603919 -0.233353
N5    N     N_R   0.965602 0.407287 0.396128 -0.233333
N6    N     N_R   0.034401 0.593072 0.603904 -0.233302
C19   C     C_R   0.930145 0.500088 0.500040 0.419357
C20   C     C_R   0.069858 0.500275 0.499984 0.419333
C21   C     C_3   0.144728 0.390953 0.800432 -0.850847
H5    H     H_    0.113019 0.294348 0.762825 0.243798
H6    H     H_    0.181086 0.356164 0.903088 0.234565
H7    H     H_    0.110303 0.477017 0.853602 0.248246
C22   C     C_3   0.855241 0.609336 0.199582 -0.851082
H8    H     H_    0.886792 0.706165 0.237168 0.243821
H9    H     H_    0.889808 0.523476 0.146571 0.248313
H10   H     H_    0.818880 0.643819 0.096801 0.234571
C23   C     C_3   0.855217 0.390437 0.800301 -0.851473
H11   H     H_    0.818859 0.356284 0.903238 0.234562
H12   H     H_    0.886518 0.293329 0.762576 0.243844
H13   H     H_    0.890005 0.475950 0.853169 0.248369
C24   C     C_3   0.144807 0.610062 0.199835 -0.851463
H14   H     H_    0.181172 0.644216 0.096915 0.234543
H15   H     H_    0.109982 0.524637 0.146916 0.248342
H16   H     H_    0.113544 0.707200 0.237652 0.243834

loop_
_geom_bond_atom_site_label_1
_geom_bond_atom_site_label_2
_geom_bond_distance
_ccdc_geom_bond_type
O5    Cu1   1.940661 S    
C7    H1    1.083865 S    
C2    C6    1.407045 S    
C7    C11   1.399478 A    
C21   H5    1.110647 S    
C11   C21   1.506768 S    
C24   H15   1.107610 S    
C8    C12   1.399473 A    
O3    Cu1   1.935803 S    
C12   C16   1.413037 A    
O6    C4    1.283982 A    
O3    C2    1.274840 A    
C8    C18   1.400546 A    
C21   H7    1.107900 S    
C23   H13   1.107592 S    
N4    N6    1.330127 A    
N1    N2    1.197844 T    
N5    C19   1.355939 A    
C13   C23   1.506642 S    
Cu1   Cu2   2.636441 S    
C24   H16   1.110328 S    
N6    C20   1.355944 A    
C21   H6    1.111046 S    
Cu2   N1    1.981072 S    
O2    C2    1.274809 A    
C9    C13   1.399476 A    
Cu1   N2    1.981072 S    
O1    C1    1.274809 A    
O7    C4    1.283972 A    
O5    C3    1.283979 A    
C13   C16   1.413054 A    
C22   H9    1.107781 S    
O4    Cu2   1.935804 S    
C14   C15   1.413012 A    
O2    Cu2   1.935781 S    
C14   C24   1.506636 S    
O6    Cu2   1.940659 S    
C12   C22   1.506751 S    
C1    C5    1.407045 S    
O1    Cu1   1.935782 S    
O8    C3    1.283968 A    
C4    C18   1.468822 S    
C5    C6    1.189347 T    
C22   H8    1.110532 S    
C3    C17   1.468806 S    
C15   C20   1.466823 S    
C23   H11   1.110986 S    
C10   H4    1.083849 S    
C16   C19   1.466831 S    
N3    C20   1.355920 A    
C10   C17   1.400498 A    
O7    Cu1   1.940675 S    
C22   H10   1.111007 S    
C9    H3    1.083881 S    
C9    C18   1.400505 A    
C10   C14   1.399472 A    
N3    N5    1.330115 A    
C7    C17   1.400503 A    
C24   H14   1.110989 S    
C11   C15   1.413019 A    
N4    C19   1.355933 A    
C8    H2    1.083877 S    
O8    Cu2   1.940676 S    
O4    C1    1.274840 A    
C23   H12   1.110323 S    
