data_mof_unit_23401.cif
_audit_creation_date              2012-10-26T19:00:10-0400
_audit_creation_method            fapswitch 2.2
_symmetry_space_group_name_H-M    P1
_symmetry_Int_Tables_number       1
_space_group_crystal_system       triclinic
_cell_length_a                    10.827887
_cell_length_b                    10.815609
_cell_length_c                    9.540785
_cell_angle_alpha                 90.558504
_cell_angle_beta                  90.357147
_cell_angle_gamma                 89.821091
_cell_volume                      1117.24313802

loop_
_atom_site_label
_atom_site_type_symbol
_atom_type_description
_atom_site_fract_x
_atom_site_fract_y
_atom_site_fract_z
_atom_type_partial_charge
C1    C     C_R   0.498124 0.262491 0.499221 0.546353
C2    C     C_R   0.842478 0.299766 0.954300 -0.112510
C3    C     C_R   0.782188 0.192322 0.908988 -0.105225
C4    C     C_R   0.262295 0.502766 0.499524 0.543978
C5    C     C_R   0.772935 0.165059 0.765756 -0.109702
C6    C     C_R   0.821253 0.246476 0.667593 -0.060639
C7    C     C_R   0.882011 0.354518 0.712370 0.052325
C8    C     C_R   0.431289 0.064936 0.601893 0.017027
C9    C     C_R   0.489151 0.129575 0.495013 0.008822
C10   C     C_R   0.531499 0.063441 0.377112 -0.171686
C11   C     C_R   0.532795 0.934576 0.378143 -0.170907
C12   C     C_R   0.244845 0.707350 0.033208 -0.098599
C13   C     C_R   0.492377 0.870993 0.497316 0.004743
C14   C     C_R   0.433964 0.938020 0.603539 0.013865
C15   C     C_3   0.443397 0.934532 0.759490 -0.271204
C16   C     C_R   0.499385 0.737686 0.500212 0.543181
C17   C     C_3   0.437706 0.075134 0.757847 -0.278206
C18   C     C_R   0.549087 0.597024 0.074880 0.166161
C19   C     C_R   0.440250 0.410829 0.073057 -0.004659
C20   C     C_R   0.440291 0.410804 0.924160 -0.010736
C21   C     C_R   0.547818 0.597774 0.927555 0.151394
C22   C     C_3   0.676620 0.645110 0.921528 -0.276241
C23   C     C_R   0.932210 0.555342 0.392503 -0.157956
C24   C     C_3   0.679364 0.641133 0.080460 -0.280734
C25   C     C_R   0.737630 0.496910 0.500456 0.545070
C26   C     C_R   0.255156 0.767402 0.163178 -0.096398
C27   C     C_R   0.192003 0.721907 0.279123 -0.054747
C28   C     C_R   0.118959 0.615330 0.265161 0.051023
C29   C     C_R   0.107405 0.557010 0.133648 -0.099394
C30   C     C_R   0.170393 0.602925 0.018113 -0.114248
C31   C     C_R   0.871533 0.495141 0.501106 -0.004538
C32   C     C_R   0.939591 0.436610 0.608333 -0.033012
C33   C     C_R   0.067496 0.445997 0.608425 -0.154703
C34   C     C_R   0.128265 0.505256 0.498982 -0.001136
C35   C     C_R   0.060120 0.559203 0.388564 -0.032917
C36   C     C_R   0.893972 0.379689 0.856413 -0.108508
Cu1   Cu    Cu3+1 0.499990 0.499980 0.640670 0.935453
Cu2   Cu    Cu3+1 0.500010 0.500020 0.359330 0.937337
H1    H     H_    0.295613 0.740398 0.944379 0.102896
H2    H     H_    0.313364 0.848095 0.174462 0.105333
H3    H     H_    0.393352 0.337732 0.867376 0.108588
H4    H     H_    0.741307 0.578891 0.871509 0.165854
H5    H     H_    0.680721 0.740519 0.879819 0.112731
H6    H     H_    0.743927 0.569739 0.120943 0.143904
H7    H     H_    0.687794 0.733994 0.130346 0.113597
H8    H     H_    0.202326 0.767517 0.380080 0.096230
H9    H     H_    0.052425 0.474069 0.121876 0.093742
H10   H     H_    0.163241 0.556420 0.917428 0.111870
H11   H     H_    0.879884 0.600437 0.310418 0.119178
H12   H     H_    0.743459 0.129772 0.984795 0.096427
H13   H     H_    0.120257 0.400036 0.689875 0.122300
H14   H     H_    0.941614 0.461976 0.892388 0.088545
H15   H     H_    0.850187 0.320630 0.065209 0.105508
H16   H     H_    0.350627 0.112654 0.802664 0.123915
H17   H     H_    0.393535 0.337553 0.127672 0.114629
H18   H     H_    0.728789 0.080568 0.730544 0.101346
H19   H     H_    0.813339 0.224308 0.556930 0.093547
H20   H     H_    0.569894 0.110730 0.287836 0.126432
H21   H     H_    0.571294 0.885420 0.289064 0.123672
H22   H     H_    0.360248 0.893125 0.806720 0.129544
H23   H     H_    0.533481 0.897716 0.797099 0.131624
H24   H     H_    0.522904 0.120368 0.797365 0.145705
N1    N     N_R   0.500790 0.500930 0.147930 -0.225159
N2    N     N_R   0.500790 0.500890 0.852020 -0.228016
O1    O     O_R   0.500000 0.319640 0.618810 -0.502658
O2    O     O_R   0.500010 0.319680 0.381230 -0.516057
O3    O     O_R   0.319640 0.499990 0.618790 -0.515500
O4    O     O_R   0.319650 0.500030 0.381210 -0.485987
O5    O     O_R   0.499990 0.680320 0.618770 -0.501576
O6    O     O_R   0.500000 0.680360 0.381190 -0.505428
O7    O     O_R   0.680350 0.499970 0.618790 -0.491468
O8    O     O_R   0.680360 0.500010 0.381210 -0.513391

loop_
_geom_bond_atom_site_label_1
_geom_bond_atom_site_label_2
_ccdc_geom_bond_type
C20   N2    A    
C4    O3    A    
C1    O1    A    
Cu2   O6    S    
C25   C31   S    
C29   C30   A    
C25   O7    A    
Cu1   O5    S    
C17   H24   S    
C33   H13   S    
C18   C21   A    
C9    C10   A    
C19   C20   A    
C5    H18   S    
C23   C35   A    
C22   H5    S    
C36   H14   S    
C33   C34   A    
C32   C33   A    
C11   H21   S    
C12   H1    S    
C20   H3    S    
C15   H23   S    
C1    C9    S    
C25   O8    A    
C21   C22   S    
C8    C17   S    
C11   C13   A    
C6    H19   S    
C26   H2    S    
C26   C27   A    
C22   H4    S    
C29   H9    S    
C34   C35   A    
C18   C24   S    
C24   H7    S    
Cu1   O3    S    
C27   H8    S    
C30   H10   S    
C28   C29   A    
C10   H20   S    
Cu1   Cu2   S    
Cu2   O4    S    
C1    O2    A    
C6    C7    A    
C2    C3    A    
C2    C36   A    
Cu1   O7    S    
C4    C34   S    
C5    C6    A    
C24   H6    S    
C22   C24   S    
C18   N1    A    
C23   H11   S    
C10   C11   A    
C19   H17   S    
C23   C31   A    
Cu2   O2    S    
Cu2   O8    S    
Cu1   N2    S    
C16   O6    A    
C4    O4    A    
Cu2   N1    S    
C7    C36   A    
C13   C16   S    
C12   C26   A    
C27   C28   A    
C15   C17   S    
C14   C15   S    
C21   N2    A    
C8    C14   A    
C7    C32   S    
C12   C30   A    
C13   C14   A    
C17   H16   S    
C3    H12   S    
C15   H22   S    
C16   O5    A    
C31   C32   A    
C28   C35   S    
C19   N1    A    
C8    C9    A    
C3    C5    A    
C2    H15   S    
Cu1   O1    S    
