data_mof_unit_7366.cif
_audit_creation_date              2013-03-05T15:48:05-0500
_audit_creation_method            fapswitch 2.2
_symmetry_space_group_name_H-M    P1
_symmetry_Int_Tables_number       1
_space_group_crystal_system       triclinic
_cell_length_a                    15.027529
_cell_length_b                    12.984915
_cell_length_c                    11.771358
_cell_angle_alpha                 99.42668
_cell_angle_beta                  92.347931
_cell_angle_gamma                 91.929727
_cell_volume                      2262.13758993

loop_
_atom_site_label
_atom_site_type_symbol
_atom_site_description
_atom_site_fract_x
_atom_site_fract_y
_atom_site_fract_z
_atom_type_partial_charge
O1    O     O_R   0.504720 0.354460 0.582000 -0.561666
O2    O     O_R   0.495280 0.645540 0.418000 -0.559778
O3    O     O_R   0.493480 0.341410 0.386200 -0.586077
O4    O     O_R   0.506520 0.658590 0.613800 -0.587941
C1    C     C_R   0.498186 0.299393 0.478943 0.850772
C2    C     C_R   0.500986 0.700595 0.521126 0.832346
O5    O     O_R   0.375880 0.506510 0.597910 -0.500925
O6    O     O_R   0.624120 0.493490 0.402090 -0.506246
O7    O     O_R   0.364640 0.493450 0.402110 -0.608499
O8    O     O_R   0.635360 0.506550 0.597890 -0.610158
C3    C     C_R   0.329342 0.502519 0.501909 0.847507
C4    C     C_R   0.670810 0.498016 0.498362 0.863443
Cu1   Cu    Cu3+1 0.506660 0.507730 0.615930 1.050003
Cu2   Cu    Cu3+1 0.493340 0.492270 0.384070 1.050067
C5    C     C_R   0.816984 0.569193 0.573421 -0.219114
C6    C     C_R   0.183845 0.421757 0.437453 -0.213450
C7    C     C_R   0.767275 0.494356 0.496215 -0.141437
C8    C     C_R   0.233114 0.502933 0.506252 -0.139493
C9    C     C_R   0.809243 0.416770 0.421314 0.315606
C10   C     C_R   0.190933 0.583574 0.576315 0.327126
C11   C     C_R   0.903575 0.412361 0.428689 -0.099557
C12   C     C_R   0.096904 0.578269 0.582030 -0.088357
C13   C     C_R   0.953333 0.493347 0.503761 0.016684
C14   C     C_R   0.047259 0.496819 0.507605 0.011363
C15   C     C_R   0.909278 0.570926 0.575793 0.079236
C16   C     C_R   0.091461 0.418864 0.436319 0.077875
C17   C     C_R   0.950405 0.330391 0.364886 0.340349
C18   C     C_R   0.050411 0.651590 0.658361 0.344682
C19   C     C_R   0.043287 0.336686 0.366911 -0.204575
C20   C     C_R   0.957547 0.648278 0.652185 -0.210349
H1    H     H_    0.783147 0.628141 0.630331 0.161166
H2    H     H_    0.218045 0.360723 0.383964 0.158801
H3    H     H_    0.078308 0.274357 0.316886 0.189965
H4    H     H_    0.922734 0.704887 0.710611 0.191037
C21   C     C_R   0.501699 0.814033 0.533323 -0.042134
C22   C     C_R   0.495938 0.185942 0.467004 -0.037634
C23   C     C_R   0.475520 0.015594 0.347830 -0.139979
C24   C     C_R   0.520903 0.984395 0.652748 -0.140096
C25   C     C_R   0.478892 0.123784 0.358430 -0.131205
C26   C     C_R   0.518409 0.876201 0.641967 -0.134276
C27   C     C_R   0.510092 0.139249 0.564900 -0.168597
C28   C     C_R   0.486396 0.860741 0.435678 -0.159744
C29   C     C_R   0.506853 0.031145 0.554997 0.145090
C30   C     C_R   0.489372 0.968848 0.445626 0.144553
H5    H     H_    0.472281 0.813257 0.351768 0.185718
H6    H     H_    0.523864 0.186754 0.648901 0.182297
H7    H     H_    0.530236 0.841366 0.718483 0.179415
H8    H     H_    0.467654 0.158636 0.281808 0.177997
H9    H     H_    0.462160 0.968636 0.263492 0.167369
H10   H     H_    0.534206 0.031349 0.737099 0.166365
N1    N     N_R   0.516670 0.519360 0.790130 -0.260713
N2    N     N_R   0.483330 0.480640 0.209870 -0.263850
C31   C     C_R   0.409584 0.406261 0.029695 0.228004
C32   C     C_R   0.592107 0.592264 0.969782 0.230012
C33   C     C_R   0.419225 0.416617 0.149547 -0.016469
C34   C     C_R   0.582253 0.581443 0.849876 -0.020594
C35   C     C_R   0.542369 0.536726 0.154378 0.513951
C36   C     C_R   0.456816 0.465012 0.846268 0.513959
C37   C     C_R   0.534678 0.533055 0.031907 -0.175249
C38   C     C_R   0.465962 0.467134 0.968287 -0.179487
H11   H     H_    0.626447 0.625323 0.803408 0.167665
H12   H     H_    0.375989 0.371123 0.195500 0.167793
Br1   Br    Br    0.321481 0.299790 0.963603 -0.334397
Br2   Br    Br    0.684186 0.694677 0.033530 -0.327931
N3    N     N_R   0.756003 0.346213 0.336508 0.159285
O9    O     O_R   0.765209 0.347539 0.227327 -0.253479
O10   O     O_R   0.694203 0.285682 0.368069 -0.338298
N4    N     N_R   0.242120 0.676622 0.626250 0.125077
O11   O     O_R   0.230720 0.762986 0.585937 -0.314026
O12   O     O_R   0.301235 0.675195 0.709792 -0.268791
N5    N     N_R   0.906479 0.235632 0.306283 0.167920
O13   O     O_R   0.861377 0.176993 0.365020 -0.268776
O14   O     O_R   0.928121 0.196618 0.202586 -0.265785
N6    N     N_R   0.095145 0.723918 0.749565 0.170393
O15   O     O_R   0.141503 0.688447 0.829513 -0.251393
O16   O     O_R   0.073331 0.821184 0.767247 -0.266549
N7    N     N_R   0.380038 0.414720 0.782605 0.160945
O17   O     O_R   0.383732 0.320482 0.725486 -0.335264
O18   O     O_R   0.303306 0.457984 0.793933 -0.274626
N8    N     N_R   0.615062 0.593961 0.220424 0.159064
O19   O     O_R   0.606633 0.690997 0.266574 -0.337720
O20   O     O_R   0.693855 0.555236 0.217327 -0.276211

loop_
_geom_bond_atom_site_label_1
_geom_bond_atom_site_label_2
_geom_bond_distance
_ccdc_geom_bond_type
C26   H7    1.083145 S    
C1    C22   1.455852 S    
C3    C8    1.449213 S    
C17   C19   1.394433 A    
O7    Cu2   1.954593 S    
C18   N6    1.433405 S    
N7    O17   1.300243 A    
O5    C3    1.297095 A    
N6    O16   1.301272 A    
O1    C1    1.301521 A    
C9    C11   1.420326 A    
C14   C16   1.408077 A    
C5    C15   1.385430 A    
C36   C38   1.432932 A    
C33   H12   1.082293 S    
C19   H3    1.084768 S    
C2    C21   1.456001 S    
N1    C34   1.349001 A    
O4    Cu1   1.963237 S    
C21   C28   1.399267 A    
C36   N7    1.427367 S    
Cu1   N1    2.030280 S    
Cu2   N2    2.030278 S    
N4    O11   1.301060 A    
N3    O10   1.301173 A    
C4    C7    1.453135 S    
C27   H6    1.084390 S    
N2    C33   1.349071 A    
N7    O18   1.301807 A    
C11   C17   1.422707 A    
C37   C38   1.423723 A    
C12   C18   1.420539 A    
Cu1   Cu2   2.702321 S    
C27   C29   1.388420 A    
C35   N8    1.427076 S    
C22   C27   1.399383 A    
O2    C2    1.301966 A    
C28   C30   1.388437 A    
C31   C38   1.434342 A    
C32   C37   1.435931 A    
C31   C33   1.396167 A    
C6    C16   1.387004 A    
C32   C34   1.396555 A    
N6    O15   1.301149 A    
C20   H4    1.084803 S    
O4    C2    1.298076 A    
N5    O14   1.301324 A    
C28   H5    1.084117 S    
C29   C30   1.413403 A    
C23   H9    1.083888 S    
O6    C4    1.300102 A    
N1    C36   1.379293 A    
O7    C3    1.298177 A    
O3    Cu2   1.963239 S    
O8    C4    1.296628 A    
N8    O20   1.301468 A    
C10   C12   1.417274 A    
C11   C13   1.426329 A    
C12   C14   1.425635 A    
O1    Cu1   1.963673 S    
C17   N5    1.433711 S    
C15   C20   1.394717 A    
C5    C7    1.390849 A    
O6    Cu2   1.967308 S    
C10   N4    1.436920 S    
C22   C25   1.404225 A    
N8    O19   1.300364 A    
O3    C1    1.298417 A    
O8    Cu1   1.954593 S    
C5    H1    1.086001 S    
C24   H10   1.083891 S    
C6    H2    1.085899 S    
C23   C30   1.398144 A    
C18   C20   1.393279 A    
C21   C26   1.404323 A    
C24   C29   1.398089 A    
C23   C25   1.388869 A    
C24   C26   1.388846 A    
C31   Br1   1.926011 S    
C32   Br2   1.926217 S    
C7    C9    1.409776 A    
C9    N3    1.435849 S    
C8    C10   1.408230 A    
C13   C15   1.408240 A    
O2    Cu2   1.963674 S    
C35   C37   1.434376 A    
N2    C35   1.379861 A    
C13   C14   1.409314 A    
O5    Cu1   1.967305 S    
N5    O13   1.301265 A    
C16   C19   1.394336 A    
C6    C8    1.390603 A    
N3    O9    1.301103 A    
N4    O12   1.300799 A    
C34   H11   1.082255 S    
C25   H8    1.083145 S    
