data_mof_unit_52516.cif
_audit_creation_date              2012-12-10T17:55:52-0500
_audit_creation_method            fapswitch 2.2
_symmetry_space_group_name_H-M    P1
_symmetry_Int_Tables_number       1
_space_group_crystal_system       triclinic
_cell_length_a                    11.03329
_cell_length_b                    10.8301
_cell_length_c                    9.595524
_cell_angle_alpha                 89.922646
_cell_angle_beta                  102.637821
_cell_angle_gamma                 92.139418
_cell_volume                      1117.99882492

loop_
_atom_site_label
_atom_site_type_symbol
_atom_type_description
_atom_site_fract_x
_atom_site_fract_y
_atom_site_fract_z
_atom_type_partial_charge
C1    C     C_R   0.497553 0.262294 0.499403 0.775640
C2    C     C_R   0.496129 0.737593 0.499001 0.751544
C3    C     C_R   0.263002 0.502126 0.441890 0.832027
C4    C     C_R   0.737179 0.502073 0.558000 0.857560
C5    C     C_R   0.420661 0.421090 0.054849 0.399896
C6    C     C_R   0.586348 0.570795 0.946795 0.406979
C7    C     C_R   0.422996 0.418969 0.905709 0.401506
C8    C     C_R   0.586807 0.570208 0.096295 0.401604
C9    C     C_2   0.127920 0.504503 0.408787 -0.370289
C10   C     C_2   0.872506 0.509382 0.590148 -0.370080
C11   C     C_2   0.067580 0.520577 0.513342 -0.174968
C12   C     C_2   0.932776 0.512053 0.483532 -0.138155
C13   C     C_R   0.488323 0.063930 0.370544 -0.167830
C14   C     C_R   0.485654 0.935800 0.622671 -0.207686
C15   C     C_R   0.485969 0.936132 0.370071 -0.206788
C16   C     C_R   0.488124 0.063589 0.623526 -0.173389
C17   C     C_R   0.489173 0.871442 0.497198 -0.016468
C18   C     C_R   0.491922 0.128279 0.498005 -0.029970
Cu1   Cu    Cu3+1 0.500000 0.500020 0.640660 0.998055
Cu2   Cu    Cu3+1 0.500000 0.499980 0.359340 0.996532
H1    H     H_    0.882679 0.505424 0.372701 0.224545
H2    H     H_    0.117766 0.537571 0.622618 0.172332
H3    H     H_    0.923052 0.513975 0.700939 0.156899
H4    H     H_    0.077366 0.490526 0.298929 0.150165
H5    H     H_    0.487919 0.111963 0.271366 0.186019
H6    H     H_    0.481085 0.887898 0.720194 0.141740
H7    H     H_    0.481673 0.888497 0.270298 0.141137
H8    H     H_    0.487665 0.111317 0.722497 0.190744
N1    N     N_R   0.500030 0.500030 0.852080 -0.281197
N2    N     N_R   0.499970 0.499970 0.147920 -0.279804
O1    O     O_R   0.499990 0.319660 0.618740 -0.538778
O2    O     O_R   0.500010 0.680340 0.381260 -0.585990
O3    O     O_R   0.499990 0.319630 0.381170 -0.541027
O4    O     O_R   0.500010 0.680370 0.618830 -0.585640
O5    O     O_R   0.320690 0.500020 0.575130 -0.575391
O6    O     O_R   0.679310 0.499980 0.424870 -0.532246
O7    O     O_R   0.320680 0.499990 0.337560 -0.573235
O8    O     O_R   0.679320 0.500010 0.662440 -0.525327
O9    O     O_3   0.360091 0.325009 0.110673 -0.532154
C19   C     C_3   0.232763 0.348059 0.097343 -0.230129
H9    H     H_    0.174856 0.283149 0.019634 0.138489
H10   H     H_    0.206845 0.444964 0.068663 0.118211
H11   H     H_    0.206853 0.325089 0.199815 0.174958
O10   O     O_3   0.690437 0.617422 0.903119 -0.524925
C20   C     C_3   0.686274 0.746476 0.883416 -0.220308
H12   H     H_    0.770120 0.791283 0.952000 0.148847
H13   H     H_    0.602086 0.789124 0.905457 0.094007
H14   H     H_    0.693195 0.767901 0.772467 0.176696
O11   O     O_3   0.375260 0.315307 0.824878 -0.538496
C21   C     C_3   0.245724 0.319579 0.772283 -0.214975
H15   H     H_    0.225169 0.313480 0.654257 0.181295
H16   H     H_    0.202266 0.402839 0.805091 0.097911
H17   H     H_    0.200775 0.235025 0.806231 0.152449
O12   O     O_3   0.691608 0.616026 0.191581 -0.538430
C22   C     C_3   0.687257 0.744654 0.211970 -0.219455
H18   H     H_    0.694799 0.763967 0.326925 0.179390
H19   H     H_    0.602831 0.787899 0.148872 0.096003
H20   H     H_    0.770788 0.790516 0.185863 0.149954

loop_
_geom_bond_atom_site_label_1
_geom_bond_atom_site_label_2
_ccdc_geom_bond_type
C16   H8    S    
C21   H16   S    
C11   C12   S    
C4    O6    A    
C9    H4    S    
C7    N1    A    
Cu1   O8    S    
C10   H3    S    
C11   H2    S    
C15   H7    S    
Cu1   Cu2   S    
C13   C15   A    
C3    O5    A    
C22   H18   S    
Cu1   O1    S    
C8    N2    A    
C2    O4    A    
C5    O9    S    
C21   H15   S    
C1    O3    A    
C22   H19   S    
C6    O10   S    
C20   H12   S    
C14   H6    S    
C2    C17   S    
Cu2   N2    S    
Cu2   O7    S    
C9    C11   D    
C14   C17   A    
C3    O7    A    
C1    C18   S    
C10   C12   D    
C13   C18   A    
C3    C9    S    
Cu2   O3    S    
C19   H10   S    
C19   H9    S    
C4    O8    A    
Cu1   O5    S    
O11   C21   S    
C5    C7    A    
C20   H13   S    
C14   C16   A    
C20   H14   S    
C21   H17   S    
C4    C10   S    
Cu1   N1    S    
C1    O1    A    
C6    N1    A    
O10   C20   S    
C7    O11   S    
C2    O2    A    
C5    N2    A    
Cu2   O2    S    
C22   H20   S    
C8    O12   S    
O9    C19   S    
C15   C17   A    
O12   C22   S    
C6    C8    A    
C12   H1    S    
Cu1   O4    S    
C16   C18   A    
C13   H5    S    
C19   H11   S    
Cu2   O6    S    
