data_mof_unit_36205.cif
_audit_creation_date              2012-12-11T15:09:46-0500
_audit_creation_method            fapswitch 2.2
_symmetry_space_group_name_H-M    P1
_symmetry_Int_Tables_number       1
_space_group_crystal_system       triclinic
_cell_length_a                    20.90547
_cell_length_b                    7.128701
_cell_length_c                    14.030341
_cell_angle_alpha                 89.788801
_cell_angle_beta                  98.047746
_cell_angle_gamma                 90.323698
_cell_volume                      2070.29166165

loop_
_atom_site_label
_atom_site_type_symbol
_atom_type_description
_atom_site_fract_x
_atom_site_fract_y
_atom_site_fract_z
_atom_type_partial_charge
O1    O     O_R   0.447130 0.507140 0.597350 -0.539523
O2    O     O_R   0.552870 0.007140 0.402650 -0.533591
O3    O     O_R   0.578910 0.181280 0.586990 -0.537548
O4    O     O_R   0.421090 0.681280 0.413010 -0.539494
C1    C     C_R   0.604498 0.344688 0.607364 0.727745
C2    C     C_R   0.395499 0.844294 0.392643 0.726925
O5    O     O_R   0.449230 0.177860 0.608640 -0.537502
O6    O     O_R   0.550770 0.677860 0.391360 -0.543398
O7    O     O_R   0.422260 0.000770 0.424450 -0.533463
O8    O     O_R   0.577740 0.500770 0.575550 -0.535207
C3    C     C_R   0.432964 0.345567 0.634850 0.695497
C4    C     C_R   0.567006 0.847107 0.365165 0.695707
O9    O     O_3   0.491310 0.336980 0.439550 -0.375909
O10   O     O_3   0.508690 0.836980 0.560450 -0.375499
V1    V     V_3+5 0.501610 0.064760 0.511210 1.449843
V2    V     V_3+5 0.498390 0.564760 0.488790 1.436176
C5    C     C_R   0.622265 0.950523 0.127818 -0.158038
C6    C     C_R   0.378702 0.303428 0.877318 -0.157628
H1    H     H_    0.530712 0.949593 0.180277 0.105441
H2    H     H_    0.470281 0.294676 0.825133 0.104659
H3    H     H_    0.707165 0.983120 0.005470 0.125973
H4    H     H_    0.294120 0.300563 0.000986 0.125796
H5    H     H_    0.601089 0.992728 0.056046 0.113358
H6    H     H_    0.400321 0.282004 0.951361 0.113244
C7    C     C_R   0.607876 0.861166 0.289312 -0.059941
C8    C     C_R   0.392151 0.349098 0.710993 -0.058721
C9    C     C_R   0.921836 0.825130 0.304727 -0.214011
C10   C     C_R   0.077827 0.366111 0.693886 -0.213959
C11   C     C_R   0.886257 0.827582 0.380949 -0.193106
C12   C     C_R   0.113499 0.344892 0.618522 -0.193143
C13   C     C_R   0.819018 0.855452 0.365329 0.350025
C14   C     C_R   0.181046 0.324625 0.635829 0.349961
C15   C     C_R   0.786037 0.868075 0.269068 0.040392
C16   C     C_R   0.214091 0.339604 0.731944 0.040625
C17   C     C_R   0.824111 0.881083 0.192294 0.008152
C18   C     C_R   0.176119 0.345712 0.808974 0.008273
C19   C     C_R   0.717066 0.876133 0.245714 0.085483
C20   C     C_R   0.283125 0.340983 0.755475 0.085929
C21   C     C_R   0.689240 0.925737 0.150566 0.128938
C22   C     C_R   0.311463 0.318819 0.853171 0.129054
C23   C     C_R   0.728149 0.948117 0.078406 -0.200263
C24   C     C_R   0.272776 0.314497 0.926311 -0.199923
C25   C     C_R   0.794192 0.920429 0.098113 -0.173414
C26   C     C_R   0.206432 0.333624 0.904966 -0.172434
C27   C     C_R   0.674237 0.831154 0.312048 -0.166385
C28   C     C_R   0.325457 0.369562 0.686468 -0.165479
C29   C     C_R   0.582047 0.923778 0.197766 -0.169528
C30   C     C_R   0.418653 0.312958 0.806062 -0.169677
C31   C     C_R   0.891792 0.857270 0.211184 -0.071532
C32   C     C_R   0.108175 0.360922 0.788727 -0.071140
H7    H     H_    0.690417 0.769607 0.381348 0.168057
H8    H     H_    0.308596 0.411199 0.613484 0.167361
H9    H     H_    0.973688 0.805904 0.319265 0.121438
H10   H     H_    0.025759 0.378594 0.678236 0.121205
H11   H     H_    0.911764 0.813535 0.453300 0.117549
H12   H     H_    0.087888 0.338079 0.545953 0.117473
H13   H     H_    0.821833 0.934019 0.038698 0.123700
H14   H     H_    0.178915 0.335068 0.964829 0.122751
C33   C     C_1   0.166578 0.857633 0.168367 -0.191237
C34   C     C_1   0.833413 0.356599 0.831668 -0.191691
C35   C     C_1   0.218968 0.855159 0.219498 0.004825
C36   C     C_1   0.781023 0.354559 0.780531 0.005107
C37   C     C_1   0.280715 0.853245 0.279533 0.009160
C38   C     C_1   0.719283 0.353606 0.720479 0.009955
C39   C     C_1   0.333084 0.850657 0.330725 -0.185783
C40   C     C_1   0.666917 0.351558 0.669272 -0.185440
O11   O     O_R   0.922300 0.202240 0.924350 -0.534473
O12   O     O_R   0.077700 0.702240 0.075650 -0.532893
O13   O     O_R   0.050780 0.535130 0.891350 -0.540443
O14   O     O_R   0.949220 0.035130 0.108650 -0.540749
C41   C     C_R   0.067567 0.368592 0.865529 0.697800
C42   C     C_R   0.932439 0.867463 0.134438 0.697450
O15   O     O_R   0.921100 0.531560 0.912990 -0.537588
O16   O     O_R   0.078900 0.031560 0.087010 -0.539123
O17   O     O_R   0.947120 0.708470 0.097370 -0.537706
O18   O     O_R   0.052880 0.208470 0.902630 -0.537886
C43   C     C_R   0.895876 0.363345 0.893450 0.714769
C44   C     C_R   0.104123 0.863762 0.106560 0.714929
O19   O     O_3   0.008710 0.375800 0.060400 -0.374370
O20   O     O_3   0.991290 0.875800 0.939600 -0.374055
V3    V     V_3+5 0.998380 0.648080 0.988790 1.431137
V4    V     V_3+5 0.001620 0.148080 0.011210 1.427317
O21   O     O_3   0.786881 0.887350 0.443248 -0.663531
H15   H     H_    0.817254 0.875251 0.503917 0.285549
O22   O     O_3   0.213631 0.273501 0.560921 -0.663621
H16   H     H_    0.183166 0.267637 0.500075 0.285322

loop_
_geom_bond_atom_site_label_1
_geom_bond_atom_site_label_2
_ccdc_geom_bond_type
C20   C22   A    
C37   C39   T    
C9    C11   A    
O11   C43   A    
O2    C4    A    
C2    O7    A    
O3    V1    S    
C21   C23   A    
O22   H16   S    
O5    C3    A    
C5    H5    S    
C6    H6    S    
O12   V3    S    
C41   O18   A    
O20   V3    S    
H1    C29   S    
C27   H7    S    
C28   H8    S    
C13   O21   S    
C34   C36   T    
C5    C21   A    
O13   C41   A    
C6    C22   A    
C36   C38   S    
C10   C32   A    
C2    C39   S    
C26   H14   S    
C31   C42   S    
O1    C3    A    
C17   C31   A    
C13   C15   A    
C17   C25   A    
C7    C29   A    
C8    C30   A    
O5    V1    S    
O6    V2    S    
C23   C25   A    
C24   C26   A    
O16   V4    S    
C42   O17   A    
C33   C44   S    
O15   V3    S    
O12   C44   A    
C34   C43   S    
C33   C35   T    
O20   V4    S    
O18   V4    S    
O19   V3    S    
C10   H10   S    
O17   V3    S    
C11   H11   S    
C3    C8    S    
C12   H12   S    
C15   C19   A    
C14   C16   A    
O4    V2    S    
C32   C41   S    
O21   H15   S    
O6    C4    A    
C35   C37   S    
C25   H13   S    
O1    V2    S    
O2    V1    S    
H2    C30   S    
H3    C23   S    
O4    C2    A    
C18   C26   A    
C19   C27   A    
C7    C27   A    
C18   C32   A    
C16   C20   A    
C5    C29   A    
C1    C40   S    
O3    C1    A    
C6    C30   A    
O19   V4    S    
C9    H9    S    
C4    C7    S    
C10   C12   A    
O7    V1    S    
C1    O8    A    
C11   C13   A    
O8    V2    S    
C12   C14   A    
H4    C24   S    
C14   O22   S    
C22   C24   A    
C15   C17   A    
C16   C18   A    
O14   V4    S    
C20   C28   A    
O13   V3    S    
C8    C28   A    
O11   V4    S    
C19   C21   A    
O16   C44   A    
O9    V2    S    
O15   C43   A    
O10   V1    S    
O14   C42   A    
C9    C31   A    
C38   C40   T    
