data_mof_unit_46347.cif
_audit_creation_date              2012-10-26T17:10:34-0400
_audit_creation_method            fapswitch 2.2
_symmetry_space_group_name_H-M    P1
_symmetry_Int_Tables_number       1
_space_group_crystal_system       triclinic
_cell_length_a                    16.86221
_cell_length_b                    16.812641
_cell_length_c                    16.931341
_cell_angle_alpha                 67.556302
_cell_angle_beta                  67.305666
_cell_angle_gamma                 67.650214
_cell_volume                      3937.2262527

loop_
_atom_site_label
_atom_site_type_symbol
_atom_type_description
_atom_site_fract_x
_atom_site_fract_y
_atom_site_fract_z
_atom_type_partial_charge
C1    C     C_R   0.606276 0.998945 0.604788 0.117350
C2    C     C_R   0.404504 0.977583 0.399672 0.134100
C3    C     C_R   0.055260 0.586090 0.590168 0.135098
C4    C     C_R   0.017108 0.389188 0.390120 0.141445
C5    C     C_R   0.599359 0.597699 0.016037 0.214260
C6    C     C_R   0.402820 0.403659 0.978452 0.180224
C7    C     C_R   0.016573 0.831000 0.568728 0.849704
C8    C     C_R   0.972445 0.171151 0.434915 0.833405
C9    C     C_R   0.829147 0.565531 0.026107 0.831870
C10   C     C_R   0.170794 0.434147 0.974519 0.824217
C11   C     C_R   0.568026 0.021175 0.830398 0.816359
C12   C     C_R   0.435774 0.969378 0.170949 0.822300
C13   C     C_R   0.434403 0.170957 0.973682 0.817661
C14   C     C_R   0.566307 0.829344 0.024539 0.804059
C15   C     C_R   0.979845 0.431800 0.169486 0.820894
C16   C     C_R   0.023915 0.566780 0.829827 0.835869
C17   C     C_R   0.169820 0.978669 0.431898 0.845513
C18   C     C_R   0.828916 0.029064 0.564711 0.830301
C19   C     C_R   0.555530 0.982992 0.557819 -0.065446
C20   C     C_R   0.455966 0.981059 0.454435 -0.033653
C21   C     C_R   0.066064 0.526855 0.534612 -0.019258
C22   C     C_R   0.044983 0.434421 0.434536 -0.025170
C23   C     C_R   0.549492 0.547811 0.006036 -0.071844
C24   C     C_R   0.452343 0.454088 0.988240 -0.079629
C25   C     C_R   0.598348 0.962565 0.474710 0.153529
C26   C     C_R   0.418040 0.974650 0.547037 0.159245
C27   C     C_R   0.060219 0.436753 0.572143 0.159482
C28   C     C_R   0.048329 0.525136 0.398303 0.148301
C29   C     C_R   0.488089 0.509009 0.081407 0.185418
C30   C     C_R   0.512808 0.494310 0.912384 0.176571
C31   C     C_R   0.545774 0.986719 0.417023 0.204775
C32   C     C_R   0.461796 0.993000 0.591907 0.180964
C33   C     C_R   0.440624 0.460665 0.073065 0.154637
C34   C     C_R   0.562668 0.539901 0.921667 0.145360
C35   C     C_R   0.066119 0.387836 0.516834 0.167009
C36   C     C_R   0.076945 0.562446 0.441441 0.172048
C37   C     C_R   0.576591 0.987797 0.697107 -0.186422
C38   C     C_R   0.447764 0.955692 0.317901 -0.233852
C39   C     C_R   0.031744 0.680801 0.557255 -0.235985
C40   C     C_R   0.985326 0.312517 0.438491 -0.232528
C41   C     C_R   0.686408 0.556380 0.023070 -0.236823
C42   C     C_R   0.313714 0.442782 0.977538 -0.300828
C43   C     C_R   0.310553 0.996752 0.427885 -0.226870
C44   C     C_R   0.684783 0.027163 0.557749 -0.293864
C45   C     C_R   0.443567 0.315473 0.973445 -0.222128
C46   C     C_R   0.560485 0.687197 0.016627 -0.229483
C47   C     C_R   0.022114 0.420632 0.298782 -0.212724
C48   C     C_R   0.064455 0.551065 0.677575 -0.230261
C49   C     C_R   0.610332 0.022942 0.736604 -0.151294
C50   C     C_R   0.398680 0.954210 0.267942 -0.166561
C51   C     C_R   0.019368 0.735617 0.608678 -0.125421
C52   C     C_R   0.965664 0.267551 0.396118 -0.115475
C53   C     C_R   0.732709 0.602597 0.035775 -0.121169
C54   C     C_R   0.267327 0.396915 0.964529 -0.099812
C55   C     C_R   0.265074 0.973116 0.389718 -0.118052
C56   C     C_R   0.732052 0.039873 0.602662 -0.092797
C57   C     C_R   0.397166 0.268023 0.962395 -0.128968
C58   C     C_R   0.604624 0.732985 0.033036 -0.121312
C59   C     C_R   0.981199 0.389227 0.262458 -0.145804
C60   C     C_R   0.032541 0.606279 0.734452 -0.136469
C61   C     C_R   0.688157 0.051964 0.688094 0.204356
C62   C     C_R   0.310519 0.948410 0.309526 0.213771
C63   C     C_R   0.006415 0.699426 0.699948 0.210688
C64   C     C_R   0.950911 0.312352 0.312197 0.203933
C65   C     C_R   0.688112 0.687104 0.050786 0.199291
C66   C     C_R   0.312144 0.312966 0.948025 0.212664
Cu1   Cu    Cu3+1 0.995180 0.995180 0.424630 0.912079
Cu2   Cu    Cu3+1 0.004820 0.004820 0.575370 0.923304
Cu3   Cu    Cu3+1 0.995180 0.424630 0.995180 0.914076
Cu4   Cu    Cu3+1 0.004820 0.575370 0.004820 0.923148
Cu5   Cu    Cu3+1 0.424630 0.995180 0.995180 0.899479
Cu6   Cu    Cu3+1 0.575370 0.004820 0.004820 0.905192
H1    H     H_    0.526075 0.953143 0.739120 0.180926
H2    H     H_    0.519243 0.941196 0.290578 0.198049
H3    H     H_    0.020864 0.714031 0.492510 0.198354
H4    H     H_    0.976991 0.285086 0.509050 0.191063
H5    H     H_    0.718278 0.488744 0.017124 0.155587
H6    H     H_    0.280851 0.509005 0.987287 0.157822
H7    H     H_    0.271593 0.028590 0.480660 0.181095
H8    H     H_    0.711844 0.035987 0.486721 0.183446
H9    H     H_    0.510580 0.283515 0.980586 0.155572
H10   H     H_    0.495870 0.720903 0.003872 0.150066
H11   H     H_    0.058326 0.469050 0.254116 0.178568
H12   H     H_    0.094929 0.481342 0.703833 0.191408
O1    O     O_R   0.124540 0.978640 0.385460 -0.567555
O2    O     O_R   0.875460 0.021360 0.614540 -0.572982
O3    O     O_R   0.978640 0.385460 0.124540 -0.586331
O4    O     O_R   0.021360 0.614540 0.875460 -0.591786
O5    O     O_R   0.385460 0.124540 0.978640 -0.586734
O6    O     O_R   0.614540 0.875460 0.021360 -0.591411
O7    O     O_R   0.614540 0.021360 0.875460 -0.582512
O8    O     O_R   0.385460 0.978640 0.124540 -0.580177
O9    O     O_R   0.875460 0.614540 0.021360 -0.566878
O10   O     O_R   0.124540 0.385460 0.978640 -0.566424
O11   O     O_R   0.021360 0.875460 0.614540 -0.568294
O12   O     O_R   0.978640 0.124540 0.385460 -0.578569
O13   O     O_R   0.013780 0.867370 0.487190 -0.594663
O14   O     O_R   0.986220 0.132630 0.512810 -0.598789
O15   O     O_R   0.867370 0.487190 0.013780 -0.603673
O16   O     O_R   0.132630 0.512810 0.986220 -0.605501
O17   O     O_R   0.487190 0.013780 0.867370 -0.586235
O18   O     O_R   0.512810 0.986220 0.132630 -0.582962
O19   O     O_R   0.512810 0.132630 0.986220 -0.592086
O20   O     O_R   0.487190 0.867370 0.013780 -0.600263
O21   O     O_R   0.986220 0.512810 0.132630 -0.582419
O22   O     O_R   0.013780 0.487190 0.867370 -0.583016
O23   O     O_R   0.132630 0.986220 0.512810 -0.590472
O24   O     O_R   0.867370 0.013780 0.487190 -0.600972
N1    N     N_2   0.411078 0.022122 0.670037 -0.435816
H13   H     H_    0.370246 0.983444 0.717952 0.248918
C67   C     C_3   0.368498 0.117168 0.653315 -0.703365
H14   H     H_    0.335949 0.134692 0.717541 0.225928
H15   H     H_    0.316899 0.136428 0.618912 0.214743
H16   H     H_    0.418919 0.155219 0.611822 0.243554
N2    N     N_2   0.582016 0.022988 0.323802 -0.440042
H17   H     H_    0.650524 0.011230 0.302599 0.278199
C68   C     C_3   0.538449 0.116155 0.288816 -0.718499
H18   H     H_    0.568535 0.137401 0.215693 0.230433
H19   H     H_    0.547342 0.158486 0.319952 0.223767
H20   H     H_    0.466038 0.126800 0.301285 0.245435
N3    N     N_2   0.118319 0.633605 0.390812 -0.441620
H21   H     H_    0.107371 0.669712 0.329636 0.256223
C69   C     C_3   0.210559 0.611753 0.389081 -0.711561
H22   H     H_    0.237093 0.670596 0.348023 0.227459
H23   H     H_    0.251318 0.554620 0.360111 0.227775
H24   H     H_    0.216388 0.593905 0.457227 0.244179
N4    N     N_2   0.094691 0.292437 0.543220 -0.439837
H25   H     H_    0.077064 0.261077 0.610346 0.253483
C70   C     C_3   0.186030 0.254270 0.497510 -0.706075
H26   H     H_    0.201077 0.180193 0.518838 0.221524
H27   H     H_    0.232680 0.273761 0.513810 0.219549
H28   H     H_    0.196300 0.277361 0.424313 0.240534
N5    N     N_2   0.623599 0.581311 0.845861 -0.418759
H29   H     H_    0.600837 0.617051 0.790409 0.255737
C71   C     C_3   0.715676 0.527642 0.826159 -0.704313
H30   H     H_    0.759853 0.566499 0.818683 0.241534
H31   H     H_    0.734398 0.510747 0.762803 0.207482
H32   H     H_    0.727134 0.464160 0.879656 0.223956
N6    N     N_2   0.379360 0.421336 0.150349 -0.418556
H33   H     H_    0.318572 0.431460 0.141911 0.255601
C72   C     C_3   0.416681 0.329356 0.194886 -0.718190
H34   H     H_    0.367470 0.307918 0.259115 0.227648
H35   H     H_    0.478580 0.321989 0.208973 0.226832
H36   H     H_    0.432225 0.284979 0.153279 0.231489
N7    N     N_2   0.337982 0.947790 0.595778 -0.439426
H37   H     H_    0.291647 0.983841 0.639459 0.251188
C73   C     C_3   0.351901 0.852167 0.632469 -0.693219
H38   H     H_    0.286288 0.836760 0.663936 0.229595
H39   H     H_    0.388210 0.826447 0.683675 0.212405
H40   H     H_    0.390761 0.817984 0.578898 0.240501
N8    N     N_2   0.690968 0.914301 0.450994 -0.435380
H41   H     H_    0.722556 0.895000 0.499282 0.265864
C74   C     C_3   0.710755 0.838013 0.419303 -0.724612
H42   H     H_    0.783881 0.806019 0.402879 0.225674
H43   H     H_    0.690121 0.857984 0.358185 0.235634
H44   H     H_    0.676392 0.788014 0.471870 0.226667
N9    N     N_2   0.525127 0.486072 0.827373 -0.412478
H45   H     H_    0.590177 0.476779 0.787475 0.261567
C75   C     C_3   0.462155 0.553423 0.780273 -0.696176
H46   H     H_    0.473284 0.538307 0.717845 0.225396
H47   H     H_    0.471116 0.620801 0.763072 0.206797
H48   H     H_    0.392411 0.554050 0.821235 0.243369
N10   N     N_2   0.474621 0.518869 0.165941 -0.404333
H49   H     H_    0.477272 0.459915 0.216274 0.268327
C76   C     C_3   0.397340 0.590088 0.191368 -0.684013
H50   H     H_    0.396380 0.597769 0.254016 0.219929
H51   H     H_    0.334993 0.574473 0.202045 0.234657
H52   H     H_    0.399747 0.654516 0.139298 0.225478
N11   N     N_2   0.018650 0.580585 0.321784 -0.436203
H53   H     H_    0.066420 0.605836 0.267682 0.239458
C77   C     C_3   0.932801 0.645459 0.339613 -0.692356
H54   H     H_    0.912034 0.680200 0.277399 0.228290
H55   H     H_    0.936933 0.695904 0.364201 0.215101
H56   H     H_    0.881494 0.611543 0.389965 0.239499
N12   N     N_2   0.045795 0.395503 0.665106 -0.444640
H57   H     H_    0.091090 0.335045 0.683056 0.246157
C78   C     C_3   0.953728 0.397574 0.714491 -0.700557
H58   H     H_    0.947841 0.370320 0.786843 0.230828
H59   H     H_    0.930291 0.356503 0.694581 0.215350
H60   H     H_    0.910672 0.467569 0.702296 0.242676
N13   N     N_2   0.712508 0.107450 0.716432 -0.427529
H61   H     H_    0.660052 0.159249 0.736508 0.240312
C79   C     C_3   0.773713 0.065372 0.771320 -0.548578
H62   H     H_    0.741870 0.082470 0.835838 0.202433
H63   H     H_    0.833162 0.091763 0.737387 0.217940
H64   H     H_    0.795293 0.991388 0.784785 0.222640
N14   N     N_2   0.274000 0.905138 0.278570 -0.414917
H65   H     H_    0.318232 0.848639 0.260064 0.234356
C80   C     C_3   0.216736 0.959983 0.220255 -0.540819
H66   H     H_    0.247292 0.946041 0.154260 0.200212
H67   H     H_    0.203367 0.032585 0.211056 0.215586
H68   H     H_    0.152539 0.941993 0.248581 0.216063
N15   N     N_2   0.958999 0.757552 0.756314 -0.407556
H69   H     H_    0.993157 0.767649 0.789116 0.271792
C81   C     C_3   0.864258 0.766157 0.796803 -0.664677
H70   H     H_    0.850229 0.739719 0.870198 0.230980
H71   H     H_    0.839896 0.729401 0.772494 0.217421
H72   H     H_    0.826863 0.837847 0.780189 0.221527
N16   N     N_2   0.893261 0.288917 0.285995 -0.426417
H73   H     H_    0.841500 0.341959 0.267155 0.239392
C82   C     C_3   0.933053 0.227575 0.230791 -0.551069
H74   H     H_    0.914826 0.259776 0.167098 0.202458
H75   H     H_    0.905776 0.168667 0.265305 0.219920
H76   H     H_    0.007151 0.204972 0.215782 0.221899
N17   N     N_2   0.727575 0.723252 0.085342 -0.404941
H77   H     H_    0.751798 0.777024 0.042569 0.271899
C83   C     C_3   0.685204 0.724955 0.177233 -0.647908
H78   H     H_    0.617357 0.772382 0.185081 0.215970
H79   H     H_    0.726014 0.746493 0.199183 0.213907
H80   H     H_    0.680261 0.657010 0.220408 0.223206
N18   N     N_2   0.271527 0.276525 0.914993 -0.405303
H81   H     H_    0.247561 0.222793 0.958417 0.272613
C84   C     C_3   0.312165 0.274781 0.823012 -0.659287
H82   H     H_    0.379251 0.225949 0.814539 0.225321
H83   H     H_    0.318411 0.342331 0.779610 0.222786
H84   H     H_    0.269272 0.255080 0.801927 0.210701

loop_
_geom_bond_atom_site_label_1
_geom_bond_atom_site_label_2
_ccdc_geom_bond_type
C25   C31   A    
C30   N9    S    
C39   C51   A    
C77   H54   S    
C26   C32   A    
C76   H50   S    
C6    C45   A    
N2    C68   S    
C26   N7    S    
C68   H18   S    
N11   C77   S    
N11   H53   S    
C29   N10   S    
N10   H49   S    
C8    O12   A    
C57   C66   A    
Cu5   O20   S    
Cu4   O4    S    
N7    H37   S    
C69   H22   S    
N12   C78   S    
C21   C36   A    
N17   H77   S    
C22   C35   A    
C77   H55   S    
C45   C57   A    
C59   C64   A    
C18   O2    A    
C20   C26   A    
C60   C63   A    
C17   O1    A    
C23   C29   A    
C15   O3    A    
N10   C76   S    
C70   H26   S    
C17   O23   A    
C75   H46   S    
C41   H5    S    
C1    C37   A    
Cu1   O24   S    
C69   H23   S    
C65   N17   S    
C10   O10   A    
C43   H7    S    
N2    H17   S    
C55   C62   A    
C29   C33   A    
C3    C48   A    
C4    C22   S    
Cu2   O14   S    
C16   C60   S    
C80   H67   S    
C8    O14   A    
C14   O6    A    
C5    C41   A    
C1    C44   A    
N1    C67   S    
C13   C57   S    
C46   H10   S    
N9    H45   S    
Cu5   O8    S    
C73   H38   S    
N15   C81   S    
C5    C23   S    
C83   H80   S    
N8    H41   S    
C75   H47   S    
Cu2   O23   S    
C39   H3    S    
C74   H43   S    
C53   C65   A    
C8    C52   S    
Cu3   O3    S    
C16   O22   A    
C70   H28   S    
C13   O5    A    
C23   C34   A    
N13   C79   S    
C21   C27   A    
C3    C39   A    
N16   H73   S    
C76   H51   S    
C22   C28   A    
C46   C58   A    
C82   H75   S    
C80   H66   S    
C10   C54   S    
C19   C32   A    
C31   N2    S    
N7    C73   S    
Cu4   O16   S    
C48   C60   A    
C24   C30   A    
N17   C83   S    
C14   C58   S    
C77   H56   S    
C16   O4    A    
Cu1   O1    S    
Cu2   O11   S    
C49   C61   A    
C32   N1    S    
C30   C34   A    
C2    C20   S    
C83   H78   S    
C4    C40   A    
C71   H30   S    
C73   H40   S    
C51   C63   A    
C67   H15   S    
Cu3   O10   S    
C52   C64   A    
C79   H64   S    
C27   N12   S    
Cu6   O7    S    
C69   H24   S    
C34   N5    S    
C27   C35   A    
N13   H61   S    
C1    C19   S    
C72   H36   S    
C40   H4    S    
C72   H35   S    
C80   H68   S    
C10   O16   A    
Cu1   Cu2   S    
N4    C70   S    
C79   H62   S    
C12   O18   A    
C11   C49   S    
C11   O7    A    
C79   H63   S    
C37   C49   A    
C44   C56   A    
C58   C65   A    
C14   O20   A    
N18   H81   S    
Cu5   O5    S    
C44   H8    S    
C2    C43   A    
Cu3   O22   S    
C78   H60   S    
C6    C24   S    
Cu4   O9    S    
C63   N15   S    
C75   H48   S    
C11   O17   A    
C74   H44   S    
C35   N4    S    
C41   C53   A    
N3    H21   S    
C71   H32   S    
C54   C66   A    
Cu2   O2    S    
Cu3   O15   S    
C43   C55   A    
N18   C84   S    
C42   H6    S    
C76   H52   S    
C47   H11   S    
N5    H29   S    
C50   C62   A    
C82   H76   S    
C68   H20   S    
C13   O19   A    
N4    H25   S    
C9    O9    A    
N3    C69   S    
N16   C82   S    
Cu6   O6    S    
C38   H2    S    
C84   H84   S    
C71   H31   S    
C37   H1    S    
C7    O13   A    
C67   H14   S    
C73   H39   S    
C15   C59   S    
C12   O8    A    
C45   H9    S    
C83   H79   S    
Cu4   O21   S    
C12   C50   S    
N6    H33   S    
C38   C50   A    
Cu6   O19   S    
C18   C56   S    
C7    O11   A    
C5    C46   A    
C9    O15   A    
C61   N13   S    
C24   C33   A    
C82   H74   S    
C25   N8    S    
C2    C38   A    
C81   H72   S    
C68   H19   S    
C36   N3    S    
C66   N18   S    
C84   H83   S    
C7    C51   S    
Cu5   Cu6   S    
N15   H69   S    
N12   H57   S    
C40   C52   A    
C72   H34   S    
C42   C54   A    
N6    C72   S    
C15   O21   A    
Cu1   O12   S    
Cu6   O18   S    
C33   N6    S    
C84   H82   S    
C17   C55   S    
C78   H59   S    
C67   H16   S    
N8    C74   S    
Cu5   O17   S    
Cu3   Cu4   S    
C19   C25   A    
C18   O24   A    
N14   C80   S    
C3    C21   S    
Cu1   O13   S    
C47   C59   A    
C81   H70   S    
C48   H12   S    
C28   N11   S    
N14   H65   S    
C9    C53   S    
C28   C36   A    
N9    C75   S    
C78   H58   S    
C6    C42   A    
C64   N16   S    
N5    C71   S    
C56   C61   A    
C81   H71   S    
C74   H42   S    
N1    H13   S    
C20   C31   A    
C62   N14   S    
C70   H27   S    
C4    C47   A    
