data_mof_unit_17120.cif
_audit_creation_date              2012-12-10T17:56:44-0500
_audit_creation_method            fapswitch 2.2
_symmetry_space_group_name_H-M    P1
_symmetry_Int_Tables_number       1
_space_group_crystal_system       triclinic
_cell_length_a                    10.886523
_cell_length_b                    9.536432
_cell_length_c                    10.898166
_cell_angle_alpha                 90.066953
_cell_angle_beta                  91.846677
_cell_angle_gamma                 90.627039
_cell_volume                      1130.77553695

loop_
_atom_site_label
_atom_site_type_symbol
_atom_type_description
_atom_site_fract_x
_atom_site_fract_y
_atom_site_fract_z
_atom_type_partial_charge
C1    C     C_R   0.262673 0.499283 0.509232 0.872789
C2    C     C_R   0.737967 0.500840 0.500108 0.822430
C3    C     C_R   0.938371 0.622287 0.549526 0.262409
C4    C     C_R   0.067140 0.624194 0.547482 0.386537
C5    C     C_R   0.430407 0.074303 0.414089 0.404837
C6    C     C_R   0.570690 0.076019 0.584449 0.401820
C7    C     C_R   0.435093 0.923638 0.411254 0.334721
C8    C     C_R   0.565247 0.925737 0.588411 0.349064
C9    C     C_R   0.510556 0.500082 0.262696 0.887092
C10   C     C_R   0.491253 0.499967 0.737656 0.872766
C11   C     C_R   0.577001 0.754062 0.109565 0.501642
C12   C     C_R   0.430897 0.753422 0.892283 0.509863
C13   C     C_R   0.545793 0.880760 0.051483 -0.325312
C14   C     C_R   0.465631 0.880511 0.949440 -0.323754
C15   C     C_R   0.478727 0.626206 0.940097 -0.080763
C16   C     C_R   0.527594 0.626541 0.061230 -0.078119
C17   C     C_R   0.522763 0.499338 0.128284 -0.166317
C18   C     C_R   0.482828 0.499040 0.872495 -0.165106
C19   C     C_R   0.508463 0.371220 0.064283 0.284996
C20   C     C_R   0.500858 0.371369 0.935863 0.284235
C21   C     C_R   0.060549 0.373144 0.504530 0.308076
C22   C     C_R   0.936902 0.380880 0.473759 0.332913
C23   C     C_R   0.872363 0.502726 0.504865 -0.347742
C24   C     C_R   0.128983 0.498315 0.523045 -0.329101
Cu1   Cu    Cu3+1 0.500000 0.640660 0.500000 1.096879
Cu2   Cu    Cu3+1 0.500000 0.359340 0.500000 1.064130
H1    H     H_    0.580403 0.979522 0.087958 0.179365
H2    H     H_    0.433075 0.979117 0.912754 0.176472
N1    N     N_R   0.500000 0.852070 0.500000 -0.204694
N2    N     N_R   0.500000 0.147940 0.500000 -0.254849
O1    O     O_R   0.319640 0.618740 0.499990 -0.482755
O2    O     O_R   0.680360 0.618740 0.500010 -0.518735
O3    O     O_R   0.319620 0.381170 0.499990 -0.579381
O4    O     O_R   0.680380 0.381170 0.500010 -0.564270
O5    O     O_R   0.500000 0.618810 0.319650 -0.516454
O6    O     O_R   0.500000 0.618810 0.680350 -0.517917
O7    O     O_R   0.499970 0.381240 0.319640 -0.495265
O8    O     O_R   0.500030 0.381240 0.680360 -0.503075
O9    O     O_3   0.504482 0.246061 0.127529 -0.698143
H3    H     H_    0.448971 0.180267 0.081392 0.335032
O10   O     O_3   0.509040 0.246877 0.872009 -0.699482
H4    H     H_    0.565940 0.184162 0.918164 0.336470
O11   O     O_3   0.662497 0.751786 0.206095 -0.714479
H5    H     H_    0.686797 0.849389 0.228102 0.324740
O12   O     O_3   0.343367 0.750544 0.797555 -0.691057
H6    H     H_    0.320329 0.847997 0.775945 0.330792
O13   O     O_3   0.110997 0.242001 0.514579 -0.705464
H7    H     H_    0.166481 0.242708 0.588519 0.331446
O14   O     O_3   0.881938 0.265655 0.417574 -0.691337
H8    H     H_    0.821511 0.300301 0.355061 0.331952
O15   O     O_3   0.880277 0.736274 0.598152 -0.702232
H9    H     H_    0.821980 0.699156 0.658439 0.359016
O16   O     O_3   0.134321 0.744014 0.578190 -0.673542
H10   H     H_    0.079454 0.825990 0.581057 0.367597
O17   O     O_3   0.366084 0.149830 0.324667 -0.533838
C25   C     C_3   0.241301 0.107992 0.312430 -0.164203
H11   H     H_    0.207270 0.046533 0.391628 0.195241
H12   H     H_    0.225359 0.047516 0.226330 0.142046
H13   H     H_    0.184940 0.203546 0.301774 0.219096
O18   O     O_3   0.643661 0.151820 0.667808 -0.541207
C26   C     C_3   0.769453 0.121902 0.653477 -0.162722
H14   H     H_    0.791034 0.079101 0.561467 0.202278
H15   H     H_    0.802209 0.048142 0.725654 0.157154
H16   H     H_    0.823213 0.220389 0.667219 0.187606
O19   O     O_3   0.375086 0.847350 0.320146 -0.678382
H17   H     H_    0.380817 0.900851 0.242822 0.321023
O20   O     O_3   0.625599 0.851863 0.679909 -0.690698
H18   H     H_    0.634895 0.912469 0.753465 0.325867

loop_
_geom_bond_atom_site_label_1
_geom_bond_atom_site_label_2
_ccdc_geom_bond_type
Cu1   O1    S    
C15   C18   A    
C10   O6    A    
O11   H5    S    
C12   C15   A    
Cu2   O7    S    
C11   O11   S    
C7    N1    A    
C13   C14   A    
C4    O16   S    
C26   H16   S    
C11   C16   A    
Cu2   O3    S    
C3    C23   A    
C19   C20   A    
C25   H13   S    
C10   O8    A    
O17   C25   S    
C2    O4    A    
Cu1   O2    S    
C9    O7    A    
C20   O10   S    
C1    O3    A    
O15   H9    S    
C21   C22   A    
C11   C13   A    
C16   C17   A    
C8    O20   S    
C19   O9    S    
Cu1   O5    S    
C22   O14   S    
C5    O17   S    
C8    N1    A    
C9    C17   S    
C6    N2    A    
O16   H10   S    
C10   C18   S    
Cu2   N2    S    
C18   C20   A    
O19   H17   S    
Cu1   N1    S    
C26   H14   S    
C4    C24   A    
C9    O5    A    
C7    O19   S    
Cu1   O6    S    
C17   C19   A    
O20   H18   S    
O9    H3    S    
O13   H7    S    
C6    O18   S    
C1    O1    A    
C25   H11   S    
C1    C24   S    
C2    O2    A    
O14   H8    S    
O10   H4    S    
C21   C24   A    
C2    C23   S    
C5    C7    A    
C3    O15   S    
C22   C23   A    
C13   H1    S    
C12   O12   S    
C6    C8    A    
C14   H2    S    
Cu1   Cu2   S    
O12   H6    S    
C25   H12   S    
Cu2   O4    S    
C26   H15   S    
Cu2   O8    S    
C3    C4    A    
C15   C16   A    
C5    N2    A    
C12   C14   A    
O18   C26   S    
C21   O13   S    
