data_mof_unit_34793.cif
_audit_creation_date              2012-12-10T20:31:51-0500
_audit_creation_method            fapswitch 2.2
_symmetry_space_group_name_H-M    P1
_symmetry_Int_Tables_number       1
_space_group_crystal_system       triclinic
_cell_length_a                    9.894109
_cell_length_b                    10.679596
_cell_length_c                    15.528391
_cell_angle_alpha                 90.249625
_cell_angle_beta                  67.804028
_cell_angle_gamma                 89.20386
_cell_volume                      1518.9917378

loop_
_atom_site_label
_atom_site_type_symbol
_atom_type_description
_atom_site_fract_x
_atom_site_fract_y
_atom_site_fract_z
_atom_type_partial_charge
C1    C     C_R   0.501795 0.740144 0.496147 0.874397
C2    C     C_R   0.430431 0.551980 0.905687 0.097607
C3    C     C_R   0.297927 0.618009 0.954116 0.175652
C4    C     C_R   0.538447 0.542291 0.944415 0.069152
C5    C     C_R   0.499639 0.574272 0.039086 0.077362
C6    C     C_R   0.367443 0.640216 0.086322 -0.239435
C7    C     C_R   0.270917 0.666113 0.042680 -0.260206
C8    C     C_R   0.685255 0.507561 0.890980 -0.237150
C9    C     C_R   0.788568 0.500587 0.931604 -0.233491
C10   C     C_R   0.745609 0.517421 0.027391 0.152446
C11   C     C_R   0.598358 0.545903 0.082254 0.095705
C12   C     C_R   0.408837 0.501649 0.675784 0.874458
C13   C     C_R   0.848115 0.509669 0.069124 -0.252864
C14   C     C_R   0.803960 0.522226 0.165831 0.100694
C15   C     C_R   0.552072 0.538546 0.178799 -0.308383
C16   C     C_R   0.398795 0.938215 0.467650 0.135320
C17   C     C_R   0.513159 0.871317 0.478313 -0.108875
C18   C     C_R   0.642864 0.933136 0.468070 -0.228474
C19   C     C_R   0.643953 0.062728 0.467928 -0.227696
C20   C     C_R   0.515571 0.128841 0.477594 -0.107722
C21   C     C_R   0.400173 0.066138 0.467260 0.133406
C22   C     C_3   0.239828 0.077834 0.521802 -0.464574
C23   C     C_R   0.503385 0.260037 0.495765 0.882600
C24   C     C_3   0.238241 0.936241 0.522635 -0.505661
C25   C     C_R   0.882976 0.540197 0.576363 0.227155
C26   C     C_R   0.969865 0.441291 0.431371 -0.161049
C27   C     C_R   0.114218 0.443453 0.430314 -0.130052
C28   C     C_R   0.024688 0.538786 0.576953 0.209022
C29   C     C_3   0.000244 0.663952 0.623345 -0.537023
C30   C     C_3   0.847505 0.665603 0.621879 -0.496596
C31   C     C_R   0.592057 0.505669 0.323744 0.855905
C32   C     C_R   0.354747 0.523484 0.775781 -0.055892
C33   C     C_R   0.652087 0.520773 0.221668 -0.093642
C34   C     C_R   0.195908 0.636898 0.912294 -0.229703
C35   C     C_R   0.225049 0.590935 0.822705 -0.208725
C36   C     C_R   0.451396 0.498290 0.819644 -0.266329
H1    H     H_    0.174044 0.722252 0.078749 0.160581
H2    H     H_    0.962794 0.498120 0.026102 0.147420
H3    H     H_    0.738898 0.882899 0.467799 0.170396
H4    H     H_    0.740187 0.109870 0.467953 0.170867
H5    H     H_    0.213100 0.120370 0.591948 0.207924
H6    H     H_    0.180664 0.119636 0.480345 0.202132
H7    H     H_    0.211334 0.897435 0.593424 0.205860
H8    H     H_    0.177770 0.897004 0.481479 0.201618
H9    H     H_    0.949632 0.393168 0.376393 0.137638
H10   H     H_    0.202533 0.399838 0.373044 0.150792
H11   H     H_    0.000813 0.659489 0.694669 0.196446
H12   H     H_    0.436602 0.542913 0.221011 0.166919
H13   H     H_    0.071478 0.734838 0.577877 0.218167
H14   H     H_    0.759908 0.661624 0.692341 0.207178
H15   H     H_    0.831112 0.738316 0.575556 0.210942
H16   H     H_    0.901405 0.479085 0.888361 0.150310
H17   H     H_    0.095897 0.690031 0.947802 0.142291
H18   H     H_    0.150145 0.612824 0.788839 0.146451
H19   H     H_    0.545609 0.439087 0.783833 0.150769
H20   H     H_    0.342199 0.679398 0.154982 0.150264
H21   H     H_    0.724966 0.492932 0.816659 0.145713
N1    N     N_R   0.856900 0.500860 0.500610 -0.110263
N2    N     N_R   0.142540 0.500820 0.500610 -0.102609
O1    O     O_R   0.385310 0.683210 0.499990 -0.611890
O2    O     O_R   0.614650 0.683240 0.500000 -0.623695
O3    O     O_R   0.319830 0.499970 0.632240 -0.613548
O4    O     O_R   0.549170 0.500000 0.632250 -0.610073
O5    O     O_R   0.385350 0.316760 0.500000 -0.613816
O6    O     O_R   0.614690 0.316790 0.500010 -0.619120
O7    O     O_R   0.450830 0.500000 0.367750 -0.619686
O8    O     O_R   0.680170 0.500030 0.367760 -0.614706
Zn1   Zn    Zn3+2 0.346870 0.499980 0.499990 0.937149
Zn2   Zn    Zn3+2 0.653130 0.500020 0.500010 0.930767
C37   C     C_3   0.919505 0.549916 0.204643 -0.404914
C38   C     C_3   0.902217 0.686156 0.241077 -0.291281
C39   C     C_3   0.996450 0.712401 0.297203 -0.880359
H22   H     H_    0.942896 0.676341 0.368650 0.278604
H23   H     H_    0.106002 0.667927 0.264349 0.255312
H24   H     H_    0.008898 0.815019 0.302320 0.237009
H25   H     H_    0.932677 0.750623 0.181010 0.198336
H26   H     H_    0.786977 0.708821 0.285838 0.225407
H27   H     H_    0.916315 0.481245 0.257942 0.216899
H28   H     H_    0.030235 0.537711 0.149985 0.188457

loop_
_geom_bond_atom_site_label_1
_geom_bond_atom_site_label_2
_ccdc_geom_bond_type
C8    C9    A    
C31   O7    A    
O7    Zn1   S    
C30   H15   S    
C16   C21   A    
C37   H27   S    
C19   C20   A    
C4    C8    A    
C14   C33   A    
C29   H13   S    
C25   C28   A    
C31   O8    A    
C26   C27   A    
C29   H11   S    
C32   C36   A    
C28   C29   S    
C5    C11   A    
C3    C7    A    
C5    C6    A    
C8    H21   S    
C22   H5    S    
O2    Zn2   S    
C34   C35   A    
C26   H9    S    
C11   C15   A    
O4    Zn2   S    
C16   C17   A    
C31   C33   S    
C37   C38   S    
C9    C10   A    
C39   H22   S    
C30   H14   S    
C16   C24   S    
C21   C22   S    
C12   C32   S    
C35   H18   S    
C14   C37   S    
C9    H16   S    
C15   H12   S    
C39   H24   S    
C32   C35   A    
C39   H23   S    
C19   H4    S    
C1    O1    A    
C12   O4    A    
C18   C19   A    
C3    C34   A    
O8    Zn2   S    
C2    C4    A    
C18   H3    S    
C29   C30   S    
N2    Zn1   S    
C12   O3    A    
C20   C23   S    
C17   C18   A    
C7    H1    S    
C26   N1    A    
C13   H2    S    
C27   H10   S    
C23   O5    A    
C24   H8    S    
C22   C24   S    
C25   N1    A    
O5    Zn1   S    
C38   H25   S    
C38   H26   S    
C28   N2    A    
C2    C36   A    
C25   C30   S    
C37   H28   S    
C6    H20   S    
C4    C5    A    
C10   C13   A    
C1    O2    A    
N1    Zn2   S    
C6    C7    A    
C1    C17   S    
O3    Zn1   S    
C23   O6    A    
C2    C3    A    
C38   C39   S    
C36   H19   S    
C27   N2    A    
C22   H6    S    
O6    Zn2   S    
C10   C11   A    
C20   C21   A    
O1    Zn1   S    
C34   H17   S    
C24   H7    S    
C13   C14   A    
C15   C33   A    
