data_mof_unit_43091.cif
_audit_creation_date              2013-03-05T16:18:23-0500
_audit_creation_method            fapswitch 2.2
_symmetry_space_group_name_H-M    P1
_symmetry_Int_Tables_number       1
_space_group_crystal_system       triclinic
_cell_length_a                    11.40718
_cell_length_b                    10.266826
_cell_length_c                    10.775206
_cell_angle_alpha                 87.841081
_cell_angle_beta                  89.045919
_cell_angle_gamma                 90.712813
_cell_volume                      1260.76555952

loop_
_atom_site_label
_atom_site_type_symbol
_atom_site_description
_atom_site_fract_x
_atom_site_fract_y
_atom_site_fract_z
_atom_type_partial_charge
O1    O     O_R   0.314910 0.616040 0.499970 -0.637737
O2    O     O_R   0.314910 0.383960 0.499970 -0.648249
C1    C     C_R   0.259592 0.497920 0.508107 0.830968
O3    O     O_R   0.500080 0.616020 0.313900 -0.657035
O4    O     O_R   0.500080 0.383980 0.313900 -0.634124
C2    C     C_R   0.499519 0.502754 0.260316 0.868985
Zn1   Zn    Zn3+2 0.500150 0.654960 0.499940 0.962714
Zn2   Zn    Zn3+2 0.500150 0.345040 0.499940 0.898005
O5    O     O_R   0.685320 0.616040 0.499930 -0.546984
O6    O     O_R   0.685320 0.383960 0.499930 -0.678742
O7    O     O_R   0.500150 0.616060 0.686000 -0.573033
O8    O     O_R   0.500150 0.383940 0.686000 -0.658493
C3    C     C_R   0.742340 0.499154 0.507573 0.820510
C4    C     C_R   0.507509 0.498215 0.742421 0.858200
C5    C     C_3   0.492614 0.627154 0.037635 0.044248
C6    C     C_3   0.422051 0.428012 0.049637 -0.051749
C7    C     C_3   0.410749 0.545897 0.957671 -0.110354
C8    C     C_3   0.517930 0.496349 0.881297 -0.106600
C9    C     C_3   0.598946 0.580347 0.963315 0.132409
C10   C     C_3   0.528860 0.379077 0.977418 0.211997
C11   C     C_3   0.609313 0.464341 0.056395 -0.208189
C12   C     C_3   0.502346 0.509758 0.127376 -0.188155
H1    H     H_    0.692371 0.433858 0.101189 0.152790
C13   C     C_3   0.075858 0.635867 0.550918 0.129709
C14   C     C_3   0.072960 0.381738 0.623519 0.160467
C15   C     C_3   0.935506 0.630896 0.566236 0.174704
C16   C     C_3   0.928904 0.375044 0.615225 0.176640
H2    H     H_    0.115943 0.498446 0.312764 0.222762
H3    H     H_    0.089793 0.350739 0.372196 0.226404
H4    H     H_    0.918955 0.546658 0.318997 0.276923
H5    H     H_    0.894398 0.387857 0.344249 0.144363
C17   C     C_3   0.071322 0.451541 0.394669 -0.446005
C18   C     C_3   0.123484 0.492410 0.522595 0.025546
C19   C     C_3   0.881813 0.494254 0.522057 -0.051984
C20   C     C_3   0.936989 0.470334 0.389727 -0.476900
C21   C     C_3   0.382896 0.080206 0.456296 0.017877
C22   C     C_3   0.380765 0.920661 0.464900 -0.016562
H6    H     H_    0.311521 0.109042 0.516970 0.208866
H7    H     H_    0.316687 0.890894 0.538825 0.134510
H8    H     H_    0.552586 0.122247 0.306981 0.189601
H9    H     H_    0.530144 0.915020 0.303149 0.170351
C23   C     C_3   0.580244 0.083995 0.399104 0.040088
C24   C     C_3   0.571640 0.929116 0.391951 -0.032862
C25   C     C_3   0.516931 0.079028 0.624617 0.110177
C26   C     C_3   0.535655 0.921086 0.620438 0.140986
N1    N     N_3   0.499750 0.138610 0.497240 -0.126775
N2    N     N_3   0.499750 0.861390 0.497240 -0.095276
C27   C     C_2   0.292370 0.594758 0.924708 0.415820
H10   H     H_    0.215874 0.533568 0.942881 0.056668
O9    O     O_2   0.280079 0.706510 0.886445 -0.543580
C28   C     C_3   0.334923 0.143557 0.333537 -0.751512
H11   H     H_    0.335449 0.249614 0.335472 0.284586
H12   H     H_    0.381386 0.116433 0.247783 0.238260
H13   H     H_    0.241386 0.116989 0.321574 0.262312
C29   C     C_3   0.327303 0.867382 0.343427 -0.721334
H14   H     H_    0.332217 0.761543 0.337043 0.304112
H15   H     H_    0.237737 0.902842 0.332097 0.247946
H16   H     H_    0.364190 0.906548 0.255098 0.237241
C30   C     C_2   0.619234 0.142880 0.687124 0.402407
H17   H     H_    0.657492 0.230757 0.650579 0.170464
O10   O     O_2   0.659091 0.095039 0.782551 -0.624579
C31   C     C_2   0.662253 0.886639 0.636957 0.479200
H18   H     H_    0.733855 0.954019 0.617228 0.088582
O11   O     O_2   0.686164 0.776385 0.666686 -0.606364
C32   C     C_3   0.408000 0.119704 0.707561 -0.842922
H19   H     H_    0.426019 0.129422 0.805427 0.265267
H20   H     H_    0.372214 0.214227 0.676580 0.266814
H21   H     H_    0.333679 0.049064 0.705762 0.203297
C33   C     C_3   0.470627 0.858820 0.738793 -0.582683
H22   H     H_    0.520844 0.788547 0.795089 0.259297
H23   H     H_    0.460835 0.924117 0.816692 0.237493
H24   H     H_    0.384256 0.819351 0.716490 0.238990
C34   C     C_3   0.702759 0.140227 0.391857 -0.945246
H25   H     H_    0.703146 0.241539 0.354841 0.283558
H26   H     H_    0.738203 0.122075 0.482569 0.257776
H27   H     H_    0.760270 0.095148 0.322413 0.237191
C35   C     C_3   0.681364 0.865273 0.351034 -0.755102
H28   H     H_    0.668888 0.760408 0.340471 0.306688
H29   H     H_    0.711630 0.902406 0.257172 0.211763
H30   H     H_    0.746394 0.896268 0.415293 0.260838
C36   C     C_2   0.484725 0.766796 0.073138 0.421547
H31   H     H_    0.556806 0.809970 0.121582 0.046219
O12   O     O_2   0.400711 0.833302 0.045546 -0.530101
C37   C     C_2   0.317645 0.348040 0.093665 0.356216
H32   H     H_    0.257493 0.386402 0.161718 0.048103
O13   O     O_2   0.297672 0.242148 0.050260 -0.563035
C38   C     C_3   0.710859 0.661558 0.947372 -0.895902
H33   H     H_    0.734858 0.700566 0.038402 0.239658
H34   H     H_    0.783470 0.598457 0.919638 0.245315
H35   H     H_    0.699488 0.745814 0.883060 0.294377
C39   C     C_3   0.574468 0.240819 0.990180 -0.742620
H36   H     H_    0.661377 0.237330 0.943685 0.267415
H37   H     H_    0.588271 0.214788 0.089909 0.207500
H38   H     H_    0.511846 0.167602 0.961110 0.274797
C40   C     C_2   0.112270 0.735186 0.446138 0.476909
H39   H     H_    0.117389 0.837104 0.469662 0.072042
O14   O     O_2   0.115072 0.711082 0.336241 -0.573773
C41   C     C_2   0.129428 0.246475 0.601902 0.438757
H40   H     H_    0.175179 0.194731 0.675522 0.095671
O15   O     O_2   0.118849 0.187595 0.506561 -0.655917
C42   C     C_3   0.133835 0.702713 0.663685 -0.936971
H41   H     H_    0.128392 0.650017 0.751487 0.288540
H42   H     H_    0.227141 0.724838 0.650525 0.267145
H43   H     H_    0.093034 0.798609 0.679828 0.239790
C43   C     C_3   0.116000 0.403584 0.757474 -0.985774
H44   H     H_    0.211262 0.427173 0.755268 0.227222
H45   H     H_    0.068714 0.474188 0.810224 0.244647
H46   H     H_    0.102625 0.315114 0.819357 0.256792
C44   C     C_3   0.893000 0.656782 0.700922 -0.892633
H47   H     H_    0.890035 0.761724 0.722390 0.262234
H48   H     H_    0.806076 0.611408 0.717474 0.289221
H49   H     H_    0.948259 0.620068 0.774725 0.235996
C45   C     C_3   0.862375 0.367660 0.745433 -0.832050
H50   H     H_    0.767046 0.380880 0.734323 0.212453
H51   H     H_    0.875404 0.273635 0.797298 0.291394
H52   H     H_    0.888289 0.435152 0.815660 0.212403
C46   C     C_2   0.889525 0.746239 0.491031 0.463024
H53   H     H_    0.884310 0.839949 0.533606 0.071024
O16   O     O_2   0.884403 0.744985 0.378205 -0.604387
C47   C     C_2   0.898039 0.243500 0.562135 0.427404
H54   H     H_    0.903120 0.229653 0.464062 0.112657
O17   O     O_2   0.889731 0.143834 0.628032 -0.601546

loop_
_geom_bond_atom_site_label_1
_geom_bond_atom_site_label_2
_geom_bond_distance
_ccdc_geom_bond_type
C38   H33   1.110519 S    
C42   H41   1.072515 S    
C34   H26   1.074660 S    
C34   H25   1.099824 S    
C4    C8    1.502531 S    
C40   H39   1.086975 S    
C7    C27   1.490209 S    
C29   H14   1.093469 S    
C10   C39   1.520037 S    
C36   H31   1.080604 S    
C14   C43   1.555633 S    
C5    C36   1.501088 S    
C35   H28   1.094670 S    
C47   H54   1.072284 S    
C5    C9    1.534475 S    
C43   H45   1.081685 S    
H4    C20   1.096104 S    
C21   C22   1.637011 S    
C9    C11   1.534889 S    
C13   C15   1.606758 S    
C19   C20   1.577957 S    
H3    C17   1.093941 S    
C9    C38   1.519817 S    
C44   H48   1.099267 S    
O4    C2    1.329545 A    
O7    C4    1.337648 A    
C1    C18   1.557964 S    
C25   C30   1.511840 S    
C2    C12   1.431357 S    
C26   C31   1.502920 S    
C6    C37   1.498372 S    
C5    C7    1.540135 S    
C13   C42   1.569433 S    
C23   N1    1.516848 S    
C26   N2    1.542328 S    
C33   H23   1.098901 S    
O5    C3    1.372491 A    
C31   O11   1.200673 D    
C15   C19   1.615074 S    
C5    C12   1.522888 S    
C47   O17   1.225072 D    
C6    C7    1.543121 S    
C32   H20   1.099930 S    
C15   C46   1.513753 S    
C21   N1    1.533179 S    
C22   N2    1.534358 S    
Zn2   O8    2.058931 S    
C45   H52   1.087201 S    
C27   O9    1.215029 D    
C30   H17   1.056986 S    
C42   H42   1.091379 S    
C11   C12   1.516970 S    
H9    C24   1.088296 S    
C25   C32   1.587843 S    
O3    Zn1   2.058825 S    
C36   O12   1.218007 D    
C25   N1    1.498355 S    
C35   H29   1.115119 S    
C16   C19   1.654105 S    
C43   H46   1.113757 S    
C30   O10   1.219978 D    
C26   C33   1.574987 S    
C28   H11   1.089795 S    
C17   C20   1.548381 S    
H2    C17   1.103082 S    
C37   H32   1.084154 S    
O3    C2    1.317660 A    
C44   H49   1.082522 S    
C39   H36   1.104915 S    
C8    C9    1.563212 S    
C16   C47   1.525865 S    
O1    C1    1.359285 A    
Zn1   N2    2.118548 S    
C33   H24   1.094512 S    
Zn1   O7    2.029420 S    
C31   H18   1.077013 S    
C39   H37   1.111771 S    
C6    C10   1.534777 S    
C32   H21   1.109702 S    
C7    C8    1.563445 S    
C29   H15   1.096067 S    
C15   C44   1.555871 S    
C21   C28   1.562152 S    
C16   C45   1.582791 S    
C27   H10   1.079743 S    
O8    C4    1.343922 A    
C32   H19   1.085753 S    
C42   H43   1.112568 S    
C41   O15   1.218389 D    
C11   H1    1.113460 S    
C34   H27   1.105342 S    
H5    C20   1.105509 S    
C13   C40   1.540811 S    
C14   C16   1.647909 S    
C23   C24   1.596755 S    
C21   H6    1.086664 S    
C25   C26   1.640400 S    
C45   H50   1.105464 S    
C35   H30   1.076471 S    
Zn1   O5    2.154607 S    
C23   C34   1.505145 S    
C6    C12   1.518022 S    
O1    Zn1   2.145618 S    
O2    Zn2   2.155391 S    
C37   O13   1.219960 D    
O6    C3    1.348540 A    
O4    Zn2   2.029288 S    
C40   O14   1.218820 D    
C24   C35   1.488093 S    
C43   H44   1.110057 S    
C13   C18   1.614258 S    
C28   H13   1.108812 S    
C17   C18   1.579510 S    
C46   O16   1.218637 D    
O2    C1    1.341287 A    
C3    C19   1.602436 S    
C22   H7    1.104036 S    
C46   H53   1.083235 S    
C39   H38   1.088705 S    
C29   H16   1.094629 S    
H8    C23   1.106019 S    
C8    C10   1.565886 S    
C33   H22   1.097966 S    
Zn2   N1    2.120626 S    
C22   C29   1.567353 S    
C14   C41   1.561842 S    
C10   C11   1.547548 S    
Zn2   O6    2.144837 S    
C41   H40   1.082961 S    
C38   H35   1.098161 S    
C38   H34   1.102163 S    
C28   H12   1.104092 S    
C44   H47   1.111269 S    
C24   N2    1.529218 S    
C14   C18   1.635721 S    
C45   H51   1.109938 S    
