data_mof_unit_11664.cif
_audit_creation_date              2012-12-11T14:36:04-0500
_audit_creation_method            fapswitch 2.2
_symmetry_space_group_name_H-M    P1
_symmetry_Int_Tables_number       1
_space_group_crystal_system       triclinic
_cell_length_a                    13.481174
_cell_length_b                    13.480297
_cell_length_c                    27.547973
_cell_angle_alpha                 90.629049
_cell_angle_beta                  90.097443
_cell_angle_gamma                 60.06697
_cell_volume                      4338.20264729

loop_
_atom_site_label
_atom_site_type_symbol
_atom_type_description
_atom_site_fract_x
_atom_site_fract_y
_atom_site_fract_z
_atom_type_partial_charge
C1    C     C_R   0.620263 0.101394 0.570193 0.546618
C2    C     C_1   0.631353 0.731702 0.616412 -0.010010
C3    C     C_3   0.697532 0.558742 0.767473 -0.105246
C4    C     C_3   0.681539 0.650939 0.805066 0.045613
C5    C     C_3   0.589163 0.649078 0.740791 -0.094155
C6    C     C_3   0.664723 0.680782 0.710527 0.055954
C7    C     C_3   0.573457 0.740719 0.779112 -0.091769
C8    C     C_3   0.648830 0.772819 0.748160 -0.094498
C9    C     C_1   0.689841 0.630876 0.857473 -0.055303
C10   C     C_1   0.650144 0.703542 0.658317 -0.049204
C11   C     C_3   0.099913 0.116561 0.738269 -0.121220
C12   C     C_R   0.599567 0.779676 0.568852 0.548494
C13   C     C_3   0.195593 0.062389 0.776524 0.158911
C14   C     C_1   0.094572 0.202846 0.901494 -0.010838
C15   C     C_1   0.227384 0.139030 0.617024 -0.009159
C16   C     C_3   0.044645 0.229993 0.768761 -0.139575
C17   C     C_3   0.141712 0.172984 0.806628 0.054542
C18   C     C_3   0.117456 0.271187 0.740729 -0.135597
C19   C     C_3   0.172458 0.158135 0.711021 0.051058
C20   C     C_3   0.214054 0.214616 0.779293 -0.118295
C21   C     C_3   0.266759 0.102828 0.749206 0.159512
C22   C     C_1   0.120565 0.184951 0.859141 -0.039447
C23   C     C_R   0.277478 0.121936 0.569593 0.548250
C24   C     C_1   0.197301 0.149123 0.658838 -0.039684
C25   C     C_3   0.688549 0.248930 0.738182 -0.121037
C26   C     C_3   0.587302 0.287419 0.774466 -0.113579
C27   C     C_1   0.692275 0.208605 0.902655 -0.013393
C28   C     C_1   0.635998 0.134210 0.618070 -0.011508
C29   C     C_3   0.766834 0.149299 0.772417 -0.068868
C30   C     C_3   0.665124 0.187311 0.807800 0.032051
C31   C     C_3   0.727990 0.073144 0.746583 0.134965
C32   C     C_3   0.652026 0.170194 0.712551 0.072668
C33   C     C_3   0.628567 0.108227 0.782450 -0.106929
C34   C     C_R   0.621679 0.098587 0.430782 0.543556
C35   C     C_3   0.550794 0.208125 0.748170 -0.126597
C36   C     C_1   0.676155 0.197867 0.860329 -0.058224
C37   C     C_1   0.644762 0.154086 0.660157 -0.040969
C38   C     C_R   0.731310 0.701697 0.358385 -0.125244
C39   C     C_R   0.746007 0.686842 0.307919 0.044384
C40   C     C_R   0.769612 0.654900 0.206858 -0.000517
C41   C     C_R   0.865617 0.627200 0.235593 -0.114330
C42   C     C_R   0.854853 0.643617 0.286108 0.097735
C43   C     C_R   0.782311 0.627625 0.157600 -0.119229
C44   C     C_R   0.687880 0.642037 0.130388 -0.001179
C45   C     C_R   0.599437 0.779945 0.429279 0.543786
C46   C     C_R   0.528615 0.766444 0.349427 -0.126357
C47   C     C_R   0.540071 0.756583 0.299615 0.007189
C48   C     C_R   0.648872 0.716086 0.278554 0.036824
C49   C     C_R   0.443590 0.787638 0.270684 -0.127722
C50   C     C_R   0.455134 0.774192 0.220648 -0.128017
C51   C     C_R   0.563467 0.728434 0.199336 0.019394
C52   C     C_R   0.660444 0.701800 0.228178 0.056783
C53   C     C_R   0.577824 0.699792 0.150298 -0.131487
C54   C     C_R   0.622953 0.741635 0.378939 -0.010890
C55   C     C_R   0.199362 0.071429 0.358093 -0.144623
C56   C     C_R   0.282979 0.118693 0.429694 0.545241
C57   C     C_R   0.178316 0.079072 0.308095 0.015400
C58   C     C_R   0.129495 0.103180 0.208560 -0.000561
C59   C     C_R   0.101544 0.034595 0.236931 -0.130513
C60   C     C_R   0.126277 0.022229 0.286422 -0.137929
C61   C     C_R   0.094749 0.125129 0.160533 -0.156855
C62   C     C_R   0.113905 0.201543 0.133138 0.002809
C63   C     C_R   0.277689 0.198536 0.350050 -0.115654
C64   C     C_R   0.260734 0.204005 0.300475 0.010107
C65   C     C_R   0.209407 0.145641 0.279233 0.065947
C66   C     C_R   0.294305 0.267461 0.272026 -0.147417
C67   C     C_3   0.772992 0.590810 0.736413 -0.103242
C68   C     C_R   0.273491 0.276850 0.222484 -0.111017
C69   C     C_R   0.216287 0.224713 0.200824 0.057659
C70   C     C_R   0.186374 0.156625 0.229353 0.037355
C71   C     C_R   0.182107 0.245288 0.152157 0.082020
C72   C     C_R   0.247287 0.132792 0.379125 0.003746
C73   C     C_R   0.571115 0.236524 0.362694 -0.142607
C74   C     C_R   0.576946 0.254760 0.313076 0.015572
C75   C     C_R   0.587214 0.287898 0.213091 0.011971
C76   C     C_R   0.515181 0.380258 0.243526 -0.134525
C77   C     C_R   0.509740 0.363689 0.293192 -0.142560
C78   C     C_3   0.757263 0.682537 0.774885 -0.106207
C79   C     C_R   0.599386 0.305295 0.164085 -0.132375
C80   C     C_R   0.677253 0.213379 0.134902 -0.016737
C81   C     C_R   0.716615 0.036663 0.351610 -0.126941
C82   C     C_R   0.720056 0.052368 0.302192 -0.014141
C83   C     C_R   0.649986 0.161492 0.282595 0.055816
C84   C     C_R   0.791452 0.959430 0.272232 -0.113721
C85   C     C_R   0.795798 0.973675 0.222276 0.105102
C86   C     C_R   0.726756 0.083278 0.202367 0.042012
C87   C     C_R   0.653751 0.177319 0.232597 0.037182
C88   C     C_R   0.734010 0.102267 0.153261 -0.118356
C89   C     C_1   0.698021 0.606174 0.899775 -0.012201
C90   C     C_R   0.640207 0.127094 0.381874 0.001119
C91   C     C_R   0.048882 0.236450 0.949672 0.543438
C92   C     C_R   0.711754 0.562574 0.948048 0.545442
C93   C     C_R   0.722342 0.225630 0.950794 0.545264
C94   C     C_R   0.049601 0.243979 0.087939 0.545077
C95   C     C_R   0.707970 0.575992 0.085804 0.546259
C96   C     C_R   0.718194 0.234154 0.089225 0.545849
Cr1   Cr    Cr6+3 0.417550 0.169090 0.500530 1.023945
Cr2   Cr    Cr6+3 0.669180 0.913420 0.499920 1.027572
Cr3   Cr    Cr6+3 0.413260 0.917540 0.499520 1.026437
Cr4   Cr    Cr6+3 0.909170 0.177380 0.020380 1.022807
Cr5   Cr    Cr6+3 0.912710 0.429210 0.018220 1.019625
Cr6   Cr    Cr6+3 0.657170 0.432570 0.019030 1.026290
H1    H     H_    0.826008 0.696819 0.789461 0.106534
H2    H     H_    0.262394 0.252998 0.795923 0.103116
H3    H     H_    0.952063 0.283662 0.777359 0.108322
H4    H     H_    0.528462 0.376781 0.786707 0.113441
H5    H     H_    0.712668 0.306757 0.719785 0.101705
H6    H     H_    0.461645 0.233705 0.737811 0.102148
H7    H     H_    0.856274 0.123100 0.782604 0.107725
H8    H     H_    0.867581 0.584325 0.141868 0.132654
H9    H     H_    0.854748 0.528975 0.718377 0.104140
H10   H     H_    0.504884 0.712795 0.128786 0.123980
H11   H     H_    0.380227 0.795447 0.198859 0.110265
H12   H     H_    0.359637 0.820199 0.286861 0.113532
H13   H     H_    0.443701 0.800208 0.364923 0.137857
H14   H     H_    0.178617 0.018558 0.380474 0.112452
H15   H     H_    0.057991 0.992873 0.221087 0.106338
H16   H     H_    0.102587 0.970310 0.307885 0.106350
H17   H     H_    0.298479 0.328743 0.201777 0.154974
H18   H     H_    0.334536 0.311823 0.288318 0.119425
H19   H     H_    0.319001 0.242804 0.365709 0.137948
H20   H     H_    0.555041 0.391330 0.149741 0.131501
H21   H     H_    0.511388 0.306104 0.386010 0.115120
H22   H     H_    0.464049 0.465502 0.228998 0.110328
H23   H     H_    0.453319 0.436021 0.316058 0.108004
H24   H     H_    0.791169 0.031864 0.129723 0.161700
H25   H     H_    0.491843 0.802298 0.797276 0.144689
H26   H     H_    0.769091 0.951268 0.365908 0.133090
H27   H     H_    0.520251 0.634983 0.726270 0.109677
H28   H     H_    0.717616 0.470365 0.776098 0.100770
H29   H     H_    0.053581 0.075992 0.721685 0.114086
O1    O     O_R   0.301710 0.195650 0.554160 -0.506703
O2    O     O_R   0.658900 0.818120 0.449760 -0.503521
O3    O     O_R   0.503220 0.801620 0.445520 -0.522297
O4    O     O_R   0.319370 0.022040 0.450020 -0.503934
O5    O     O_3   0.499990 0.000010 0.499990 -0.249436
O6    O     O_R   0.818720 0.150820 0.967160 -0.506907
O7    O     O_R   0.006410 0.181720 0.970200 -0.493956
O8    O     O_R   0.027890 0.334070 0.964920 -0.508806
O9    O     O_R   0.809600 0.521790 0.967960 -0.495036
O10   O     O_R   0.635520 0.542770 0.964420 -0.506656
O11   O     O_R   0.665950 0.325030 0.970100 -0.494573
O12   O     O_R   0.522390 0.158990 0.550460 -0.496021
O13   O     O_R   0.816620 0.158530 0.074540 -0.524676
O14   O     O_R   0.004460 0.188870 0.069750 -0.504999
O15   O     O_R   0.025800 0.341780 0.072300 -0.523876
O16   O     O_R   0.807650 0.528950 0.067500 -0.504305
O17   O     O_R   0.633420 0.550490 0.071810 -0.519563
O18   O     O_R   0.664000 0.332180 0.069640 -0.498491
O19   O     O_3   0.826350 0.346390 0.019210 -0.244765
O20   O     O_R   0.694390 0.003530 0.554040 -0.501046
O21   O     O_R   0.657700 0.819660 0.549320 -0.493533
O22   O     O_R   0.501930 0.803280 0.552920 -0.503320
O23   O     O_R   0.318170 0.023580 0.549580 -0.490892
O24   O     O_R   0.303010 0.193990 0.446760 -0.520153
O25   O     O_R   0.523600 0.157450 0.450900 -0.505118
O26   O     O_R   0.695690 0.001860 0.446640 -0.521122
H30   H     H_    0.083898 0.357978 0.725465 0.110985
H31   H     H_    0.605645 0.049128 0.800505 0.096653
N1    N     N_3   0.806391 0.956098 0.730677 -0.626888
H32   H     H_    0.838777 0.906525 0.761793 0.220116
H33   H     H_    0.758266 0.926291 0.712380 0.227625
H34   H     H_    0.802650 0.684487 0.381798 0.148836
H35   H     H_    0.949442 0.590587 0.218763 0.101398
N2    N     N_3   0.954375 0.612905 0.315336 -0.636947
H36   H     H_    0.947803 0.688676 0.328912 0.209304
H37   H     H_    0.028646 0.573419 0.294026 0.226570
H38   H     H_    0.044897 0.088986 0.145744 0.137939
H39   H     H_    0.628700 0.861154 0.739642 0.110902
N3    N     N_3   0.214794 0.312574 0.123276 -0.650344
H40   H     H_    0.143982 0.394118 0.118702 0.251998
H41   H     H_    0.244755 0.272448 0.089507 0.246186
N4    N     N_3   0.872608 0.878269 0.192044 -0.638843
H42   H     H_    0.911532 0.802861 0.212051 0.225822
H43   H     H_    0.938619 0.892675 0.181211 0.211721
H44   H     H_    0.844805 0.875827 0.287847 0.100247
N5    N     N_3   0.241017 0.948295 0.796427 -0.629803
H45   H     H_    0.270871 0.890292 0.767261 0.234020
H46   H     H_    0.172306 0.944137 0.811701 0.225377
N6    N     N_3   0.388174 0.030907 0.738394 -0.628035
H47   H     H_    0.431786 0.014418 0.771353 0.220929
H48   H     H_    0.413284 0.079378 0.717852 0.218971

loop_
_geom_bond_atom_site_label_1
_geom_bond_atom_site_label_2
_ccdc_geom_bond_type
C94   O15   A    
C2    C10   T    
C66   C68   A    
C40   C41   A    
N2    H36   S    
C3    H28   S    
C73   C74   A    
C12   O21   A    
C83   C87   A    
C12   O22   A    
C43   C44   A    
C2    C12   S    
C26   H4    S    
C81   C82   A    
Cr5   O8    S    
C7    C8    S    
C47   C49   A    
Cr2   O21   S    
N4    H42   S    
N6    H47   S    
Cr2   O2    S    
C11   C19   S    
C45   O3    A    
C20   C21   S    
C46   H13   S    
C18   H30   S    
C29   H7    S    
C19   C21   S    
C73   C90   A    
C56   O24   A    
C68   H17   S    
C5    C6    S    
C86   C88   A    
C21   N6    S    
N3    H40   S    
C65   C70   A    
Cr3   O23   S    
Cr2   O5    S    
Cr5   O19   S    
C17   C20   S    
C18   C19   S    
C41   C42   A    
Cr1   O25   S    
C69   C71   A    
C38   H34   S    
Cr1   O12   S    
C88   H24   S    
C35   H6    S    
Cr6   O17   S    
C44   C53   A    
C40   C43   A    
C47   C48   A    
C16   C17   S    
C56   C72   S    
C74   C77   A    
C30   C36   S    
Cr3   O5    S    
C1    C28   S    
C85   N4    S    
C31   C33   S    
C60   H16   S    
Cr6   O10   S    
C80   C96   S    
C74   C83   A    
C31   N1    S    
C42   N2    S    
C61   C62   A    
C58   C61   A    
C5    H27   S    
C49   H12   S    
C59   C60   A    
C59   H15   S    
C66   H18   S    
C8    C78   S    
C62   C71   A    
C67   C78   S    
C4    C7    S    
C63   H19   S    
Cr5   O9    S    
N6    H48   S    
C39   C42   A    
Cr2   O20   S    
N4    H43   S    
C25   C29   S    
C79   H20   S    
C3    C67   S    
Cr5   O15   S    
Cr3   O4    S    
C51   C52   A    
C76   H22   S    
C32   C35   S    
C95   O16   A    
C76   C77   A    
Cr4   O13   S    
C9    C89   T    
C5    C7    S    
C86   C87   A    
C68   C69   A    
C57   C60   A    
C6    C8    S    
Cr4   O19   S    
C58   C59   A    
C85   C86   A    
C79   C80   A    
Cr3   O3    S    
C51   C53   A    
C64   C66   A    
C75   C76   A    
C34   C90   S    
C4    C78   S    
C29   C30   S    
C1    O12   A    
C96   O13   A    
C91   O7    A    
C11   C16   S    
C31   C32   S    
C38   C54   A    
Cr2   O26   S    
Cr4   O14   S    
C29   C31   S    
C46   C54   A    
C50   C51   A    
C71   N3    S    
C13   C21   S    
C16   C18   S    
C32   C37   S    
C84   C85   A    
C89   C92   S    
C92   O10   A    
Cr4   O7    S    
C16   H3    S    
Cr6   O19   S    
C91   O8    A    
C81   C90   A    
C53   H10   S    
C67   H9    S    
C15   C24   T    
C43   H8    S    
C45   C54   S    
N5    H45   S    
C82   C84   A    
C62   C94   S    
C81   H26   S    
C49   C50   A    
C27   C93   S    
C41   H35   S    
C3    C4    S    
C92   O9    A    
C6    C67   S    
C56   O4    A    
C77   H23   S    
C8    H39   S    
C25   H5    S    
C75   C87   A    
C46   C47   A    
Cr5   O16   S    
C30   C33   S    
C78   H1    S    
C58   C70   A    
C95   O17   A    
C55   C72   A    
Cr1   O1    S    
C57   C65   A    
C3    C5    S    
C11   H29   S    
C6    C10   S    
C26   C30   S    
C20   H2    S    
C34   O25   A    
C27   C36   T    
C45   O2    A    
C17   C22   S    
C13   C17   S    
C50   H11   S    
C64   C65   A    
C14   C22   T    
C55   C57   A    
C19   C24   S    
C25   C26   S    
C80   C88   A    
C44   C95   S    
C40   C52   A    
N1    H32   S    
C11   C13   S    
C38   C39   A    
N3    H41   S    
C28   C37   T    
C94   O14   A    
C13   N5    S    
C96   O18   A    
Cr3   O22   S    
C15   C23   S    
C33   C35   S    
N5    H46   S    
C23   O1    A    
C1    O20   A    
C18   C20   S    
Cr1   O24   S    
C69   C70   A    
C14   C91   S    
C93   O6    A    
Cr4   O6    S    
Cr6   O18   S    
C63   C64   A    
C34   O26   A    
C26   C35   S    
C48   C52   A    
C63   C72   A    
C61   H38   S    
N2    H37   S    
C82   C83   A    
C55   H14   S    
C23   O23   A    
Cr6   O11   S    
Cr1   O5    S    
C7    H25   S    
C4    C9    S    
C84   H44   S    
C75   C79   A    
C93   O11   A    
C33   H31   S    
N1    H33   S    
C39   C48   A    
C25   C32   S    
C73   H21   S    
