data_mof_unit_45868.cif
_audit_creation_date              2012-12-10T17:37:17-0500
_audit_creation_method            fapswitch 2.2
_symmetry_space_group_name_H-M    P1
_symmetry_Int_Tables_number       1
_space_group_crystal_system       triclinic
_cell_length_a                    12.365611
_cell_length_b                    13.077485
_cell_length_c                    15.817844
_cell_angle_alpha                 77.306194
_cell_angle_beta                  100.469934
_cell_angle_gamma                 116.567809
_cell_volume                      2221.67239415

loop_
_atom_site_label
_atom_site_type_symbol
_atom_type_description
_atom_site_fract_x
_atom_site_fract_y
_atom_site_fract_z
_atom_type_partial_charge
C1    C     C_R   0.854885 0.285548 0.506363 0.841635
C2    C     C_3   0.995297 0.498854 0.916306 0.155984
C3    C     C_3   0.108822 0.567422 0.030668 -0.143221
C4    C     C_3   0.997498 0.499009 0.083008 0.153172
C5    C     C_3   0.028970 0.607814 0.956187 -0.237793
C6    C     C_3   0.918326 0.538840 0.009844 -0.026266
C7    C     C_1   0.996658 0.499808 0.824651 0.018528
C8    C     C_1   0.000212 0.498925 0.175088 0.022161
C9    C     C_R   0.270103 0.034618 0.408494 -0.132976
C10   C     C_R   0.226770 0.837928 0.476885 -0.049331
C11   C     C_R   0.807027 0.075371 0.563982 -0.092582
C12   C     C_R   0.999615 0.500431 0.659705 0.842518
C13   C     C_R   0.721997 0.978345 0.613179 -0.047506
C14   C     C_R   0.597718 0.957539 0.599670 -0.035379
C15   C     C_R   0.557631 0.022889 0.526673 -0.026173
C16   C     C_R   0.645111 0.126904 0.485611 0.090785
C17   C     C_R   0.433463 0.988638 0.492887 0.040359
C18   C     C_R   0.395223 0.069169 0.435285 0.135650
C19   C     C_R   0.484215 0.176390 0.399438 -0.031179
C20   C     C_R   0.606195 0.196960 0.417978 -0.238622
C21   C     C_R   0.349280 0.872321 0.506652 -0.253410
C22   C     C_R   0.186480 0.920700 0.431210 -0.203479
C23   C     C_R   0.144886 0.714106 0.488076 0.789329
C24   C     C_R   0.770193 0.159956 0.513268 -0.078260
C25   C     C_R   0.308812 0.286114 0.594946 -0.251570
C26   C     C_R   0.770882 0.659598 0.393408 0.003067
C27   C     C_R   0.680149 0.699374 0.371107 -0.061407
C28   C     C_R   0.569570 0.635867 0.408068 -0.146162
C29   C     C_R   0.548598 0.532477 0.466832 -0.032273
C30   C     C_R   0.644658 0.495635 0.488842 0.172159
C31   C     C_R   0.436730 0.465471 0.506675 0.000534
C32   C     C_R   0.413713 0.352792 0.551756 0.141819
C33   C     C_R   0.500664 0.311059 0.560929 -0.231052
C34   C     C_R   0.000726 0.500061 0.340243 0.806524
C35   C     C_R   0.619925 0.388884 0.547488 -0.022781
C36   C     C_R   0.346611 0.504858 0.505189 0.059690
C37   C     C_R   0.227374 0.331961 0.594785 0.140516
C38   C     C_3   0.963596 0.390003 0.043101 -0.228689
C39   C     C_3   0.884928 0.431098 0.968893 -0.023534
C40   C     C_1   0.997987 0.500320 0.749157 -0.142944
C41   C     C_1   0.001317 0.499262 0.250791 -0.125852
C42   C     C_3   0.075082 0.458589 0.989360 -0.139205
Cu1   Cu    Cu3+1 0.098270 0.475420 0.519690 0.990919
Cu2   Cu    Cu3+1 0.901730 0.524580 0.480310 0.950502
H1    H     H_    0.380065 0.805973 0.535543 0.173884
H2    H     H_    0.671415 0.270857 0.379832 0.153027
H3    H     H_    0.291387 0.200167 0.630478 0.137910
H4    H     H_    0.353847 0.587241 0.468814 0.119060
H5    H     H_    0.936578 0.300732 0.079581 0.157996
H6    H     H_    0.055400 0.696998 0.919637 0.152665
H7    H     H_    0.139882 0.425682 0.979712 0.154233
H8    H     H_    0.091768 0.895765 0.407154 0.155932
H9    H     H_    0.235473 0.091867 0.365607 0.201545
N1    N     N_R   0.246280 0.438200 0.549540 -0.189975
N2    N     N_R   0.754330 0.561180 0.450980 -0.204503
O1    O     O_R   0.972510 0.318130 0.524770 -0.552797
O2    O     O_R   0.806530 0.359650 0.491510 -0.578874
O3    O     O_R   0.082970 0.479240 0.637550 -0.570831
O4    O     O_R   0.916990 0.520750 0.604290 -0.602667
O5    O     O_R   0.193470 0.640350 0.508490 -0.588444
O6    O     O_R   0.027490 0.681870 0.475230 -0.595455
O7    O     O_R   0.083010 0.479250 0.395710 -0.561754
O8    O     O_R   0.917030 0.520760 0.362450 -0.574853
C43   C     C_2   0.758620 0.353852 0.936692 0.351446
H10   H     H_    0.688723 0.310674 0.981397 0.078803
O9    O     O_2   0.733654 0.339141 0.860771 -0.521303
C44   C     C_2   0.933813 0.089108 0.568232 0.350749
H11   H     H_    0.978129 0.060972 0.628329 0.041878
O10   O     O_2   0.988209 0.127769 0.502997 -0.520077
C45   C     C_2   0.512405 0.876626 0.665057 0.422197
H12   H     H_    0.444828 0.898955 0.681267 0.067765
O11   O     O_2   0.511763 0.782530 0.697206 -0.511883
C46   C     C_2   0.765786 0.902733 0.680286 0.429134
H13   H     H_    0.819393 0.865298 0.662443 0.033445
O12   O     O_2   0.747907 0.886870 0.756479 -0.489902
H14   H     H_    0.145687 0.280589 0.627359 0.124962
H15   H     H_    0.482658 0.226221 0.599458 0.174106
H16   H     H_    0.856478 0.708274 0.365079 0.128183
H17   H     H_    0.499955 0.666982 0.388433 0.171780
C47   C     C_2   0.702879 0.808016 0.309162 0.386123
H18   H     H_    0.789053 0.855405 0.280981 0.067617
O13   O     O_2   0.626263 0.846177 0.288974 -0.530711
C48   C     C_2   0.698202 0.378290 0.627231 0.487506
H19   H     H_    0.734681 0.446269 0.667196 0.087980
O14   O     O_2   0.712674 0.289736 0.653787 -0.542549
C49   C     C_2   0.830016 0.584565 0.018621 0.346216
H20   H     H_    0.780025 0.610216 0.960809 0.098330
O15   O     O_2   0.813747 0.593117 0.090063 -0.529111
H21   H     H_    0.201228 0.623453 0.057344 0.157865
C50   C     C_2   0.456797 0.267994 0.338916 0.349431
H22   H     H_    0.517407 0.323450 0.289398 0.089900
O16   O     O_2   0.372454 0.288336 0.347217 -0.540183

loop_
_geom_bond_atom_site_label_1
_geom_bond_atom_site_label_2
_ccdc_geom_bond_type
C3    C42   S    
C14   C45   S    
C46   H13   S    
C19   C20   A    
C4    C8    S    
C26   N2    A    
C38   H5    S    
C10   C22   A    
C39   C43   S    
C26   C27   A    
C26   H16   S    
C30   C35   A    
C48   H19   S    
C28   C29   A    
C1    O1    A    
C38   C42   S    
C5    C6    S    
C49   O15   D    
C9    C22   A    
Cu2   O4    S    
C15   C16   A    
C11   C24   A    
C34   O7    A    
C18   C19   A    
C28   H17   S    
Cu1   O3    S    
C25   C37   A    
C12   O4    A    
C2    C39   S    
C2    C7    S    
C7    C40   T    
C45   H12   S    
C25   H3    S    
C42   H7    S    
C12   O3    A    
C25   C32   A    
C16   C24   A    
C13   C14   A    
C46   O12   D    
C34   C41   S    
C11   C44   S    
C21   H1    S    
C10   C21   A    
C23   O5    A    
C44   H11   S    
C8    C41   T    
C47   O13   D    
C27   C47   S    
C35   C48   S    
C49   H20   S    
C17   C21   A    
C44   O10   D    
C43   O9    D    
C12   C40   S    
Cu1   Cu2   S    
C29   C30   A    
C1    O2    A    
Cu1   O1    S    
Cu1   N1    S    
C50   O16   D    
C31   C32   A    
C14   C15   A    
Cu2   O2    S    
C16   C20   A    
C17   C18   A    
Cu1   O5    S    
C37   N1    A    
C4    C6    S    
C48   O14   D    
C37   H14   S    
C13   C46   S    
C10   C23   S    
C5    H6    S    
C2    C5    S    
C9    H9    S    
C3    C4    S    
C22   H8    S    
C15   C17   A    
C31   C36   A    
C4    C38   S    
C47   H18   S    
C3    C5    S    
Cu2   O6    S    
C30   N2    A    
C6    C49   S    
C3    H21   S    
C32   C33   A    
C29   C31   A    
C19   C50   S    
C43   H10   S    
C11   C13   A    
Cu2   N2    S    
C33   H15   S    
C50   H22   S    
C38   C39   S    
C2    C42   S    
C34   O8    A    
C33   C35   A    
C36   H4    S    
C36   N1    A    
C9    C18   A    
C23   O6    A    
C1    C24   S    
Cu2   O8    S    
C27   C28   A    
C6    C39   S    
C45   O11   D    
C20   H2    S    
Cu1   O7    S    
