data_mof_unit_39306.cif
_audit_creation_date              2012-12-10T17:03:25-0500
_audit_creation_method            fapswitch 2.2
_symmetry_space_group_name_H-M    P1
_symmetry_Int_Tables_number       1
_space_group_crystal_system       triclinic
_cell_length_a                    14.94001
_cell_length_b                    11.052263
_cell_length_c                    10.066311
_cell_angle_alpha                 112.035893
_cell_angle_beta                  98.019043
_cell_angle_gamma                 93.498342
_cell_volume                      1513.99077019

loop_
_atom_site_label
_atom_site_type_symbol
_atom_type_description
_atom_site_fract_x
_atom_site_fract_y
_atom_site_fract_z
_atom_type_partial_charge
C1    C     C_R   0.493063 0.253952 0.439833 0.834853
C2    C     C_R   0.506919 0.746047 0.560168 0.834906
C3    C     C_R   0.019367 0.267024 0.328248 0.145206
C4    C     C_R   0.980636 0.732930 0.671810 0.145223
C5    C     C_2   0.489606 0.112972 0.406439 -0.364490
C6    C     C_2   0.510331 0.887024 0.593565 -0.364460
C7    C     C_2   0.500989 0.069890 0.515071 -0.141563
C8    C     C_2   0.498875 0.930098 0.484930 -0.141557
C9    C     C_2   0.509216 0.511179 0.081694 0.502043
C10   C     C_2   0.490805 0.488784 0.918298 0.501867
C11   C     C_R   0.329596 0.501122 0.500732 0.769187
C12   C     C_R   0.670404 0.498876 0.499268 0.769225
C13   C     C_R   0.825958 0.611826 0.589959 -0.278458
C14   C     C_R   0.174045 0.388145 0.410069 -0.278463
C15   C     C_R   0.766905 0.499560 0.499119 -0.033711
C16   C     C_R   0.233095 0.500422 0.500885 -0.033640
C17   C     C_R   0.799435 0.388375 0.408933 -0.240043
C18   C     C_R   0.200564 0.611603 0.591072 -0.240072
C19   C     C_R   0.892707 0.386970 0.411482 0.070175
C20   C     C_R   0.107294 0.612995 0.588542 0.070164
C21   C     C_R   0.953228 0.500882 0.500236 0.028600
C22   C     C_R   0.046774 0.499079 0.499801 0.028589
C23   C     C_R   0.919839 0.616433 0.588560 0.060396
C24   C     C_R   0.080163 0.383529 0.411483 0.060356
C25   C     C_R   0.925560 0.272177 0.327655 -0.213893
C26   C     C_R   0.074441 0.727783 0.672378 -0.213894
Cu1   Cu    Cu3+1 0.515770 0.521810 0.644910 0.973253
Cu2   Cu    Cu3+1 0.484230 0.478190 0.355090 0.973278
H1    H     H_    0.797001 0.695454 0.658575 0.115240
H2    H     H_    0.203001 0.304519 0.341452 0.115247
H3    H     H_    0.752040 0.301951 0.340055 0.131070
H4    H     H_    0.247958 0.698032 0.659937 0.131074
H5    H     H_    0.876726 0.186779 0.263099 0.159295
H6    H     H_    0.123276 0.813181 0.736924 0.159293
H7    H     H_    0.487610 0.861772 0.371707 0.210609
H8    H     H_    0.512220 0.138212 0.628294 0.210698
H9    H     H_    0.521775 0.955648 0.706609 0.161093
H10   H     H_    0.478196 0.044351 0.293397 0.161107
N1    N     N_2   0.460520 0.445420 0.137370 -0.072951
N2    N     N_2   0.539480 0.554580 0.862630 -0.072946
O1    O     O_R   0.508410 0.332340 0.577400 -0.538791
O2    O     O_R   0.491590 0.667660 0.422600 -0.538805
O3    O     O_R   0.481780 0.295500 0.332650 -0.589254
O4    O     O_R   0.518220 0.704500 0.667350 -0.589265
O5    O     O_R   0.383570 0.518390 0.622380 -0.568123
O6    O     O_R   0.616430 0.481610 0.377620 -0.568071
O7    O     O_R   0.356940 0.481550 0.377630 -0.621414
O8    O     O_R   0.643060 0.518450 0.622370 -0.621410
C27   C     C_3   0.055708 0.139150 0.244143 -0.397781
C28   C     C_3   0.986145 0.015364 0.177617 -0.864978
H11   H     H_    0.953467 0.999484 0.263326 0.256515
H12   H     H_    0.933480 0.023007 0.092723 0.253460
H13   H     H_    0.021245 0.928425 0.125551 0.249172
H14   H     H_    0.087236 0.151589 0.155726 0.198694
H15   H     H_    0.109521 0.120318 0.319647 0.203525
C29   C     C_3   0.944298 0.860794 0.755951 -0.397786
C30   C     C_3   0.013868 0.984565 0.822525 -0.865016
H16   H     H_    0.066530 0.976869 0.907388 0.253466
H17   H     H_    0.046550 0.000484 0.736839 0.256509
H18   H     H_    0.978775 0.071498 0.874632 0.249192
H19   H     H_    0.890490 0.879656 0.680462 0.203522
H20   H     H_    0.912762 0.848328 0.844351 0.198698
O9    O     O_3   0.427262 0.385657 0.822516 -0.558786
C31   C     C_3   0.338197 0.422523 0.828697 0.156234
H21   H     H_    0.332357 0.521141 0.825882 0.135335
H22   H     H_    0.316026 0.431084 0.930949 0.123073
C32   C     C_3   0.272120 0.317972 0.702834 -0.754540
H23   H     H_    0.274213 0.220690 0.709966 0.242635
H24   H     H_    0.201707 0.344772 0.703890 0.195691
H25   H     H_    0.292115 0.306394 0.597440 0.237969
O10   O     O_3   0.572794 0.614252 0.177469 -0.558744
C33   C     C_3   0.661838 0.577325 0.171167 0.156089
H26   H     H_    0.683937 0.568680 0.068841 0.123061
H27   H     H_    0.667679 0.478736 0.174068 0.135388
C34   C     C_3   0.727983 0.681883 0.296902 -0.754569
H28   H     H_    0.708105 0.693401 0.402351 0.237964
H29   H     H_    0.798393 0.655111 0.295654 0.195676
H30   H     H_    0.725802 0.779182 0.289838 0.242763
O11   O     O_3   0.579265 0.675964 0.956809 -0.513299
C35   C     C_3   0.660974 0.707314 0.913083 0.245518
H31   H     H_    0.647727 0.735799 0.819834 0.181920
H32   H     H_    0.702447 0.623861 0.884305 0.120411
C36   C     C_3   0.719091 0.826419 0.034046 -0.920556
H33   H     H_    0.773082 0.794035 0.095802 0.228563
H34   H     H_    0.754226 0.887972 0.986639 0.199782
H35   H     H_    0.676583 0.888170 0.108624 0.283090
O12   O     O_3   0.420750 0.324026 0.043203 -0.513306
C37   C     C_3   0.339037 0.292667 0.086910 0.245393
H36   H     H_    0.297542 0.376097 0.115626 0.120359
H37   H     H_    0.352277 0.264228 0.180190 0.181968
C38   C     C_3   0.280967 0.173508 0.965960 -0.920461
H38   H     H_    0.323525 0.111716 0.891516 0.283079
H39   H     H_    0.245777 0.112010 0.013376 0.199764
H40   H     H_    0.227030 0.205841 0.904058 0.228574

loop_
_geom_bond_atom_site_label_1
_geom_bond_atom_site_label_2
_ccdc_geom_bond_type
Cu1   O8    S    
O12   C37   S    
Cu2   O7    S    
C12   O6    A    
C7    H8    S    
C11   O7    A    
C10   O9    S    
N1    O12   S    
C12   O8    A    
C3    C27   S    
C7    C8    S    
Cu2   O6    S    
C1    C5    S    
C13   H1    S    
C19   C21   A    
C35   C36   S    
C30   H17   S    
C27   H14   S    
C9    N1    D    
C29   C30   S    
C13   C23   A    
C10   N2    D    
C14   C24   A    
Cu1   O4    S    
C26   H6    S    
C2    O4    A    
C28   H12   S    
C37   C38   S    
C14   C16   A    
C9    C10   S    
C29   H20   S    
Cu1   O5    S    
C5    H10   S    
C4    C29   S    
C3    C24   A    
C2    C6    S    
C14   H2    S    
C33   C34   S    
C1    O3    A    
N2    O11   S    
C28   H13   S    
C32   H23   S    
C31   C32   S    
C3    C25   A    
C33   H27   S    
C38   H38   S    
C5    C7    D    
C4    C23   A    
C35   H31   S    
C30   H18   S    
C6    C8    D    
Cu2   N1    S    
C27   H15   S    
O9    C31   S    
C32   H24   S    
C8    H7    S    
C31   H22   S    
C34   H28   S    
C38   H39   S    
C11   C16   S    
Cu1   O1    S    
C36   H33   S    
C12   C15   S    
Cu1   N2    S    
C28   H11   S    
C6    H9    S    
C34   H29   S    
C1    O1    A    
C36   H34   S    
C37   H37   S    
C21   C23   A    
C17   H3    S    
C22   C24   A    
C11   O5    A    
C18   H4    S    
C15   C17   A    
C9    O10   S    
C20   C22   A    
C33   H26   S    
C4    C26   A    
Cu2   O3    S    
C32   H25   S    
C31   H21   S    
C13   C15   A    
O10   C33   S    
C38   H40   S    
C30   H16   S    
C20   C26   A    
C2    O2    A    
Cu2   O2    S    
C17   C19   A    
C35   H32   S    
C18   C20   A    
C19   C25   A    
C34   H30   S    
O11   C35   S    
C36   H35   S    
C37   H36   S    
C16   C18   A    
C27   C28   S    
Cu1   Cu2   S    
C29   H19   S    
C21   C22   A    
C25   H5    S    
