data_mof_unit_64782.cif
_audit_creation_date              2012-10-26T18:35:15-0400
_audit_creation_method            fapswitch 2.2
_symmetry_space_group_name_H-M    P1
_symmetry_Int_Tables_number       1
_space_group_crystal_system       triclinic
_cell_length_a                    10.832398
_cell_length_b                    14.42661
_cell_length_c                    13.14496
_cell_angle_alpha                 89.995566
_cell_angle_beta                  90.002032
_cell_angle_gamma                 89.947757
_cell_volume                      2054.22488795

loop_
_atom_site_label
_atom_site_type_symbol
_atom_type_description
_atom_site_fract_x
_atom_site_fract_y
_atom_site_fract_z
_atom_type_partial_charge
C1    C     C_R   0.499894 0.328729 0.500000 0.537663
C2    C     C_R   0.742702 0.498788 0.499920 0.557063
C3    C     C_R   0.500086 0.671274 0.499996 0.537662
C4    C     C_3   0.070416 0.585826 0.562852 -0.108574
C5    C     C_3   0.073737 0.409142 0.551653 -0.106750
C6    C     C_3   0.926263 0.590658 0.552167 -0.106738
C7    C     C_3   0.929595 0.413934 0.562389 -0.108564
C8    C     C_3   0.070184 0.506297 0.389585 -0.226963
C9    C     C_3   0.929797 0.494266 0.389553 -0.226884
C10   C     C_3   0.120978 0.500888 0.500251 0.053551
C11   C     C_3   0.879020 0.499152 0.500257 0.053567
C12   C     C_1   0.499998 0.957586 0.500043 -0.006224
C13   C     C_1   0.499944 0.227158 0.500016 -0.061716
C14   C     C_1   0.499970 0.142336 0.500035 -0.049423
C15   C     C_1   0.499988 0.042417 0.500046 -0.006223
C16   C     C_3   0.138095 0.678450 0.541419 -0.402636
C17   C     C_3   0.122736 0.320701 0.497791 -0.398695
C18   C     C_3   0.877214 0.679351 0.498820 -0.398718
C19   C     C_3   0.861891 0.321408 0.540486 -0.402458
C20   C     C_1   0.500014 0.857667 0.500026 -0.049429
C21   C     C_1   0.500039 0.772845 0.500005 -0.061720
C22   C     C_1   0.500000 0.500024 0.173630 0.112474
C23   C     C_1   0.500000 0.500024 0.826370 0.112755
C24   C     C_1   0.500000 0.500025 0.050682 -0.054246
C25   C     C_1   0.500000 0.500025 0.949318 -0.054241
C26   C     C_R   0.257298 0.501231 0.499915 0.557022
Cu1   Cu    Cu3+1 0.500000 0.499990 0.592680 0.945863
Cu2   Cu    Cu3+1 0.500000 0.499990 0.407320 0.949975
H1    H     H_    0.090185 0.571208 0.644537 0.120401
H2    H     H_    0.099686 0.734540 0.589726 0.128850
H3    H     H_    0.237092 0.673380 0.561939 0.148754
H4    H     H_    0.080515 0.311406 0.421615 0.136456
H5    H     H_    0.224376 0.323130 0.488461 0.141365
H6    H     H_    0.103481 0.258351 0.544558 0.128383
H7    H     H_    0.919334 0.688981 0.422676 0.136436
H8    H     H_    0.775556 0.676980 0.489548 0.141267
H9    H     H_    0.896555 0.741479 0.545887 0.128445
H10   H     H_    0.868327 0.301350 0.459237 0.134008
H11   H     H_    0.900347 0.265075 0.588495 0.128805
H12   H     H_    0.112453 0.406207 0.630167 0.125511
H13   H     H_    0.762900 0.326392 0.561071 0.148595
H14   H     H_    0.887583 0.593207 0.630712 0.125588
H15   H     H_    0.909864 0.428173 0.644153 0.120326
H16   H     H_    0.094286 0.574042 0.354663 0.122832
H17   H     H_    0.112302 0.452272 0.340214 0.129219
H18   H     H_    0.887652 0.548538 0.340488 0.129100
H19   H     H_    0.905685 0.426675 0.354238 0.122928
H20   H     H_    0.131618 0.698846 0.460287 0.133961
N1    N     N_1   0.500000 0.500020 0.268070 -0.170035
N2    N     N_1   0.500000 0.500020 0.731930 -0.169617
O1    O     O_R   0.500000 0.376050 0.578280 -0.474179
O2    O     O_R   0.500000 0.376050 0.421720 -0.471239
O3    O     O_R   0.317680 0.499980 0.578260 -0.499215
O4    O     O_R   0.317680 0.499980 0.421740 -0.494865
O5    O     O_R   0.682320 0.499980 0.578260 -0.499197
O6    O     O_R   0.682320 0.499980 0.421740 -0.494831
O7    O     O_R   0.500000 0.623940 0.578240 -0.474259
O8    O     O_R   0.500000 0.623940 0.421760 -0.471188

loop_
_geom_bond_atom_site_label_1
_geom_bond_atom_site_label_2
_ccdc_geom_bond_type
C4    C16   S    
Cu1   O3    S    
C18   H8    S    
C3    O8    A    
C19   H10   S    
Cu2   O8    S    
C1    O1    A    
Cu2   N1    S    
C4    H1    S    
C12   C15   T    
Cu1   Cu2   S    
C12   C20   S    
C23   C25   S    
C10   C26   S    
Cu2   O6    S    
C19   H13   S    
C5    C10   S    
C2    O6    A    
C13   C14   T    
C24   C25   T    
C16   H3    S    
C7    C11   S    
Cu2   O2    S    
C16   H20   S    
C17   H5    S    
C22   N1    T    
C2    C11   S    
C19   H11   S    
C22   C24   S    
C8    C10   S    
C18   H9    S    
Cu1   O1    S    
C9    H19   S    
C7    C19   S    
C2    O5    A    
C9    C11   S    
Cu1   O7    S    
C6    C18   S    
C1    O2    A    
Cu1   O5    S    
C3    C21   S    
C5    C17   S    
C17   H6    S    
C16   H2    S    
C26   O3    A    
C26   O4    A    
C9    H18   S    
C1    C13   S    
C20   C21   T    
Cu1   N2    S    
C4    C6    S    
C18   H7    S    
C5    H12   S    
C6    C11   S    
C5    C7    S    
C17   H4    S    
Cu2   O4    S    
C14   C15   S    
C23   N2    T    
C8    H17   S    
C4    C10   S    
C8    H16   S    
C7    H15   S    
C8    C9    S    
C3    O7    A    
C6    H14   S    
