data_mof_unit_44749.cif
_audit_creation_date              2012-12-10T17:16:35-0500
_audit_creation_method            fapswitch 2.2
_symmetry_space_group_name_H-M    P1
_symmetry_Int_Tables_number       1
_space_group_crystal_system       triclinic
_cell_length_a                    10.068967
_cell_length_b                    10.661575
_cell_length_c                    10.862866
_cell_angle_alpha                 89.466832
_cell_angle_beta                  96.02165
_cell_angle_gamma                 81.351503
_cell_volume                      1146.14607778

loop_
_atom_site_label
_atom_site_type_symbol
_atom_type_description
_atom_site_fract_x
_atom_site_fract_y
_atom_site_fract_z
_atom_type_partial_charge
C1    C     C_R   0.442502 0.505637 0.267648 0.905447
C2    C     C_R   0.557550 0.498733 0.732222 0.978672
C3    C     C_2   0.407456 0.522783 0.136217 -0.437248
C4    C     C_2   0.593062 0.490496 0.864416 -0.302808
C5    C     C_2   0.496031 0.472392 0.059470 0.009400
C6    C     C_2   0.499756 0.536390 0.938646 0.001676
C7    C     C_2   0.075190 0.484598 0.493185 -0.126168
C8    C     C_2   0.933013 0.491644 0.522370 -0.141317
C9    C     C_R   0.501241 0.257912 0.505140 0.903473
C10   C     C_R   0.506736 0.735764 0.524333 0.906485
C11   C     C_R   0.723242 0.063969 0.428784 -0.133003
C12   C     C_R   0.294121 0.904205 0.652231 -0.157193
C13   C     C_R   0.847830 0.984806 0.435148 -0.113522
C14   C     C_R   0.193745 0.989785 0.697856 -0.137717
C15   C     C_R   0.873803 0.879716 0.516087 -0.241853
C16   C     C_R   0.213090 0.114673 0.715188 -0.232402
C17   C     C_R   0.769208 0.844137 0.577671 0.051592
C18   C     C_R   0.330206 0.154947 0.681099 0.035097
C19   C     C_R   0.637195 0.912731 0.551068 0.096746
C20   C     C_R   0.414608 0.077222 0.605514 0.089079
C21   C     C_R   0.621985 0.035251 0.501364 0.027661
C22   C     C_R   0.406660 0.946515 0.605173 0.051958
C23   C     C_R   0.517841 0.863915 0.566662 -0.184450
C24   C     C_R   0.509833 0.122319 0.533064 -0.194149
N1    N     N_2   0.157300 0.551390 0.551120 -0.204171
N2    N     N_2   0.842700 0.448610 0.448880 -0.188107
O1    O     O_R   0.568940 0.489660 0.307530 -0.582117
O2    O     O_R   0.431060 0.510340 0.692470 -0.618816
O3    O     O_R   0.348880 0.522640 0.340350 -0.597926
O4    O     O_R   0.651120 0.477360 0.659650 -0.591934
O5    O     O_R   0.610030 0.300280 0.483580 -0.614508
O6    O     O_R   0.389970 0.699720 0.516420 -0.635192
O7    O     O_R   0.389970 0.333270 0.516400 -0.629992
O8    O     O_R   0.610030 0.666730 0.483600 -0.598072
Zn1   Zn    Zn3+2 0.646940 0.477980 0.478080 0.991788
Zn2   Zn    Zn3+2 0.353060 0.522020 0.521920 0.950120
H1    H     H_    0.144919 0.175121 0.768184 0.146252
H2    H     H_    0.975246 0.827401 0.531682 0.132304
H3    H     H_    0.708474 0.145383 0.366335 0.166984
H4    H     H_    0.283795 0.805834 0.662642 0.179744
H5    H     H_    0.926732 0.009381 0.383208 0.155933
H6    H     H_    0.107915 0.956148 0.732194 0.162680
C25   C     C_2   0.804986 0.754790 0.685350 0.395136
H7    H     H_    0.909786 0.714339 0.710998 0.048042
O9    O     O_2   0.720316 0.731304 0.751154 -0.604736
C26   C     C_2   0.381746 0.253858 0.757764 0.432644
H8    H     H_    0.312281 0.329862 0.792519 0.083686
O10   O     O_2   0.502548 0.245353 0.790402 -0.601690
C27   C     C_2   0.400013 0.650879 0.895846 0.410831
H9    H     H_    0.435720 0.732070 0.856760 0.084639
O11   O     O_2   0.278635 0.651351 0.895489 -0.601195
C28   C     C_2   0.587308 0.351188 0.098104 0.493303
H10   H     H_    0.544866 0.272914 0.135226 0.033326
O12   O     O_2   0.709678 0.341726 0.098469 -0.585427
H11   H     H_    0.681685 0.423137 0.895664 0.215062
H12   H     H_    0.325483 0.598729 0.108777 0.215424
H13   H     H_    0.904074 0.534059 0.606947 0.162443
H14   H     H_    0.110975 0.421952 0.421546 0.174449
H15   H     H_    0.873344 0.409210 0.368234 0.195508
H16   H     H_    0.120884 0.608984 0.619566 0.168131

loop_
_geom_bond_atom_site_label_1
_geom_bond_atom_site_label_2
_ccdc_geom_bond_type
C12   H4    S    
C19   C23   A    
C25   H7    S    
C17   C25   S    
C5    C28   S    
C15   C17   A    
N1    H16   S    
C10   O6    A    
C10   C23   S    
C11   C13   A    
N2    H15   S    
C7    H14   S    
C2    C4    S    
C7    N1    D    
C2    O4    A    
C16   H1    S    
C14   H6    S    
O1    Zn1   S    
C13   H5    S    
C12   C14   A    
C7    C8    S    
C15   H2    S    
C16   C18   A    
C9    O7    A    
C25   O9    D    
O3    Zn2   S    
O4    Zn1   S    
C10   O8    A    
O6    Zn2   S    
C1    C3    S    
C1    O3    A    
C19   C21   A    
C20   C22   A    
C27   H9    S    
C18   C20   A    
C13   C15   A    
C6    C27   S    
C5    C6    S    
C8    H13   S    
O5    Zn1   S    
C11   H3    S    
C9    O5    A    
N1    Zn2   S    
C18   C26   S    
C26   O10   D    
C12   C22   A    
N2    Zn1   S    
O7    Zn2   S    
C8    N2    D    
C28   H10   S    
O2    Zn2   S    
C4    C6    D    
O8    Zn1   S    
C3    H12   S    
C21   C24   A    
C4    H11   S    
C1    O1    A    
C26   H8    S    
C17   C19   A    
C2    O2    A    
C3    C5    D    
C14   C16   A    
C22   C23   A    
C11   C21   A    
C9    C24   S    
C20   C24   A    
C28   O12   D    
C27   O11   D    
