data_mof_unit_24241.cif
_audit_creation_date              2012-12-11T15:30:36-0500
_audit_creation_method            fapswitch 2.2
_symmetry_space_group_name_H-M    P1
_symmetry_Int_Tables_number       1
_space_group_crystal_system       triclinic
_cell_length_a                    6.949624
_cell_length_b                    20.483922
_cell_length_c                    24.397481
_cell_angle_alpha                 89.78387
_cell_angle_beta                  90.468147
_cell_angle_gamma                 89.454579
_cell_volume                      3472.81793861

loop_
_atom_site_label
_atom_site_type_symbol
_atom_type_description
_atom_site_fract_x
_atom_site_fract_y
_atom_site_fract_z
_atom_type_partial_charge
O1    O     O_R   0.507310 0.423620 0.460450 -0.535882
O2    O     O_R   0.170760 0.556060 0.437190 -0.537398
O3    O     O_R   0.004040 0.576380 0.539550 -0.536760
C1    C     C_R   0.338778 0.576152 0.421244 0.727114
O4    O     O_R   0.177350 0.422870 0.454070 -0.536825
O5    O     O_R   0.010680 0.442240 0.556560 -0.535349
C2    C     C_R   0.346134 0.399023 0.443177 0.695279
O6    O     O_R   0.500670 0.557760 0.443440 -0.536395
O7    O     O_3   0.340380 0.506510 0.533610 -0.366676
V1    V     V_3+5 0.064130 0.498790 0.493770 1.423932
O8    O     O_R   0.681170 0.443940 0.562810 -0.537570
C3    C     C_R   0.850881 0.423900 0.578698 0.726579
O9    O     O_R   0.674570 0.577130 0.545930 -0.538004
C4    C     C_R   0.842632 0.601123 0.556493 0.693469
V2    V     V_3+5 0.564560 0.501210 0.506230 1.423341
O10   O     O_3   0.838170 0.493490 0.466390 -0.366566
C5    C     C_R   0.976771 0.838124 0.911374 -0.041342
C6    C     C_R   0.847310 0.661794 0.588688 -0.041978
C7    C     C_R   0.043390 0.722358 0.905964 -0.149763
C8    C     C_R   0.033519 0.779592 0.936364 -0.159892
C9    C     C_R   0.930409 0.839210 0.855167 -0.215609
C10   C     C_R   0.942735 0.781532 0.822792 0.087139
C11   C     C_R   0.000036 0.722824 0.849668 0.132936
C12   C     C_R   0.903027 0.780056 0.764886 0.059520
C13   C     C_R   0.921386 0.719874 0.735173 0.057658
C14   C     C_R   0.978261 0.663212 0.764384 -0.187042
C15   C     C_R   0.016190 0.664843 0.820290 -0.194882
C16   C     C_R   0.846215 0.836725 0.735673 -0.188113
C17   C     C_R   0.808215 0.835090 0.679774 -0.201755
C18   C     C_R   0.824249 0.777101 0.650404 0.139974
C19   C     C_R   0.881592 0.718391 0.677270 0.086760
C20   C     C_R   0.780730 0.777564 0.594122 -0.161456
C21   C     C_R   0.790490 0.720328 0.563723 -0.169269
C22   C     C_R   0.893838 0.660709 0.644889 -0.214665
H1    H     H_    0.060016 0.619981 0.840782 0.129017
H2    H     H_    0.934116 0.613957 0.662007 0.093484
H3    H     H_    0.752289 0.721579 0.520578 0.104585
H4    H     H_    0.764408 0.879956 0.659284 0.123401
H5    H     H_    0.087885 0.677586 0.926446 0.127569
H6    H     H_    0.071612 0.778343 0.979521 0.109609
H7    H     H_    0.890198 0.885964 0.838042 0.091035
H8    H     H_    0.995633 0.616317 0.745223 0.123016
H9    H     H_    0.828930 0.883629 0.754825 0.121292
H10   H     H_    0.736194 0.822336 0.573650 0.113840
C23   C     C_3   0.728850 0.239715 0.790428 -0.339324
C24   C     C_3   0.081441 0.262166 0.796151 -0.284194
C25   C     C_3   0.063862 0.310863 0.747217 -0.324925
H11   H     H_    0.674669 0.338747 0.758931 0.148085
H12   H     H_    0.704387 0.265329 0.829957 0.178934
H13   H     H_    0.229888 0.241634 0.798367 0.180752
H14   H     H_    0.058069 0.288986 0.835161 0.155405
H15   H     H_    0.040039 0.361100 0.763159 0.140964
H16   H     H_    0.201486 0.311154 0.724205 0.154493
C26   C     C_1   0.863444 0.378395 0.624387 -0.189113
C27   C     C_3   0.931302 0.206765 0.790723 0.209433
C28   C     C_3   0.708268 0.289473 0.742284 -0.341956
C29   C     C_3   0.895809 0.291985 0.708256 0.247917
C30   C     C_3   0.937716 0.222444 0.686056 -0.310006
C31   C     C_3   0.956463 0.171936 0.734197 -0.093309
C32   C     C_1   0.876750 0.339793 0.662247 -0.088375
C33   C     C_1   0.948308 0.159784 0.837495 -0.073698
C34   C     C_1   0.960896 0.121532 0.875602 -0.132921
H17   H     H_    0.836790 0.136523 0.729568 0.085580
H18   H     H_    0.818604 0.207499 0.658159 0.129951
H19   H     H_    0.615512 0.201960 0.786613 0.184443
H20   H     H_    0.585287 0.275329 0.715488 0.170739
H21   H     H_    0.070130 0.223440 0.660720 0.168299
C35   C     C_3   0.601769 0.703632 0.267835 -0.104293
C36   C     C_3   0.246653 0.691655 0.242828 -0.285579
C37   C     C_3   0.263965 0.743574 0.195899 -0.112344
H22   H     H_    0.661359 0.723340 0.179672 0.205369
H23   H     H_    0.097201 0.692993 0.258922 0.098714
H24   H     H_    0.269578 0.641235 0.227464 0.211567
H25   H     H_    0.129169 0.773486 0.196056 0.066141
C38   C     C_1   0.475544 0.878127 0.124454 -0.170079
C39   C     C_3   0.391039 0.705997 0.290226 0.213525
C40   C     C_3   0.622996 0.750466 0.217433 -0.306526
C41   C     C_3   0.435170 0.790914 0.207619 0.206425
C42   C     C_3   0.388742 0.826872 0.262020 -0.350842
C43   C     C_3   0.352185 0.777222 0.309325 -0.372247
C44   C     C_1   0.459927 0.839283 0.162062 -0.085600
C45   C     C_1   0.364964 0.659387 0.336998 -0.094579
C46   C     C_1   0.348853 0.621386 0.375194 -0.190155
H26   H     H_    0.446587 0.789081 0.344913 0.150267
H27   H     H_    0.200789 0.782249 0.323373 0.154003
H28   H     H_    0.510432 0.859130 0.273529 0.163596
H29   H     H_    0.698026 0.722246 0.300901 0.064378
H30   H     H_    0.744799 0.784178 0.225323 0.107761
H31   H     H_    0.259472 0.858776 0.256449 0.161991
C47   C     C_R   0.470673 0.162853 0.087791 -0.127329
C48   C     C_R   0.349814 0.338466 0.410499 -0.046797
C49   C     C_R   0.523756 0.279293 0.092583 -0.184777
C50   C     C_R   0.518818 0.221830 0.062198 0.380510
C51   C     C_R   0.423456 0.162703 0.143797 -0.306464
C52   C     C_R   0.413031 0.221603 0.174539 0.087776
C53   C     C_R   0.476154 0.279384 0.148389 0.075781
C54   C     C_R   0.354642 0.224604 0.231120 -0.015470
C55   C     C_R   0.395872 0.282405 0.262418 0.049832
C56   C     C_R   0.465777 0.337617 0.234386 -0.163494
C57   C     C_R   0.498016 0.336624 0.178347 -0.157640
C58   C     C_R   0.252731 0.173342 0.257484 -0.022229
C59   C     C_R   0.235019 0.173258 0.314555 -0.180864
C60   C     C_R   0.288595 0.226928 0.345943 0.090957
C61   C     C_R   0.361714 0.283667 0.320432 0.087271
C62   C     C_R   0.254838 0.225666 0.402603 -0.148834
C63   C     C_R   0.283455 0.281017 0.434365 -0.160607
C64   C     C_R   0.392551 0.339571 0.354165 -0.204255
H32   H     H_    0.548480 0.380713 0.158616 0.144146
H33   H     H_    0.441044 0.385418 0.337835 0.097359
H34   H     H_    0.247602 0.279682 0.477497 0.105671
H35   H     H_    0.163845 0.132834 0.334568 0.164634
H36   H     H_    0.568088 0.324008 0.072620 0.159214
H37   H     H_    0.405462 0.115699 0.163109 0.130063
H38   H     H_    0.495308 0.383153 0.254474 0.130267
H39   H     H_    0.198407 0.182337 0.422134 0.115266
O11   O     O_R   0.323590 0.942280 0.056590 -0.540154
O12   O     O_R   0.647030 0.077140 0.045940 -0.526627
O13   O     O_R   0.813570 0.057750 0.943430 -0.522289
C65   C     C_R   0.478083 0.101117 0.056675 0.785758
O14   O     O_R   0.653510 0.943950 0.062820 -0.540350
O15   O     O_R   0.820100 0.923600 0.960440 -0.540781
C66   C     C_R   0.485480 0.923880 0.078774 0.713769
O16   O     O_R   0.317060 0.076430 0.039590 -0.533182
O17   O     O_3   0.483830 0.993520 0.966410 -0.369282
V3    V     V_3+5 0.760140 0.001200 0.006230 1.480689
O18   O     O_R   0.149560 0.922820 0.954030 -0.542572
C67   C     C_R   0.981487 0.898810 0.943532 0.676848
O19   O     O_R   0.143080 0.056020 0.937150 -0.536381
C68   C     C_R   0.973381 0.076166 0.921357 0.753209
V4    V     V_3+5 0.259690 0.998730 0.993720 1.465239
O20   O     O_3   0.986120 0.006480 0.033580 -0.369170
C69   C     C_2   0.140685 0.132125 0.731021 0.327304
H40   H     H_    0.136049 0.079730 0.737553 0.045134
O21   O     O_2   0.295529 0.157952 0.722811 -0.549676
C70   C     C_2   0.673795 0.635294 0.255722 0.378039
H41   H     H_    0.776385 0.612073 0.283534 0.032577
O22   O     O_2   0.616360 0.605114 0.215873 -0.493642
C71   C     C_2   0.271368 0.712466 0.139793 0.402251
H42   H     H_    0.175432 0.730214 0.107601 0.028672
O23   O     O_2   0.385906 0.668755 0.129504 -0.492669
Cl1   Cl    Cl    0.580236 0.224957 0.992293 -0.669481
C72   C     C_2   0.133903 0.125634 0.226749 0.355501
H43   H     H_    0.082129 0.137187 0.185736 0.066492
O24   O     O_2   0.089197 0.073473 0.247208 -0.531236

loop_
_geom_bond_atom_site_label_1
_geom_bond_atom_site_label_2
_ccdc_geom_bond_type
C13   C19   A    
O18   C67   A    
C27   C31   S    
C37   C41   S    
C38   C66   S    
C4    C6    S    
O2    C1    A    
C7    C8    A    
C34   C68   S    
C1    O6    A    
O19   C68   A    
C56   H38   S    
C54   C55   A    
C70   H41   S    
C26   C32   T    
C40   C41   S    
C14   C15   A    
C17   C18   A    
O11   C66   A    
C16   C17   A    
O15   C67   A    
O12   C65   A    
O5    C3    A    
C18   C19   A    
C8    H6    S    
C28   H20   S    
O18   V4    S    
V2    O10   S    
C27   C33   S    
C49   C53   A    
C5    C8    A    
C28   C29   S    
C36   C39   S    
H11   C28   S    
O8    V2    S    
C52   C53   A    
C23   C28   S    
C69   H40   S    
C24   C27   S    
C37   H25   S    
C36   H24   S    
O1    V2    S    
O13   V3    S    
C11   C15   A    
O7    V1    S    
C22   H2    S    
C43   H26   S    
C25   H16   S    
O9    C4    A    
C64   H33   S    
C48   C63   A    
C59   H35   S    
C36   C37   S    
C49   H36   S    
C51   H37   S    
O14   C66   A    
C47   C51   A    
C30   H18   S    
C31   C69   S    
C57   H32   S    
C72   H43   S    
C59   C60   A    
C58   C59   A    
C48   C64   A    
C12   C13   A    
C40   H30   S    
C39   C45   S    
O4    C2    A    
C41   C42   S    
C5    C67   S    
C29   C32   S    
C15   H1    S    
C30   C31   S    
C24   H14   S    
C45   C46   T    
C21   H3    S    
C17   H4    S    
C36   H23   S    
C7    C11   A    
O15   V3    S    
C43   H27   S    
C25   C29   S    
C58   C72   S    
V3    O20   S    
C56   C57   A    
C23   H12   S    
C2    C48   S    
C20   H10   S    
C19   C22   A    
O17   V4    S    
C51   C52   A    
C60   C62   A    
C6    C22   A    
O3    C4    A    
C7    H5    S    
C9    H7    S    
C37   C71   S    
O6    V2    S    
O9    V2    S    
O16   V4    S    
C23   H19   S    
C10   C12   A    
C39   C43   S    
O2    V1    S    
H22   C40   S    
C50   Cl1   S    
C14   H8    S    
C47   C50   A    
C63   H34   S    
C35   C40   S    
C70   O22   D    
C24   C25   S    
O1    C2    A    
C62   H39   S    
C35   C70   S    
C38   C44   T    
C12   C16   A    
O19   V4    S    
O5    V1    S    
O8    C3    A    
C52   C54   A    
C25   H15   S    
C71   O23   D    
C65   O16   A    
C35   C39   S    
C62   C63   A    
C24   H13   S    
C16   H9    S    
C31   H17   S    
C47   C65   S    
V4    O20   S    
C13   C14   A    
O4    V1    S    
O3    V1    S    
V1    O10   S    
C20   C21   A    
C18   C20   A    
C41   C44   S    
C29   C30   S    
C1    C46   S    
C55   C61   A    
C53   C57   A    
C49   C50   A    
O14   V3    S    
C72   O24   D    
C42   H28   S    
O7    V2    S    
C33   C34   T    
C6    C21   A    
C3    C26   S    
C42   H31   S    
C71   H42   S    
C42   C43   S    
C30   H21   S    
O11   V4    S    
C23   C27   S    
C69   O21   D    
C55   C56   A    
C60   C61   A    
O13   C68   A    
C35   H29   S    
C10   C11   A    
C9    C10   A    
O12   V3    S    
C61   C64   A    
C54   C58   A    
O17   V3    S    
C5    C9    A    
