data_mof_unit_30526.cif
_audit_creation_date              2012-12-11T15:08:42-0500
_audit_creation_method            fapswitch 2.2
_symmetry_space_group_name_H-M    P1
_symmetry_Int_Tables_number       1
_space_group_crystal_system       triclinic
_cell_length_a                    19.557877
_cell_length_b                    11.23052
_cell_length_c                    18.703867
_cell_angle_alpha                 90.000918
_cell_angle_beta                  89.778248
_cell_angle_gamma                 90.0
_cell_volume                      4108.18250694

loop_
_atom_site_label
_atom_site_type_symbol
_atom_type_description
_atom_site_fract_x
_atom_site_fract_y
_atom_site_fract_z
_atom_type_partial_charge
C1    C     C_R   0.271699 0.044615 0.853230 0.522802
C2    C     C_R   0.728299 0.044608 0.146768 0.522795
C3    C     C_R   0.771700 0.544613 0.853231 0.522801
C4    C     C_R   0.228300 0.544611 0.146769 0.522793
C5    C     C_3   0.518714 0.737278 0.963939 -0.160125
C6    C     C_3   0.481285 0.737278 0.036060 -0.160123
C7    C     C_3   0.018716 0.237276 0.963939 -0.160118
C8    C     C_3   0.981286 0.237278 0.036060 -0.160122
C9    C     C_3   0.316283 0.534168 0.045973 -0.231255
C10   C     C_3   0.683719 0.534178 0.954027 -0.231269
C11   C     C_3   0.816279 0.034159 0.045970 -0.231261
C12   C     C_3   0.183717 0.034181 0.954026 -0.231258
C13   C     C_3   0.327114 0.566187 0.965998 -0.233953
C14   C     C_3   0.672887 0.566210 0.033999 -0.233967
C15   C     C_3   0.827110 0.066181 0.965997 -0.233964
C16   C     C_3   0.172885 0.066206 0.034001 -0.233954
C17   C     C_3   0.186408 0.518745 0.026776 -0.202164
C18   C     C_3   0.813591 0.518728 0.973223 -0.202153
C19   C     C_3   0.686405 0.018732 0.026775 -0.202159
C20   C     C_3   0.313592 0.018742 0.973222 -0.202148
C21   C     C_3   0.240510 0.708732 0.058009 -0.258828
C22   C     C_3   0.759502 0.708732 0.941999 -0.258858
C23   C     C_3   0.740505 0.208724 0.058006 -0.258839
C24   C     C_3   0.259497 0.208737 0.941998 -0.258862
C25   C     C_3   0.244043 0.575503 0.071788 0.051707
C26   C     C_3   0.755960 0.575503 0.928213 0.051707
C27   C     C_3   0.744040 0.075495 0.071786 0.051703
C28   C     C_3   0.255958 0.075509 0.928212 0.051700
C29   C     C_3   0.258908 0.613119 0.933875 0.037834
C30   C     C_3   0.741098 0.613114 0.066127 0.037852
C31   C     C_3   0.758903 0.113109 0.933872 0.037836
C32   C     C_3   0.241095 0.113115 0.066128 0.037857
C33   C     C_3   0.205610 0.516908 0.947198 -0.248343
C34   C     C_3   0.794385 0.516884 0.052802 -0.248309
C35   C     C_3   0.705606 0.016896 0.947195 -0.248310
C36   C     C_3   0.294385 0.016888 0.052799 -0.248314
C37   C     C_3   0.237718 0.726643 0.976148 -0.230489
C38   C     C_3   0.762308 0.726634 0.023859 -0.230496
C39   C     C_3   0.737708 0.226632 0.976147 -0.230490
C40   C     C_3   0.262296 0.226639 0.023859 -0.230489
C41   C     C_3   0.504008 0.700374 0.460339 -0.228429
C42   C     C_3   0.495991 0.700373 0.539659 -0.228433
C43   C     C_3   0.004008 0.200374 0.460339 -0.228428
C44   C     C_3   0.995991 0.200373 0.539659 -0.228433
C45   C     C_R   0.442859 0.818749 0.862854 0.541295
C46   C     C_R   0.557142 0.818748 0.137145 0.541286
C47   C     C_R   0.942860 0.318749 0.862855 0.541297
C48   C     C_R   0.057143 0.318748 0.137145 0.541284
C49   C     C_3   0.564130 0.905450 0.473077 -0.220104
C50   C     C_3   0.435869 0.905449 0.526925 -0.220101
C51   C     C_3   0.064130 0.405450 0.473077 -0.220104
C52   C     C_3   0.935869 0.405449 0.526925 -0.220102
C53   C     C_3   0.441206 0.887525 0.444945 -0.261980
C54   C     C_3   0.558793 0.887524 0.555057 -0.261977
C55   C     C_3   0.941206 0.387525 0.444945 -0.261980
C56   C     C_3   0.058793 0.387524 0.555057 -0.261977
C57   C     C_3   0.510462 0.829246 0.430883 0.060968
C58   C     C_3   0.489537 0.829244 0.569117 0.060968
C59   C     C_3   0.010462 0.329246 0.430883 0.060968
C60   C     C_3   0.989537 0.329244 0.569117 0.060967
C61   C     C_3   0.180056 0.647190 0.459686 -0.229814
C62   C     C_3   0.819943 0.647188 0.540314 -0.229811
C63   C     C_3   0.680056 0.147190 0.459686 -0.229814
C64   C     C_3   0.319943 0.147188 0.540314 -0.229811
C65   C     C_3   0.185136 0.659584 0.538906 -0.225764
C66   C     C_3   0.814863 0.659585 0.461095 -0.225764
C67   C     C_3   0.685136 0.159584 0.538906 -0.225764
C68   C     C_3   0.314863 0.159585 0.461095 -0.225764
C69   C     C_3   0.251982 0.454394 0.472792 -0.215998
C70   C     C_3   0.748018 0.454392 0.527204 -0.216003
C71   C     C_3   0.751982 0.954394 0.472792 -0.215998
C72   C     C_3   0.248018 0.954392 0.527204 -0.216003
C73   C     C_3   0.304274 0.648086 0.441775 -0.262135
C74   C     C_3   0.695726 0.648082 0.558226 -0.262132
C75   C     C_3   0.804273 0.148086 0.441775 -0.262135
C76   C     C_3   0.195726 0.148082 0.558226 -0.262132
C77   C     C_3   0.240364 0.572756 0.429831 0.064935
C78   C     C_3   0.759636 0.572753 0.570168 0.064934
C79   C     C_3   0.740364 0.072756 0.429831 0.064935
C80   C     C_3   0.259636 0.072753 0.570168 0.064934
C81   C     C_3   0.253200 0.606048 0.567434 0.062703
C82   C     C_3   0.746800 0.606049 0.432565 0.062703
C83   C     C_3   0.753200 0.106048 0.567434 0.062704
C84   C     C_3   0.246800 0.106049 0.432565 0.062704
C85   C     C_3   0.247424 0.472499 0.554681 -0.263297
C86   C     C_3   0.752576 0.472500 0.445315 -0.263293
C87   C     C_3   0.747424 0.972499 0.554681 -0.263297
C88   C     C_3   0.252576 0.972500 0.445315 -0.263294
C89   C     C_R   0.263466 0.644860 0.856122 0.541640
C90   C     C_R   0.736536 0.644855 0.143879 0.541637
C91   C     C_R   0.763466 0.144863 0.856122 0.541637
C92   C     C_R   0.236536 0.144852 0.143882 0.541651
C93   C     C_3   0.317269 0.648343 0.523392 -0.220144
C94   C     C_3   0.682731 0.648343 0.476610 -0.220145
C95   C     C_3   0.817268 0.148343 0.523392 -0.220144
C96   C     C_3   0.182731 0.148343 0.476610 -0.220145
C97   C     C_R   0.273395 0.043312 0.645813 0.530451
C98   C     C_R   0.726606 0.043315 0.354186 0.530445
C99   C     C_R   0.773395 0.543312 0.645813 0.530448
C100  C     C_R   0.226606 0.543315 0.354186 0.530446
C101  C     C_R   0.469024 0.823199 0.645446 0.547102
C102  C     C_R   0.530975 0.823200 0.354554 0.547100
C103  C     C_R   0.969024 0.323199 0.645446 0.547104
C104  C     C_R   0.030975 0.323200 0.354554 0.547099
C105  C     C_R   0.261273 0.640383 0.643477 0.543719
C106  C     C_R   0.738727 0.640386 0.356523 0.543709
C107  C     C_R   0.761273 0.140383 0.643477 0.543714
C108  C     C_R   0.238727 0.140385 0.356523 0.543710
C109  C     C_3   0.482109 0.931960 0.036916 0.271398
C110  C     C_3   0.517890 0.931961 0.963086 0.271395
C111  C     C_3   0.982111 0.431961 0.036916 0.271390
C112  C     C_3   0.017892 0.431960 0.963086 0.271396
C113  C     C_3   0.431670 0.834718 0.010379 -0.213711
C114  C     C_3   0.568328 0.834718 0.989620 -0.213715
C115  C     C_3   0.931672 0.334719 0.010379 -0.213718
C116  C     C_3   0.068330 0.334717 0.989621 -0.213714
C117  C     C_3   0.469320 0.832644 0.937154 0.004033
C118  C     C_3   0.530679 0.832643 0.062846 0.004034
C119  C     C_3   0.969322 0.332643 0.937154 0.004037
C120  C     C_3   0.030681 0.332643 0.062846 0.004029
Cr1   Cr    Cr6+3 0.229620 0.836040 0.749110 1.017515
Cr2   Cr    Cr6+3 0.770380 0.836040 0.250890 1.017610
Cr3   Cr    Cr6+3 0.729620 0.336040 0.749110 1.017562
Cr4   Cr    Cr6+3 0.270380 0.336040 0.250890 1.017582
Cr5   Cr    Cr6+3 0.387630 0.990680 0.750730 1.087659
Cr6   Cr    Cr6+3 0.612370 0.990680 0.249270 1.087656
Cr7   Cr    Cr6+3 0.887630 0.490680 0.750730 1.087657
Cr8   Cr    Cr6+3 0.112370 0.490680 0.249270 1.087656
Cr9   Cr    Cr6+3 0.386020 0.676590 0.749210 1.005612
Cr10  Cr    Cr6+3 0.613980 0.676590 0.250790 1.005605
Cr11  Cr    Cr6+3 0.886020 0.176590 0.749210 1.005614
Cr12  Cr    Cr6+3 0.113980 0.176590 0.250790 1.005607
H1    H     H_    0.377943 0.822180 0.025721 0.100831
H2    H     H_    0.622055 0.822181 0.974270 0.100841
H3    H     H_    0.877946 0.322178 0.025725 0.100834
H4    H     H_    0.122057 0.322183 0.974270 0.100843
H5    H     H_    0.194784 0.750508 0.083260 0.158383
H6    H     H_    0.805225 0.750505 0.916742 0.158391
H7    H     H_    0.694781 0.250501 0.083260 0.158386
H8    H     H_    0.305222 0.250512 0.916745 0.158381
H9    H     H_    0.286588 0.748933 0.082128 0.107868
H10   H     H_    0.713422 0.748938 0.917892 0.107876
H11   H     H_    0.786586 0.248928 0.082119 0.107871
H12   H     H_    0.213419 0.248943 0.917886 0.107877
H13   H     H_    0.270228 0.798580 0.960205 0.105304
H14   H     H_    0.729826 0.798610 0.039816 0.105289
H15   H     H_    0.770213 0.298575 0.960201 0.105289
H16   H     H_    0.229800 0.298594 0.039811 0.105290
H17   H     H_    0.184881 0.750378 0.961471 0.176586
H18   H     H_    0.815155 0.750328 0.038531 0.176859
H19   H     H_    0.684869 0.250363 0.961471 0.176716
H20   H     H_    0.315138 0.250352 0.038535 0.176794
H21   H     H_    0.640278 0.073424 0.032746 0.245706
H22   H     H_    0.359717 0.073440 0.967260 0.245712
H23   H     H_    0.140282 0.573440 0.032745 0.245692
H24   H     H_    0.859720 0.573414 0.967257 0.245705
H25   H     H_    0.160961 0.530499 0.913728 0.223580
H26   H     H_    0.839033 0.530447 0.086275 0.223612
H27   H     H_    0.660957 0.030485 0.913724 0.223617
H28   H     H_    0.339036 0.030441 0.086276 0.223600
H29   H     H_    0.547564 0.644234 0.446432 0.137313
H30   H     H_    0.452436 0.644232 0.553566 0.137309
H31   H     H_    0.047564 0.144234 0.446432 0.137313
H32   H     H_    0.952436 0.144232 0.553566 0.137309
H33   H     H_    0.459654 0.654694 0.435561 0.117011
H34   H     H_    0.540346 0.654694 0.564436 0.117010
H35   H     H_    0.959654 0.154694 0.435561 0.117011
H36   H     H_    0.040346 0.154694 0.564436 0.117010
H37   H     H_    0.615799 0.896444 0.452618 0.110467
H38   H     H_    0.384200 0.896442 0.547383 0.110466
H39   H     H_    0.115798 0.396444 0.452618 0.110467
H40   H     H_    0.884200 0.396442 0.547383 0.110466
H41   H     H_    0.600608 0.830590 0.574966 0.112149
H42   H     H_    0.399392 0.830590 0.425034 0.112150
H43   H     H_    0.100608 0.330590 0.574966 0.112150
H44   H     H_    0.899391 0.330590 0.425034 0.112150
H45   H     H_    0.438021 0.974132 0.416573 0.117677
H46   H     H_    0.561977 0.974132 0.583430 0.117679
H47   H     H_    0.938022 0.474133 0.416573 0.117677
H48   H     H_    0.061977 0.474131 0.583430 0.117680
H49   H     H_    0.449932 0.999196 0.537065 0.119227
H50   H     H_    0.550067 0.999198 0.462938 0.119224
H51   H     H_    0.949932 0.499196 0.537065 0.119227
H52   H     H_    0.050067 0.499198 0.462938 0.119224
H53   H     H_    0.130280 0.609893 0.446743 0.134889
H54   H     H_    0.869720 0.609893 0.553256 0.134886
H55   H     H_    0.630280 0.109893 0.446743 0.134889
H56   H     H_    0.369720 0.109893 0.553256 0.134886
H57   H     H_    0.179317 0.736512 0.434414 0.116580
H58   H     H_    0.820682 0.736509 0.565590 0.116582
H59   H     H_    0.679317 0.236512 0.434414 0.116580
H60   H     H_    0.320682 0.236509 0.565590 0.116582
H61   H     H_    0.178294 0.752907 0.552564 0.135756
H62   H     H_    0.821704 0.752909 0.447440 0.135750
H63   H     H_    0.678294 0.252907 0.552564 0.135755
H64   H     H_    0.321704 0.252908 0.447440 0.135750
H65   H     H_    0.140811 0.615108 0.564730 0.120771
H66   H     H_    0.859189 0.615110 0.435269 0.120773
H67   H     H_    0.640811 0.115108 0.564730 0.120771
H68   H     H_    0.359189 0.115110 0.435269 0.120773
H69   H     H_    0.721059 0.880987 0.453999 0.112359
H70   H     H_    0.278941 0.880984 0.545993 0.112359
H71   H     H_    0.221059 0.380987 0.453999 0.112360
H72   H     H_    0.778941 0.380984 0.545993 0.112358
H73   H     H_    0.698598 0.938247 0.576300 0.112021
H74   H     H_    0.301403 0.938250 0.423695 0.112021
H75   H     H_    0.198598 0.438247 0.576300 0.112022
H76   H     H_    0.801402 0.438250 0.423695 0.112021
H77   H     H_    0.348603 0.609349 0.412657 0.113087
H78   H     H_    0.651397 0.609342 0.587343 0.113089
H79   H     H_    0.848603 0.109349 0.412657 0.113087
H80   H     H_    0.151397 0.109342 0.587343 0.113089
H81   H     H_    0.296535 0.739206 0.421223 0.110130
H82   H     H_    0.703464 0.739201 0.578782 0.110130
H83   H     H_    0.796535 0.239206 0.421223 0.110130
H84   H     H_    0.203464 0.239201 0.578782 0.110130
H85   H     H_    0.533386 0.654600 0.935337 0.147659
H86   H     H_    0.466612 0.654601 0.064660 0.147654
H87   H     H_    0.033387 0.154597 0.935338 0.147668
H88   H     H_    0.966612 0.154601 0.064661 0.147657
H89   H     H_    0.338927 0.731040 0.542338 0.110321
H90   H     H_    0.661073 0.731042 0.457667 0.110319
H91   H     H_    0.838927 0.231040 0.542338 0.110321
H92   H     H_    0.161073 0.231042 0.457667 0.110319
H93   H     H_    0.357261 0.580751 0.532861 0.117982
H94   H     H_    0.642739 0.580751 0.467138 0.117983
H95   H     H_    0.857261 0.080751 0.532861 0.117982
H96   H     H_    0.142739 0.080751 0.467138 0.117983
H97   H     H_    0.305374 0.428524 0.461393 0.121684
H98   H     H_    0.694626 0.428522 0.538601 0.121681
H99   H     H_    0.805374 0.928524 0.461393 0.121684
H100  H     H_    0.194626 0.928522 0.538601 0.121682
H101  H     H_    0.289532 0.425049 0.582244 0.111488
H102  H     H_    0.710469 0.425050 0.417750 0.111490
H103  H     H_    0.789532 0.925049 0.582244 0.111488
H104  H     H_    0.210469 0.925050 0.417750 0.111490
H105  H     H_    0.322798 0.437952 0.053615 0.133809
H106  H     H_    0.677205 0.437962 0.946389 0.133805
H107  H     H_    0.822793 0.937941 0.053610 0.133820
H108  H     H_    0.177202 0.937966 0.946385 0.133786
H109  H     H_    0.356415 0.577365 0.078851 0.116819
H110  H     H_    0.643590 0.577370 0.921147 0.116823
H111  H     H_    0.856412 0.077354 0.078848 0.116826
H112  H     H_    0.143588 0.077377 0.921148 0.116823
H113  H     H_    0.367449 0.634792 0.960567 0.135542
H114  H     H_    0.632564 0.634833 0.039425 0.135535
H115  H     H_    0.867442 0.134790 0.960568 0.135542
H116  H     H_    0.132557 0.134825 0.039430 0.135539
H117  H     H_    0.345185 0.486009 0.936488 0.138134
H118  H     H_    0.654802 0.486043 0.063508 0.138143
H119  H     H_    0.845183 0.986006 0.936487 0.138145
H120  H     H_    0.154803 0.986033 0.063509 0.138145
H121  H     H_    0.668319 0.935636 0.049764 0.079878
H122  H     H_    0.331686 0.935657 0.950225 0.079886
H123  H     H_    0.168320 0.435649 0.049764 0.079894
H124  H     H_    0.831678 0.435636 0.950228 0.079869
H125  H     H_    0.727329 0.931211 0.931789 0.103020
H126  H     H_    0.272651 0.931204 0.068189 0.103014
H127  H     H_    0.227330 0.431220 0.931792 0.103039
H128  H     H_    0.772657 0.431207 0.068198 0.103009
O1    O     O_R   0.214130 0.708570 0.829890 -0.491020
O2    O     O_R   0.785870 0.708570 0.170110 -0.490861
O3    O     O_R   0.714130 0.208570 0.829890 -0.490941
O4    O     O_R   0.285870 0.208570 0.170110 -0.490902
O5    O     O_R   0.446360 0.919990 0.675230 -0.498269
O6    O     O_R   0.553640 0.919990 0.324770 -0.498267
O7    O     O_R   0.946360 0.419990 0.675230 -0.498267
O8    O     O_R   0.053640 0.419990 0.324770 -0.498268
O9    O     O_R   0.457170 0.717300 0.668380 -0.531489
O10   O     O_R   0.542830 0.717300 0.331620 -0.531489
O11   O     O_R   0.957170 0.217300 0.668380 -0.531489
O12   O     O_R   0.042830 0.217300 0.331620 -0.531488
O13   O     O_R   0.320870 0.624890 0.673130 -0.511441
O14   O     O_R   0.679130 0.624890 0.326870 -0.511445
O15   O     O_R   0.820870 0.124890 0.673130 -0.511443
O16   O     O_R   0.179130 0.124890 0.326870 -0.511445
O17   O     O_3   0.334430 0.834430 0.749680 -0.308444
O18   O     O_3   0.665570 0.834430 0.250320 -0.308458
O19   O     O_3   0.834430 0.334430 0.749680 -0.308453
O20   O     O_3   0.165570 0.334430 0.250320 -0.308454
O21   O     O_R   0.236050 0.959150 0.825270 -0.519881
O22   O     O_R   0.763950 0.959150 0.174730 -0.519864
O23   O     O_R   0.736050 0.459150 0.825270 -0.519871
O24   O     O_R   0.263950 0.459150 0.174730 -0.519870
O25   O     O_R   0.332100 0.076650 0.832310 -0.489917
O26   O     O_R   0.667900 0.076650 0.167690 -0.489924
O27   O     O_R   0.832100 0.576650 0.832310 -0.489926
O28   O     O_R   0.167900 0.576650 0.167690 -0.489920
O29   O     O_R   0.446500 0.918620 0.826240 -0.406033
O30   O     O_R   0.553500 0.918620 0.173760 -0.406034
O31   O     O_R   0.946500 0.418620 0.826240 -0.406029
O32   O     O_R   0.053500 0.418620 0.173760 -0.406042
O33   O     O_R   0.457310 0.715830 0.831280 -0.523531
O34   O     O_R   0.542690 0.715830 0.168720 -0.523525
O35   O     O_R   0.957310 0.215830 0.831280 -0.523524
O36   O     O_R   0.042690 0.215830 0.168720 -0.523525
O37   O     O_R   0.321000 0.623520 0.824130 -0.521310
O38   O     O_R   0.679000 0.623520 0.175870 -0.521332
O39   O     O_R   0.821000 0.123520 0.824130 -0.521320
O40   O     O_R   0.179000 0.123520 0.175870 -0.521336
O41   O     O_R   0.213990 0.710040 0.667000 -0.521905
O42   O     O_R   0.786010 0.710040 0.333000 -0.521904
O43   O     O_R   0.713990 0.210040 0.667000 -0.521905
O44   O     O_R   0.286010 0.210040 0.333000 -0.521906
O45   O     O_R   0.235920 0.960520 0.674260 -0.514455
O46   O     O_R   0.764080 0.960520 0.325740 -0.514457
O47   O     O_R   0.735920 0.460520 0.674260 -0.514456
O48   O     O_R   0.264080 0.460520 0.325740 -0.514457
O49   O     O_R   0.331960 0.078120 0.669410 -0.533707
O50   O     O_R   0.668040 0.078120 0.330590 -0.533706
O51   O     O_R   0.831960 0.578120 0.669410 -0.533708
O52   O     O_R   0.168040 0.578120 0.330590 -0.533706
S1    S     S_3+6 0.472765 0.069817 0.087707 0.019143
O53   O     O_2   0.436029 0.045741 0.156996 -0.300937
O54   O     O_2   0.542051 0.118900 0.104992 -0.253110
O55   O     O_3   0.432052 0.176988 0.042424 -0.543152
H129  H     H_    0.437209 0.249691 0.071934 0.360309
S2    S     S_3+6 0.527231 0.069820 0.912298 0.019120
O56   O     O_2   0.563965 0.045745 0.843007 -0.300985
O57   O     O_2   0.457946 0.118904 0.895016 -0.253064
O58   O     O_3   0.567945 0.176991 0.957582 -0.543177
H130  H     H_    0.562869 0.249649 0.928027 0.360282
S3    S     S_3+6 0.972767 0.569822 0.087703 0.019179
O59   O     O_2   0.936027 0.545755 0.156991 -0.300894
O60   O     O_2   0.042053 0.618900 0.104989 -0.253139
O61   O     O_3   0.932056 0.676989 0.042411 -0.543177
H131  H     H_    0.937286 0.749720 0.071858 0.360405
S4    S     S_3+6 0.027233 0.569815 0.912293 0.019113
O62   O     O_2   0.063967 0.545726 0.843004 -0.301098
O63   O     O_2   0.957949 0.618901 0.895009 -0.252948
O64   O     O_3   0.067945 0.676995 0.957570 -0.543064
H132  H     H_    0.063034 0.749574 0.927896 0.360161

loop_
_geom_bond_atom_site_label_1
_geom_bond_atom_site_label_2
_ccdc_geom_bond_type
C82   C94   S    
C55   C59   S    
C35   H125  S    
C83   C87   S    
C73   C93   S    
C47   O31   A    
C42   C58   S    
C29   C89   S    
C16   H120  S    
C75   C95   S    
C48   C120  S    
C24   H8    S    
C57   C102  S    
Cr6   O18   S    
Cr7   O7    S    
C85   H101  S    
C59   C104  S    
C63   H55   S    
Cr1   O17   S    
C5    C6    S    
Cr10  O10   S    
Cr3   O19   S    
Cr4   O4    S    
Cr12  O16   S    
C29   C33   S    
C87   H103  S    
C30   C38   S    
C77   C100  S    
C44   H36   S    
C9    C13   S    
C87   H73   S    
C11   C15   S    
C112  S4    S    
C5    H85   S    
C12   C16   S    
C98   O50   A    
C99   O47   A    
O61   H131  S    
C103  O7    A    
C60   C103  S    
C107  O15   A    
C83   C107  S    
C113  H1    S    
C74   H82   S    
C61   H57   S    
C23   H11   S    
C66   H62   S    
C109  C118  S    
C16   H116  S    
C70   H72   S    
Cr5   O25   S    
C50   C53   S    
C89   O37   A    
S3    O59   D    
C7    C119  S    
Cr8   O28   S    
C62   H58   S    
C37   H17   S    
C62   C66   S    
Cr2   O2    S    
C92   O40   A    
C18   H124  S    
Cr12  O36   S    
O55   H129  S    
C43   C44   S    
C66   C82   S    
Cr9   O33   S    
C58   C101  S    
C105  O41   A    
C92   O4    A    
C107  O43   A    
C116  H4    S    
C108  O44   A    
S4    O63   D    
C19   H21   S    
C89   O1    A    
Cr5   O49   S    
C17   H23   S    
C91   O3    A    
Cr1   O45   S    
S2    O58   S    
Cr5   O5    S    
Cr2   O42   S    
C3    C26   S    
C84   C88   S    
C31   C91   S    
C53   H45   S    
Cr12  O12   S    
C13   H117  S    
Cr10  O34   S    
C17   C25   S    
C19   C35   S    
C76   C96   S    
C1    O21   A    
C32   C92   S    
C75   H83   S    
C95   H95   S    
C21   H9    S    
C61   C65   S    
C12   H108  S    
O58   H130  S    
C78   C99   S    
C45   O29   A    
C75   C79   S    
Cr5   O29   S    
C22   C38   S    
C67   C83   S    
C80   C97   S    
C11   H111  S    
C69   C77   S    
C111  C112  S    
C9    H109  S    
C52   H40   S    
C71   C79   S    
C4    C25   S    
Cr4   O20   S    
C7    C8    S    
Cr10  O38   S    
C8    H88   S    
C96   H96   S    
C73   H77   S    
C24   H12   S    
C100  O52   A    
S1    O54   D    
C39   H19   S    
C49   C57   S    
C40   H20   S    
Cr11  O11   S    
Cr9   O37   S    
C38   H14   S    
S2    O57   D    
C52   C60   S    
C19   H121  S    
C61   C77   S    
C12   H112  S    
C11   C27   S    
C93   H93   S    
C36   H126  S    
C47   O35   A    
C110  C114  S    
C48   O36   A    
C43   C59   S    
C62   H54   S    
C76   H80   S    
C10   H106  S    
C6    H86   S    
C22   H10   S    
Cr1   O21   S    
Cr2   O18   S    
Cr4   O24   S    
Cr12  O20   S    
C81   C105  S    
C30   C34   S    
C10   C14   S    
C101  O9    A    
C95   H91   S    
C116  C120  S    
S3    O60   D    
C103  O11   A    
C7    C116  S    
C69   H97   S    
C33   H127  S    
C61   H53   S    
C114  H2    S    
C34   H128  S    
C66   H66   S    
C64   H56   S    
C113  C117  S    
C115  C119  S    
Cr6   O26   S    
C9    H105  S    
Cr4   O48   S    
C112  C116  S    
C69   C85   S    
C85   H75   S    
C72   H70   S    
C56   H48   S    
C45   C117  S    
C21   C25   S    
C71   H99   S    
Cr12  O40   S    
C55   H47   S    
C62   C78   S    
C76   C80   S    
S4    O62   D    
C32   C36   S    
C15   C31   S    
C43   H35   S    
C16   C32   S    
C97   O45   A    
C105  O13   A    
C106  O42   A    
C72   C80   S    
C115  H3    S    
C4    O24   A    
C82   C106  S    
C90   O2    A    
C55   H44   S    
Cr6   O50   S    
Cr8   O32   S    
C94   H90   S    
Cr6   O6    S    
C46   O34   A    
Cr7   O19   S    
Cr8   O20   S    
C81   C85   S    
C13   H113  S    
C41   H29   S    
C41   C42   S    
C74   C94   S    
Cr9   O13   S    
C18   C26   S    
C30   C90   S    
Cr11  O39   S    
C1    O25   A    
C9    C25   S    
C2    O22   A    
C3    O27   A    
C75   H79   S    
C86   H102  S    
C12   C28   S    
C13   C29   S    
C67   H67   S    
C98   O46   A    
C46   C118  S    
C73   C77   S    
C64   H60   S    
Cr6   O30   S    
C106  O14   A    
C1    C28   S    
C2    C27   S    
Cr10  O14   S    
C72   H100  S    
Cr11  O19   S    
C52   C55   S    
C64   C80   S    
C73   H81   S    
C17   C33   S    
S4    O64   S    
C110  C117  S    
C38   H18   S    
C33   H25   S    
C65   H61   S    
C40   H16   S    
C68   C84   S    
C24   C28   S    
C51   H52   S    
C86   H76   S    
C53   C57   S    
C82   C86   S    
C56   C60   S    
C50   C58   S    
O64   H132  S    
C104  O12   A    
C48   O32   A    
Cr7   O27   S    
C76   H84   S    
C65   C81   S    
C91   O39   A    
C42   H30   S    
Cr8   O8    S    
C50   H38   S    
C20   H122  S    
Cr2   O22   S    
C71   C87   S    
C15   H115  S    
C31   C35   S    
C64   C68   S    
C101  O5    A    
C102  O10   A    
C109  S1    S    
C110  S2    S    
C111  S3    S    
C108  O16   A    
C112  C119  S    
C14   H118  S    
C20   C28   S    
C22   H6    S    
C41   C57   S    
C109  C110  S    
C49   H37   S    
S1    O53   D    
Cr5   O17   S    
C44   C60   S    
C63   H59   S    
C84   C108  S    
C94   H94   S    
C20   C36   S    
C54   H46   S    
C21   C37   S    
C22   C26   S    
C29   C37   S    
C44   H32   S    
C42   H34   S    
C43   H31   S    
C97   O49   A    
C5    C114  S    
C70   C78   S    
C79   C98   S    
C99   O51   A    
C10   H110  S    
C52   H51   S    
C63   C79   S    
C4    O28   A    
C20   H22   S    
C74   H78   S    
C54   H41   S    
C23   H7    S    
C84   C96   S    
C11   H107  S    
C49   C54   S    
Cr3   O47   S    
C51   C56   S    
C46   O30   A    
C8    C115  S    
Cr1   O1    S    
Cr3   O3    S    
C96   H92   S    
C41   H33   S    
Cr9   O17   S    
C23   C27   S    
C19   C27   S    
C74   C78   S    
C109  C113  S    
C2    O26   A    
C7    H87   S    
C10   C26   S    
C47   C119  S    
C14   C30   S    
C67   H63   S    
C72   C88   S    
C53   H42   S    
C88   H104  S    
C63   C67   S    
C56   H43   S    
C68   H64   S    
S1    O55   S    
Cr7   O31   S    
Cr1   O41   S    
C21   H5    S    
C5    C117  S    
C111  C120  S    
Cr10  O18   S    
Cr3   O43   S    
C70   H98   S    
C6    C113  S    
Cr11  O15   S    
S2    O56   D    
Cr4   O44   S    
C81   C93   S    
C83   C95   S    
Cr11  O35   S    
C18   C34   S    
C114  C118  S    
C65   H65   S    
C34   H26   S    
C69   H71   S    
C50   H49   S    
C51   C59   S    
C70   C86   S    
C8    C120  S    
Cr2   O46   S    
C54   C58   S    
C71   H69   S    
C17   H123  S    
C45   O33   A    
C104  O8    A    
C18   H24   S    
C88   H74   S    
C111  C115  S    
Cr7   O51   S    
Cr8   O52   S    
C68   H68   S    
S3    O61   S    
C51   H39   S    
Cr3   O23   S    
C90   O38   A    
C15   H119  S    
C23   C39   S    
C3    O23   A    
C24   C40   S    
C31   C39   S    
C32   C40   S    
C35   H27   S    
Cr9   O9    S    
C36   H28   S    
C49   H50   S    
C100  O48   A    
C102  O6    A    
C39   H15   S    
C93   H89   S    
C37   H13   S    
C6    C118  S    
C14   H114  S    
