data_mof_unit_33736.cif
_audit_creation_date              2012-12-10T19:44:57-0500
_audit_creation_method            fapswitch 2.2
_symmetry_space_group_name_H-M    P1
_symmetry_Int_Tables_number       1
_space_group_crystal_system       triclinic
_cell_length_a                    15.067646
_cell_length_b                    10.804585
_cell_length_c                    13.776829
_cell_angle_alpha                 90.15325
_cell_angle_beta                  89.75323
_cell_angle_gamma                 89.244435
_cell_volume                      2242.63892197

loop_
_atom_site_label
_atom_site_type_symbol
_atom_type_description
_atom_site_fract_x
_atom_site_fract_y
_atom_site_fract_z
_atom_type_partial_charge
C1    C     C_R   0.497213 0.262450 0.499619 0.778507
C2    C     C_R   0.504226 0.737505 0.500368 0.751524
C3    C     C_R   0.048576 0.276398 0.559676 -0.163502
C4    C     C_R   0.952860 0.654027 0.372608 -0.118593
C5    C     C_R   0.293600 0.259973 0.280828 -0.107495
C6    C     C_R   0.707184 0.737633 0.721217 -0.105575
C7    C     C_R   0.338885 0.203899 0.357715 -0.077702
C8    C     C_R   0.661080 0.791323 0.643888 -0.035849
C9    C     C_R   0.408213 0.118424 0.339830 0.097578
C10   C     C_R   0.595658 0.882852 0.660439 0.092302
C11   C     C_R   0.428487 0.086001 0.243151 -0.202432
C12   C     C_R   0.580694 0.924039 0.756373 -0.214116
C13   C     C_R   0.383208 0.142435 0.166326 -0.139060
C14   C     C_R   0.626982 0.870365 0.833669 -0.146052
C15   C     C_R   0.316152 0.229859 0.185142 -0.105759
C16   C     C_R   0.689771 0.776645 0.816161 -0.111415
C17   C     C_R   0.466153 0.932644 0.423395 -0.239260
C18   C     C_R   0.538320 0.067751 0.575444 -0.200024
C19   C     C_R   0.507447 0.871574 0.500845 -0.089592
C20   C     C_R   0.495850 0.128503 0.498804 -0.063792
C21   C     C_R   0.545475 0.939581 0.578054 0.020113
C22   C     C_R   0.458328 0.060682 0.421547 0.010141
C23   C     C_R   0.328804 0.497689 0.499907 0.831671
C24   C     C_R   0.671265 0.494549 0.499216 0.816812
C25   C     C_R   0.572715 0.459477 0.794021 -0.100975
C26   C     C_R   0.427235 0.542970 0.206912 -0.088916
C27   C     C_R   0.428576 0.549621 0.794630 0.570363
C28   C     C_R   0.571235 0.449945 0.205458 0.574348
C29   C     C_R   0.423791 0.539615 0.897836 -0.108080
C30   C     C_R   0.574206 0.455026 0.102416 -0.100869
C31   C     C_R   0.498565 0.496820 0.948635 0.060604
C32   C     C_R   0.498789 0.496437 0.051897 0.057908
C33   C     C_R   0.574257 0.458332 0.896292 0.006861
C34   C     C_R   0.424015 0.538740 0.104439 -0.004774
C35   C     C_R   0.347467 0.575319 0.951402 -0.197544
C36   C     C_R   0.650601 0.419940 0.048871 -0.190167
C37   C     C_R   0.348018 0.576431 0.053345 -0.198730
C38   C     C_R   0.650371 0.420840 0.947126 -0.209739
C39   C     C_R   0.814636 0.584549 0.447635 -0.076025
C40   C     C_R   0.187099 0.393210 0.542412 -0.104549
C41   C     C_R   0.768505 0.488069 0.494157 -0.220786
C42   C     C_R   0.231810 0.491663 0.497196 -0.232066
C43   C     C_R   0.813925 0.378735 0.523527 0.365108
C44   C     C_R   0.186020 0.575754 0.436586 0.362041
C45   C     C_R   0.907517 0.370224 0.514069 -0.052117
C46   C     C_R   0.093729 0.565527 0.423442 -0.062624
C47   C     C_R   0.953865 0.471931 0.474772 -0.007629
C48   C     C_R   0.047710 0.472527 0.474841 0.004155
C49   C     C_R   0.906970 0.572409 0.433335 0.063165
C50   C     C_R   0.094841 0.380632 0.527225 0.052311
C51   C     C_R   0.957474 0.264501 0.543676 -0.037805
C52   C     C_R   0.044911 0.647089 0.362422 -0.016978
Cu1   Cu    Cu3+1 0.500010 0.499980 0.597420 0.961703
Cu2   Cu    Cu3+1 0.499990 0.500020 0.402580 0.980069
H1    H     H_    0.436114 0.879652 0.365526 0.166269
H2    H     H_    0.568970 0.121146 0.632545 0.150830
H3    H     H_    0.631546 0.433502 0.755312 0.129665
H4    H     H_    0.370830 0.579254 0.247161 0.182909
H5    H     H_    0.287348 0.604215 0.914589 0.174569
H6    H     H_    0.711282 0.392757 0.085267 0.172788
H7    H     H_    0.289018 0.607194 0.092173 0.141334
H8    H     H_    0.709938 0.392550 0.908196 0.136722
H9    H     H_    0.083525 0.199115 0.591745 0.234078
H10   H     H_    0.916610 0.718873 0.327512 0.211641
H11   H     H_    0.281545 0.274019 0.125607 0.133768
H12   H     H_    0.725113 0.734565 0.876094 0.136489
H13   H     H_    0.241318 0.327221 0.295512 0.131441
H14   H     H_    0.756243 0.665533 0.707436 0.127578
H15   H     H_    0.320942 0.228523 0.431121 0.147320
H16   H     H_    0.675368 0.760380 0.571188 0.118546
H17   H     H_    0.481081 0.019651 0.227165 0.131269
H18   H     H_    0.531235 0.995114 0.771783 0.135931
H19   H     H_    0.400453 0.118813 0.092154 0.133287
H20   H     H_    0.613745 0.901001 0.907240 0.135241
N1    N     N_R   0.499960 0.499900 0.743810 -0.214693
N2    N     N_R   0.500040 0.500100 0.256190 -0.218935
O1    O     O_R   0.500000 0.319630 0.582270 -0.594754
O2    O     O_R   0.500000 0.680370 0.417730 -0.584966
O3    O     O_R   0.499990 0.319660 0.417730 -0.575979
O4    O     O_R   0.500010 0.680340 0.582270 -0.563681
O5    O     O_R   0.370260 0.499960 0.582280 -0.545481
O6    O     O_R   0.629740 0.500040 0.417720 -0.531009
O7    O     O_R   0.370250 0.499990 0.417740 -0.569828
O8    O     O_R   0.629750 0.500010 0.582260 -0.615792
C53   C     C_2   0.766390 0.699485 0.416791 0.287886
H21   H     H_    0.701245 0.695269 0.384209 0.108950
O9    O     O_2   0.798010 0.801389 0.431249 -0.542076
C54   C     C_2   0.237626 0.306748 0.606361 0.310349
H22   H     H_    0.275601 0.343093 0.666477 0.124815
O10   O     O_2   0.240044 0.195543 0.590503 -0.585831
O11   O     O_3   0.364856 0.618431 0.745720 -0.568557
C55   C     C_3   0.379143 0.745537 0.765339 0.048264
H23   H     H_    0.448696 0.770654 0.749441 0.175069
H24   H     H_    0.364665 0.769156 0.842294 0.133924
C56   C     C_3   0.318782 0.825984 0.703306 -0.752253
H25   H     H_    0.249881 0.790810 0.704946 0.251215
H26   H     H_    0.318697 0.922615 0.731014 0.218304
H27   H     H_    0.344223 0.827190 0.628092 0.226733
O12   O     O_3   0.641247 0.396423 0.255334 -0.566268
C57   C     C_3   0.635090 0.266026 0.249908 0.031752
H28   H     H_    0.656402 0.231321 0.177441 0.128907
H29   H     H_    0.566526 0.234306 0.263777 0.169521
C58   C     C_3   0.695429 0.207465 0.325638 -0.694331
H30   H     H_    0.672505 0.234340 0.399351 0.269142
H31   H     H_    0.693529 0.105048 0.319319 0.204132
H32   H     H_    0.764775 0.238487 0.315016 0.241780
O13   O     O_3   0.766477 0.276622 0.553787 -0.632066
C59   C     C_3   0.740059 0.288362 0.651873 0.029634
H33   H     H_    0.666736 0.290351 0.652580 0.191324
H34   H     H_    0.765580 0.372444 0.689385 0.130634
C60   C     C_3   0.768176 0.174677 0.709725 -0.787036
H35   H     H_    0.840456 0.176689 0.724327 0.262759
H36   H     H_    0.732686 0.174463 0.780565 0.199521
H37   H     H_    0.751558 0.088769 0.669587 0.275689
O14   O     O_3   0.231650 0.670393 0.391565 -0.617131
C61   C     C_3   0.249543 0.765714 0.458850 0.048390
H38   H     H_    0.320198 0.757430 0.479393 0.157585
H39   H     H_    0.207763 0.763320 0.526010 0.153620
C62   C     C_3   0.235129 0.891267 0.411198 -0.730939
H40   H     H_    0.163340 0.907863 0.398233 0.272842
H41   H     H_    0.259712 0.965391 0.459767 0.233673
H42   H     H_    0.271419 0.895312 0.340973 0.246593
C63   C     C_2   0.920100 0.137918 0.548265 0.435537
H43   H     H_    0.862898 0.113771 0.505078 0.150593
O15   O     O_2   0.954988 0.057156 0.597525 -0.545061
C64   C     C_2   0.085965 0.718529 0.282168 0.399611
H44   H     H_    0.146498 0.685560 0.247361 0.112111
O16   O     O_2   0.051082 0.813450 0.251883 -0.552554

loop_
_geom_bond_atom_site_label_1
_geom_bond_atom_site_label_2
_ccdc_geom_bond_type
C42   C44   A    
C64   H44   S    
C27   C29   A    
C34   C37   A    
C1    O1    A    
C56   H25   S    
C5    H13   S    
C56   H27   S    
C63   H43   S    
C39   C41   A    
C53   H21   S    
C61   H38   S    
C23   C42   S    
C23   O7    A    
C4    C52   A    
Cu1   O8    S    
C14   H20   S    
Cu1   O5    S    
C19   C21   A    
C11   H17   S    
C9    C22   S    
C63   O15   D    
C45   C51   A    
O14   C61   S    
C18   C21   A    
C46   C52   A    
C51   C63   S    
C59   H33   S    
C35   H5    S    
C45   C47   A    
C24   O6    A    
C57   H28   S    
C26   C34   A    
C47   C48   A    
C44   O14   S    
C61   H39   S    
C26   N2    A    
O13   C59   S    
C31   C33   A    
C27   O11   S    
C58   H32   S    
C17   H1    S    
C18   H2    S    
C6    H14   S    
C12   H18   S    
C24   C41   S    
C41   C43   A    
Cu1   N1    S    
C25   H3    S    
C27   N1    A    
C57   H29   S    
Cu2   O7    S    
C3    C50   A    
C44   C46   A    
C62   H41   S    
C10   C21   S    
C46   C48   A    
C53   O9    D    
C61   C62   S    
Cu1   O4    S    
C58   H31   S    
O11   C55   S    
C5    C7    A    
C3    C51   A    
C6    C8    A    
Cu1   Cu2   S    
C55   C56   S    
C25   N1    A    
C32   C34   A    
Cu1   O1    S    
C2    O2    A    
C9    C11   A    
C31   C32   A    
C55   H24   S    
C60   H36   S    
C43   O13   S    
C48   C50   A    
C26   H4    S    
C10   C12   A    
Cu2   N2    S    
C28   O12   S    
C8    C10   A    
C39   C49   A    
C20   C22   A    
C13   C15   A    
C1    O3    A    
C14   C16   A    
C16   H12   S    
C39   C53   S    
C28   N2    A    
Cu2   O6    S    
Cu2   O3    S    
C62   H42   S    
C7    C9    A    
C4    H10   S    
C1    C20   S    
C64   O16   D    
C23   O5    A    
C60   H35   S    
C35   C37   A    
C2    C19   S    
C13   H19   S    
C33   C38   A    
C54   O10   D    
C36   H6    S    
C7    H15   S    
C37   H7    S    
C62   H40   S    
C56   H26   S    
C3    H9    S    
C47   C49   A    
C29   C35   A    
C8    H16   S    
C17   C22   A    
C59   C60   S    
C30   C36   A    
C4    C49   A    
C40   C54   S    
C36   C38   A    
C12   C14   A    
C28   C30   A    
C43   C45   A    
O12   C57   S    
C30   C32   A    
C11   C13   A    
C52   C64   S    
C40   C50   A    
C40   C42   A    
C55   H23   S    
C17   C19   A    
C59   H34   S    
C60   H37   S    
C18   C20   A    
C57   C58   S    
C24   O8    A    
C5    C15   A    
C2    O4    A    
C6    C16   A    
C54   H22   S    
C29   C31   A    
C58   H30   S    
Cu2   O2    S    
C25   C33   A    
C38   H8    S    
C15   H11   S    
