data_mof_unit_32419.cif
_audit_creation_date              2012-12-10T18:29:41-0500
_audit_creation_method            fapswitch 2.2
_symmetry_space_group_name_H-M    P1
_symmetry_Int_Tables_number       1
_space_group_crystal_system       triclinic
_cell_length_a                    11.54866
_cell_length_b                    14.938674
_cell_length_c                    15.37058
_cell_angle_alpha                 81.335507
_cell_angle_beta                  89.568541
_cell_angle_gamma                 104.303303
_cell_volume                      2537.45921626

loop_
_atom_site_label
_atom_site_type_symbol
_atom_type_description
_atom_site_fract_x
_atom_site_fract_y
_atom_site_fract_z
_atom_type_partial_charge
C1    C     C_R   0.479767 0.440965 0.662332 0.935135
C2    C     C_R   0.550530 0.677869 0.968147 -0.008733
C3    C     C_R   0.676995 0.838156 0.641016 0.076197
C4    C     C_R   0.325316 0.162317 0.357558 0.084477
C5    C     C_R   0.642834 0.749336 0.617522 -0.030788
C6    C     C_R   0.359563 0.251120 0.381052 -0.028591
C7    C     C_R   0.516755 0.797351 0.509950 0.012824
C8    C     C_R   0.480891 0.202089 0.491641 0.015431
C9    C     C_R   0.534478 0.885028 0.537362 -0.030986
C10   C     C_R   0.463430 0.114305 0.464571 -0.029816
C11   C     C_R   0.620529 0.907990 0.602012 0.004208
C12   C     C_R   0.513218 0.558881 0.337709 0.843062
C13   C     C_R   0.378722 0.091452 0.398910 -0.003080
C14   C     C_R   0.475346 0.952155 0.497093 -0.016778
C15   C     C_R   0.521856 0.047139 0.505814 -0.016069
C16   C     C_R   0.718004 0.500863 0.500130 0.899205
C17   C     C_R   0.282010 0.499174 0.499766 0.927216
C18   C     C_R   0.621575 0.070883 0.558785 0.072902
C19   C     C_R   0.375261 0.928316 0.444657 0.077678
C20   C     C_R   0.652896 0.001339 0.618165 0.175989
C21   C     C_R   0.344808 0.997487 0.384227 0.170955
C22   C     C_1   0.839047 0.502162 0.500449 -0.136410
C23   C     C_R   0.468465 0.349902 0.938777 0.132634
C24   C     C_1   0.160990 0.497883 0.499423 -0.110872
C25   C     C_1   0.940978 0.501128 0.500203 0.058666
C26   C     C_1   0.059067 0.498921 0.499667 0.064599
C27   C     C_R   0.461575 0.403145 0.755991 -0.048802
C28   C     C_R   0.516321 0.596424 0.244158 -0.127159
C29   C     C_R   0.496551 0.292193 0.879884 0.000938
C30   C     C_R   0.611500 0.712311 0.118991 -0.009665
C31   C     C_R   0.495311 0.321197 0.788894 -0.308916
C32   C     C_R   0.595725 0.681936 0.210148 -0.268791
C33   C     C_R   0.425979 0.455911 0.814146 -0.084740
C34   C     C_R   0.549935 0.652493 0.060938 0.103699
C35   C     C_R   0.449200 0.541710 0.187145 -0.087243
C36   C     C_R   0.455851 0.440000 0.902287 -0.020093
C37   C     C_R   0.486979 0.560180 0.097936 0.059389
C38   C     C_2   0.423077 0.226257 0.077731 0.558379
C39   C     C_2   0.570270 0.775672 0.922680 0.535215
C40   C     C_2   0.330167 0.477284 0.218148 0.401436
C41   C     C_2   0.341180 0.515649 0.788269 0.431712
C42   C     C_2   0.549460 0.212036 0.907182 0.522208
C43   C     C_2   0.709403 0.797123 0.089935 0.524883
C44   C     C_R   0.477860 0.512134 0.954191 0.057514
C45   C     C_R   0.470671 0.488226 0.046000 0.142796
C46   C     C_R   0.457466 0.393877 0.083897 -0.220265
C47   C     C_R   0.516513 0.607325 0.916169 -0.335015
C48   C     C_R   0.454999 0.324352 0.031780 -0.049272
H1    H     H_    0.649199 0.723263 0.254700 0.163615
H2    H     H_    0.599677 0.793326 0.853617 0.079170
H3    H     H_    0.301037 0.464101 0.287094 0.073228
H4    H     H_    0.315576 0.556666 0.834107 0.095643
H5    H     H_    0.536105 0.155609 0.868375 0.096566
H6    H     H_    0.727889 0.853289 0.129144 0.083033
H7    H     H_    0.525850 0.281975 0.743445 0.162031
H8    H     H_    0.453777 0.373975 0.154799 0.143687
H9    H     H_    0.525486 0.627421 0.845255 0.140918
H10   H     H_    0.528773 0.218391 0.549472 0.154024
H11   H     H_    0.466831 0.780709 0.453051 0.157478
H12   H     H_    0.320617 0.306031 0.350282 0.151681
H13   H     H_    0.683619 0.694862 0.646981 0.161260
H14   H     H_    0.446224 0.210496 0.145691 0.064932
I1    I     I_    0.757985 0.199719 0.528590 -0.283487
I2    I     I_    0.238191 0.800171 0.477513 -0.271249
I3    I     I_    0.712885 0.043128 0.740613 -0.200153
I4    I     I_    0.280873 0.952367 0.263900 -0.169939
I5    I     I_    0.833360 0.856575 0.715822 -0.217690
I6    I     I_    0.174904 0.147711 0.276626 -0.198210
N1    N     N_R   0.566020 0.731700 0.552730 -0.117560
N2    N     N_R   0.433980 0.268300 0.447270 -0.118058
O1    O     O_R   0.466720 0.383110 0.605620 -0.616310
O2    O     O_2   0.546690 0.836069 0.959930 -0.530840
O3    O     O_2   0.259518 0.442954 0.166238 -0.527152
O4    O     O_2   0.292150 0.514884 0.718198 -0.550700
O5    O     O_2   0.614671 0.211040 0.969284 -0.538111
O6    O     O_2   0.775103 0.802631 0.025696 -0.525033
O7    O     O_R   0.533280 0.616890 0.394380 -0.608186
O8    O     O_R   0.509090 0.531900 0.639510 -0.597488
O9    O     O_R   0.490910 0.468100 0.360490 -0.633416
O10   O     O_R   0.644370 0.425610 0.483050 -0.588663
O11   O     O_R   0.355630 0.574390 0.516950 -0.565676
O12   O     O_R   0.686740 0.574390 0.516930 -0.612481
O13   O     O_R   0.313260 0.425610 0.483070 -0.622095
O14   O     O_2   0.364353 0.163060 0.042356 -0.516895
Zn1   Zn    Zn3+2 0.471710 0.400660 0.477370 0.972377
Zn2   Zn    Zn3+2 0.528290 0.599340 0.522630 0.992485

loop_
_geom_bond_atom_site_label_1
_geom_bond_atom_site_label_2
_ccdc_geom_bond_type
C15   C18   A    
C29   C42   S    
C34   C37   A    
C45   C46   A    
C27   C33   A    
C42   O5    D    
C1    O1    A    
C12   C28   S    
C23   C29   A    
C19   C21   A    
C24   C26   T    
C10   C15   A    
C42   H5    S    
C21   I4    S    
C18   I1    S    
C12   O9    A    
C33   C36   A    
C40   O3    D    
C18   C20   A    
C6    N2    A    
C4    C13   A    
C5    N1    A    
C8    H10   S    
C41   O4    D    
O1    Zn1   S    
C2    C39   S    
C28   C35   A    
C22   C25   T    
C39   O2    D    
C41   H4    S    
C38   C48   S    
O11   Zn2   S    
C44   C47   A    
C2    C34   A    
C1    O8    A    
C7    H11   S    
C46   C48   A    
C11   C20   A    
C17   C24   S    
C30   C34   A    
C27   C31   A    
C6    H12   S    
C20   I3    S    
C28   C32   A    
C4    C6    A    
C4    I6    S    
C25   C26   S    
O12   Zn2   S    
C17   O13   A    
C9    C14   A    
O10   Zn1   S    
C47   H9    S    
C43   H6    S    
C19   I2    S    
C12   O7    A    
C16   O12   A    
C13   C21   A    
C9    C11   A    
C31   H7    S    
O13   Zn1   S    
O7    Zn2   S    
C30   C43   S    
C36   C44   A    
C37   C45   A    
O9    Zn1   S    
C44   C45   A    
C35   C37   A    
C43   O6    D    
C7    C9    A    
C16   C22   S    
C23   C48   A    
C38   O14   D    
C14   C19   A    
C3    I5    S    
C3    C5    A    
C10   C13   A    
C7    N1    A    
C2    C47   A    
C40   H3    S    
C8    N2    A    
C33   C41   S    
C35   C40   S    
C29   C31   A    
C30   C32   A    
O8    Zn2   S    
C17   O11   A    
C32   H1    S    
C3    C11   A    
C39   H2    S    
C8    C10   A    
C23   C36   A    
C46   H8    S    
C1    C27   S    
C14   C15   A    
C16   O10   A    
N2    Zn1   S    
N1    Zn2   S    
C5    H13   S    
C38   H14   S    
