data_mof_unit_38328.cif
_audit_creation_date              2012-12-11T17:10:15-0500
_audit_creation_method            fapswitch 2.2
_symmetry_space_group_name_H-M    P1
_symmetry_Int_Tables_number       1
_space_group_crystal_system       triclinic
_cell_length_a                    15.07828
_cell_length_b                    15.178932
_cell_length_c                    14.94353
_cell_angle_alpha                 109.64768
_cell_angle_beta                  110.146268
_cell_angle_gamma                 108.972773
_cell_volume                      2621.09726138

loop_
_atom_site_label
_atom_site_type_symbol
_atom_type_description
_atom_site_fract_x
_atom_site_fract_y
_atom_site_fract_z
_atom_type_partial_charge
C1    C     C_R   0.205046 0.296779 0.192650 0.002210
C2    C     C_R   0.562699 0.560141 0.865738 0.044987
C3    C     C_R   0.532470 0.188978 0.505862 -0.059769
C4    C     C_R   0.175833 0.465314 0.499194 -0.007808
C5    C     C_R   0.412422 0.712212 0.409022 -0.046344
C6    C     C_R   0.799012 0.494743 0.591431 -0.071198
C7    C     C_R   0.567782 0.474007 0.255465 -0.130519
C8    C     C_R   0.721030 0.811807 0.748367 -0.141326
C9    C     C_R   0.814614 0.723146 0.752949 -0.102042
C10   C     C_R   0.475072 0.562638 0.249480 -0.159147
C11   C     C_R   0.504115 0.801921 0.592406 -0.180311
C12   C     C_R   0.594193 0.503196 0.803225 -0.141818
C13   C     C_R   0.702723 0.398650 0.408704 -0.185515
C14   C     C_R   0.451676 0.807051 0.501495 0.041243
C15   C     C_R   0.795414 0.428290 0.499335 0.042979
C16   C     C_R   0.550175 0.544792 0.224142 0.080614
C17   C     C_R   0.823784 0.824199 0.779826 0.050325
C18   C     C_R   0.108667 0.641121 0.319096 -0.085950
C19   C     C_R   0.097560 0.600015 0.387782 -0.145687
C20   C     C_R   0.017449 0.493055 0.341998 0.129426
C21   C     C_R   0.948791 0.428005 0.226702 -0.164594
C22   C     C_R   0.960924 0.469208 0.158280 -0.082815
C23   C     C_R   0.484919 0.192544 0.410650 -0.016797
C24   C     C_R   0.040746 0.575781 0.204482 -0.006147
C25   C     C_R   0.901999 0.434960 0.413371 -0.237603
C26   C     C_R   0.884034 0.416872 0.492723 0.068432
C27   C     C_R   0.959154 0.407190 0.570870 0.005733
C28   C     C_R   0.054799 0.421377 0.570194 -0.239458
C29   C     C_R   0.074315 0.445372 0.494023 0.081771
C30   C     C_R   0.997441 0.452814 0.414854 0.005809
C31   C     C_R   0.015257 0.444913 0.764006 -0.159686
C32   C     C_R   0.001463 0.413148 0.838161 -0.064400
C33   C     C_R   0.912826 0.314168 0.799130 -0.061664
C34   C     C_R   0.277711 0.537735 0.592527 -0.132336
C35   C     C_R   0.837147 0.247447 0.686021 -0.113866
C36   C     C_R   0.849217 0.279985 0.611738 -0.110729
C37   C     C_R   0.939124 0.378545 0.650178 0.120650
C38   C     C_R   0.641558 0.532989 0.021630 0.121095
C39   C     C_R   0.600089 0.589965 0.980482 0.062439
C40   C     C_R   0.579673 0.662483 0.046545 -0.192864
C41   C     C_R   0.577042 0.658348 0.137896 -0.195494
C42   C     C_R   0.590444 0.578817 0.159758 0.025736
C43   C     C_R   0.628463 0.521284 0.103888 0.110982
C44   C     C_3   0.603787 0.405528 0.053258 0.004783
C45   C     C_R   0.578818 0.287875 0.595534 -0.013959
C46   C     C_3   0.624667 0.421213 0.965935 -0.573704
C47   C     C_R   0.469361 0.982258 0.581085 0.161867
C48   C     C_R   0.477686 0.906502 0.506188 0.061482
C49   C     C_R   0.533327 0.935306 0.453108 -0.119082
C50   C     C_R   0.560074 0.033543 0.458123 -0.142838
C51   C     C_R   0.530332 0.099761 0.516032 0.069045
C52   C     C_R   0.493955 0.078133 0.584173 0.065417
C53   C     C_3   0.400527 0.081395 0.596201 -0.575329
C54   C     C_3   0.371977 0.973738 0.591925 -0.212792
C55   C     C_R   0.011121 0.115737 0.976843 0.114612
C56   C     C_R   0.186892 0.436993 0.407837 -0.040919
C57   C     C_R   0.111749 0.119755 0.016645 0.036235
C58   C     C_R   0.119863 0.033656 0.952451 -0.170148
C59   C     C_R   0.024791 0.937559 0.864046 -0.199113
C60   C     C_R   0.922398 0.928494 0.840163 0.043651
C61   C     C_R   0.918193 0.022134 0.889848 0.153068
C62   C     C_3   0.851684 0.041326 0.941421 -0.502365
C63   C     C_3   0.953567 0.143877 0.036546 -0.498055
C64   C     C_R   0.501900 0.591287 0.803610 -0.132194
C65   C     C_R   0.288214 0.200177 0.195059 -0.119482
C66   C     C_R   0.197860 0.201269 0.130536 -0.037815
H1    H     H_    0.857711 0.527020 0.676693 0.136840
H2    H     H_    0.623860 0.445635 0.251011 0.091542
H3    H     H_    0.698580 0.872776 0.753753 0.110981
H4    H     H_    0.879050 0.703591 0.765941 0.098804
H5    H     H_    0.446567 0.615474 0.235829 0.080665
H6    H     H_    0.537227 0.859933 0.677565 0.157796
H7    H     H_    0.669759 0.339159 0.323947 0.096153
H8    H     H_    0.049777 0.607821 0.151522 0.123263
H9    H     H_    0.169407 0.723979 0.354834 0.137217
H10   H     H_    0.149633 0.652008 0.476498 0.113037
H11   H     H_    0.658969 0.487456 0.835236 0.162269
H12   H     H_    0.885540 0.345828 0.190136 0.111196
H13   H     H_    0.908086 0.418760 0.069556 0.098777
H14   H     H_    0.846113 0.446682 0.356015 0.129448
H15   H     H_    0.114286 0.414048 0.629013 0.133722
H16   H     H_    0.085555 0.520794 0.795079 0.114804
H17   H     H_    0.060198 0.464653 0.925757 0.113094
H18   H     H_    0.902826 0.289120 0.856470 0.090420
H19   H     H_    0.769005 0.170638 0.656155 0.100811
H20   H     H_    0.790478 0.227124 0.524229 0.094777
H21   H     H_    0.555102 0.714004 0.022055 0.131958
H22   H     H_    0.552555 0.708451 0.182539 0.134867
H23   H     H_    0.667354 0.394860 0.106355 0.093482
H24   H     H_    0.701388 0.423297 0.973317 0.179056
H25   H     H_    0.553786 0.367443 0.880327 0.200506
H26   H     H_    0.551439 0.880361 0.404531 0.123995
H27   H     H_    0.596710 0.054366 0.412085 0.132017
H28   H     H_    0.428991 0.150016 0.677245 0.180912
H29   H     H_    0.338795 0.075305 0.523419 0.216086
H30   H     H_    0.297811 0.578429 0.677396 0.109499
H31   H     H_    0.293508 0.905388 0.517281 0.118796
H32   H     H_    0.197194 0.035649 0.976996 0.131842
H33   H     H_    0.031321 0.868106 0.823032 0.129999
H34   H     H_    0.789221 0.056378 0.893515 0.193366
H35   H     H_    0.821376 0.981063 0.965498 0.208345
H36   H     H_    0.947902 0.216585 0.042262 0.194522
H37   H     H_    0.982175 0.142716 0.115197 0.203308
H38   H     H_    0.122751 0.379655 0.323205 0.142359
H39   H     H_    0.477549 0.649504 0.832793 0.097355
H40   H     H_    0.315222 0.145390 0.165133 0.104539
N1    N     N_R   0.291070 0.347930 0.293870 -0.052271
N2    N     N_R   0.708930 0.502750 0.556810 -0.039350
N3    N     N_R   0.502760 0.445970 0.293860 -0.046729
N4    N     N_R   0.652110 0.708890 0.706130 -0.043295
N5    N     N_R   0.708930 0.652070 0.706130 -0.036217
N6    N     N_R   0.445950 0.502780 0.293850 -0.045089
N7    N     N_R   0.502760 0.708900 0.556790 -0.048210
N8    N     N_R   0.652110 0.445950 0.443190 -0.043937
N9    N     N_R   0.554050 0.497220 0.706150 -0.038530
N10   N     N_R   0.497240 0.291100 0.443210 -0.086147
N11   N     N_R   0.347890 0.554050 0.556810 -0.044981
N12   N     N_R   0.554050 0.347900 0.556830 -0.048271
N13   N     N_R   0.291070 0.497250 0.443190 -0.029865
N14   N     N_R   0.497240 0.554030 0.706140 -0.044257
N15   N     N_R   0.347890 0.291110 0.293870 -0.060859
N16   N     N_R   0.445950 0.652100 0.443170 -0.067223
Ni1   Ni    Ni4+2 0.369690 0.500010 0.369700 0.252097
Ni2   Ni    Ni4+2 0.630310 0.499990 0.630300 0.265610
Ni3   Ni    Ni4+2 0.500000 0.369720 0.369720 0.187210
Ni4   Ni    Ni4+2 0.500000 0.630280 0.630280 0.220044
C67   C     C_2   0.162701 0.355325 0.145126 0.400123
H41   H     H_    0.129945 0.327957 0.057832 0.024134
O1    O     O_2   0.163893 0.434994 0.202670 -0.629612
C68   C     C_2   0.452497 0.116066 0.298386 0.492048
H42   H     H_    0.470530 0.146414 0.247028 -0.030145
O2    O     O_2   0.405218 0.018908 0.261996 -0.553548
C69   C     C_3   0.486161 0.313867 0.003046 -0.277291
C70   C     C_3   0.393266 0.332191 0.945972 -0.859998
H43   H     H_    0.392454 0.398055 0.006478 0.259830
H44   H     H_    0.399100 0.351092 0.882034 0.254750
H45   H     H_    0.314153 0.257564 0.905040 0.234071
H46   H     H_    0.474409 0.238431 0.941483 0.188159
H47   H     H_    0.477692 0.297720 0.067509 0.170254
C71   C     C_2   0.381575 0.979784 0.697842 0.521902
H48   H     H_    0.322712 0.990222 0.719767 0.009116
O3    O     O_2   0.453897 0.972949 0.759298 -0.611846
C72   C     C_2   0.670075 0.329988 0.705536 0.433442
H49   H     H_    0.670457 0.279760 0.742729 0.012825
O4    O     O_2   0.749211 0.419560 0.753037 -0.608783
C73   C     C_2   0.330649 0.675784 0.295708 0.466930
H50   H     H_    0.294023 0.594632 0.229766 0.079785
O5    O     O_2   0.303687 0.737097 0.274329 -0.579210

loop_
_geom_bond_atom_site_label_1
_geom_bond_atom_site_label_2
_ccdc_geom_bond_type
C45   N12   A    
C9    N5    A    
C18   H9    S    
C53   H29   S    
C25   H14   S    
C59   H33   S    
C41   C42   A    
C3    C23   A    
C35   C36   A    
C58   H32   S    
N1    Ni1   S    
C57   C66   S    
C2    C12   A    
C49   C50   A    
C70   H45   S    
C64   H39   S    
C20   C30   S    
C53   C54   S    
C28   C29   A    
C8    H3    S    
C62   C63   S    
C31   H16   S    
C18   C24   A    
C40   H21   S    
C19   H10   S    
C34   H30   S    
C22   H13   S    
N11   N13   A    
C38   C39   A    
C11   C14   A    
N14   Ni4   S    
C72   H49   S    
C44   C69   S    
C18   C19   A    
N2    N8    A    
C41   H22   S    
N4    N5    A    
C7    H2    S    
C2    C39   S    
C54   C71   S    
N7    N16   A    
C47   C48   A    
C2    C64   A    
C55   C63   S    
C21   H12   S    
C54   H31   S    
C10   N6    A    
C5    C73   S    
C65   N15   A    
N11   Ni4   S    
C13   N8    A    
C12   N9    A    
C10   H5    S    
C34   N11   A    
C23   N10   A    
C69   H46   S    
C21   C22   A    
C4    C56   A    
N2    Ni2   S    
C63   H36   S    
C44   C46   S    
C1    C66   A    
C73   O5    D    
C46   H24   S    
C28   H15   S    
C4    C34   A    
C51   C52   A    
C9    H4    S    
C56   H38   S    
N6    Ni1   S    
C63   H37   S    
N3    N6    A    
C39   C40   A    
N8    Ni3   S    
C3    C51   S    
C11   H6    S    
C15   C26   S    
C14   C48   S    
N7    Ni4   S    
C36   H20   S    
C25   C26   A    
C5    N16   A    
C3    C45   A    
C7    N3    A    
C23   C68   S    
C60   C61   A    
C68   O2    D    
C43   C44   S    
C67   O1    D    
N15   Ni3   S    
C29   C30   A    
C8    N4    A    
C31   C32   A    
C6    C15   A    
C12   H11   S    
C50   C51   A    
C26   C27   A    
N12   Ni2   S    
C71   H48   S    
C5    C14   A    
C47   C52   A    
N4    Ni4   S    
C47   C54   S    
C62   H34   S    
C9    C17   A    
C40   C41   A    
C1    N1    A    
N9    N14   A    
N10   Ni3   S    
C13   C15   A    
C69   C70   S    
C56   N13   A    
C22   C24   A    
C42   C43   A    
N1    N15   A    
C49   H26   S    
C67   H41   S    
C16   C42   S    
C65   H40   S    
C52   C53   S    
C73   H50   S    
N3    Ni3   S    
C25   C30   A    
C72   O4    D    
C32   H17   S    
C36   C37   A    
N9    Ni2   S    
C53   H28   S    
C7    C16   A    
C1    C67   S    
C13   H7    S    
C4    C29   S    
C70   H44   S    
C50   H27   S    
C69   H47   S    
C70   H43   S    
C71   O3    D    
N13   Ni1   S    
C8    C17   A    
C64   N14   A    
C32   C33   A    
C62   H35   S    
C19   C20   A    
C55   C57   A    
C68   H42   S    
C58   C59   A    
C38   C43   A    
C6    H1    S    
C35   H19   S    
C24   H8    S    
C57   C58   A    
C27   C37   S    
C48   C49   A    
C55   C61   A    
C33   C35   A    
N10   N12   A    
C61   C62   S    
C11   N7    A    
C33   H18   S    
C38   C46   S    
C17   C60   S    
C31   C37   A    
C59   C60   A    
C20   C21   A    
C65   C66   A    
C27   C28   A    
C45   C72   S    
C6    N2    A    
C10   C16   A    
N16   Ni1   S    
N5    Ni2   S    
C46   H25   S    
C44   H23   S    
