data_mof_unit_8282.cif
_audit_creation_date              2012-12-10T17:15:53-0500
_audit_creation_method            fapswitch 2.2
_symmetry_space_group_name_H-M    P1
_symmetry_Int_Tables_number       1
_space_group_crystal_system       triclinic
_cell_length_a                    10.138299
_cell_length_b                    10.879817
_cell_length_c                    11.029593
_cell_angle_alpha                 87.331281
_cell_angle_beta                  93.697061
_cell_angle_gamma                 81.930457
_cell_volume                      1200.13682448

loop_
_atom_site_label
_atom_site_type_symbol
_atom_type_description
_atom_site_fract_x
_atom_site_fract_y
_atom_site_fract_z
_atom_type_partial_charge
C1    C     C_R   0.443776 0.505518 0.267852 0.891040
C2    C     C_R   0.589467 0.059059 0.421142 -0.021218
C3    C     C_R   0.491303 0.130295 0.482834 -0.115433
C4    C     C_R   0.396081 0.074289 0.541496 -0.158352
C5    C     C_R   0.401024 0.947182 0.542258 -0.113939
C6    C     C_R   0.507254 0.873098 0.493022 -0.109753
C7    C     C_2   0.409127 0.491832 0.138095 -0.250951
C8    C     C_2   0.503154 0.501973 0.058507 -0.070167
C9    C     C_2   0.585759 0.484772 0.857449 -0.374341
C10   C     C_2   0.503486 0.447136 0.937934 -0.001351
C11   C     C_2   0.077312 0.478037 0.507225 -0.084838
C12   C     C_R   0.496972 0.260908 0.495332 0.871754
C13   C     C_2   0.929628 0.485871 0.526155 -0.079538
C14   C     C_R   0.554739 0.483406 0.730422 0.921242
C15   C     C_R   0.502363 0.740276 0.498044 0.875138
C16   C     C_R   0.666705 0.112727 0.336953 -0.089118
C17   C     C_R   0.800366 0.059685 0.335958 -0.147606
C18   C     C_R   0.838055 0.937403 0.383836 -0.109403
C19   C     C_R   0.732101 0.866649 0.398551 -0.018104
C20   C     C_R   0.611230 0.929529 0.440449 -0.003407
H1    H     H_    0.323471 0.906501 0.586086 0.197093
N1    N     N_2   0.157290 0.551390 0.551110 -0.169418
N2    N     N_2   0.842740 0.448550 0.448960 -0.180312
O1    O     O_R   0.568950 0.489660 0.307530 -0.583315
O2    O     O_R   0.348880 0.522640 0.340350 -0.609679
O3    O     O_R   0.610060 0.300270 0.483590 -0.625198
O4    O     O_R   0.389990 0.333260 0.516410 -0.627501
O5    O     O_R   0.651120 0.477360 0.659650 -0.633487
O6    O     O_R   0.431050 0.510340 0.692470 -0.536382
O7    O     O_R   0.610010 0.666740 0.483590 -0.594240
O8    O     O_R   0.389940 0.699730 0.516410 -0.612641
Zn1   Zn    Zn3+2 0.646940 0.477980 0.478090 1.039782
Zn2   Zn    Zn3+2 0.353060 0.522020 0.521910 1.034482
H2    H     H_    0.318556 0.128497 0.587677 0.170049
C21   C     C_2   0.273864 0.463824 0.100707 0.973391
O9    O     O_2   0.223874 0.387653 0.160840 -0.586066
O10   O     O_R   0.201922 0.528375 0.999287 -0.744800
H3    H     H_    0.110400 0.502428 0.983602 0.349792
H4    H     H_    0.894230 0.519483 0.610766 0.195643
H5    H     H_    0.120397 0.405689 0.451127 0.176494
C22   C     C_2   0.882964 0.421404 0.330772 1.139665
O11   O     O_2   0.847957 0.332303 0.282470 -0.615677
O12   O     O_R   0.960718 0.497029 0.269141 -0.747210
H6    H     H_    0.979937 0.468043 0.185320 0.370356
C23   C     C_2   0.113163 0.648230 0.628666 1.054896
O13   O     O_2   0.193419 0.680354 0.703836 -0.564868
O14   O     O_R   0.982759 0.711954 0.615346 -0.830893
H7    H     H_    0.966837 0.780122 0.674564 0.339277
C24   C     C_2   0.601035 0.195794 0.232151 1.029972
O15   O     O_2   0.668804 0.239869 0.158720 -0.499464
O16   O     O_R   0.462317 0.215661 0.207696 -0.762935
H8    H     H_    0.411914 0.157812 0.254692 0.332139
H9    H     H_    0.868933 0.103479 0.283110 0.234033
C25   C     C_2   0.977465 0.877663 0.371540 0.945674
O17   O     O_2   0.068031 0.941077 0.371473 -0.624249
O18   O     O_R   0.005783 0.749719 0.358834 -0.739435
H10   H     H_    0.103673 0.721652 0.347542 0.356279
C26   C     C_2   0.717489 0.797072 0.289513 0.975145
O19   O     O_2   0.745805 0.684485 0.294599 -0.547726
O20   O     O_R   0.694454 0.865419 0.177457 -0.765669
H11   H     H_    0.734799 0.819735 0.107947 0.357241
C27   C     C_2   0.427328 0.343132 0.909523 0.967910
O21   O     O_2   0.470130 0.238049 0.951037 -0.545083
O22   O     O_R   0.309301 0.364468 0.834034 -0.762585
H12   H     H_    0.268435 0.285813 0.821053 0.335331
C28   C     C_2   0.598619 0.589287 0.083342 0.976033
O23   O     O_2   0.555212 0.698780 0.090647 -0.607228
O24   O     O_R   0.735737 0.547736 0.086784 -0.759545
H13   H     H_    0.791503 0.617652 0.082147 0.342136
H14   H     H_    0.662091 0.541925 0.879111 0.171141

loop_
_geom_bond_atom_site_label_1
_geom_bond_atom_site_label_2
_ccdc_geom_bond_type
C28   O24   S    
C9    C14   S    
O1    Zn1   S    
C8    C28   S    
O10   H3    S    
C16   C24   S    
O6    Zn2   S    
C2    C16   A    
C9    C10   D    
C11   N1    D    
C19   C20   A    
N2    C22   S    
O12   H6    S    
O22   H12   S    
O8    Zn2   S    
C17   C18   A    
C26   O19   D    
C5    H1    S    
C7    C8    D    
C10   C27   S    
C23   O13   D    
N2    Zn1   S    
O7    Zn1   S    
C22   O12   S    
C11   H5    S    
C27   O21   D    
C7    C21   S    
C1    O1    A    
C21   O10   S    
C2    C3    A    
C4    H2    S    
C23   O14   S    
C19   C26   S    
C5    C6    A    
C25   O18   S    
C13   H4    S    
C11   C13   S    
C16   C17   A    
C18   C25   S    
C12   O4    A    
C26   O20   S    
O16   H8    S    
C17   H9    S    
O5    Zn1   S    
N1    C23   S    
C6    C20   A    
O18   H10   S    
C13   N2    D    
C15   O7    A    
C8    C10   S    
C24   O15   D    
C22   O11   D    
O2    Zn2   S    
C28   O23   D    
N1    Zn2   S    
C18   C19   A    
O3    Zn1   S    
O24   H13   S    
C1    C7    S    
C27   O22   S    
C3    C12   S    
C14   O6    A    
C14   O5    A    
C6    C15   S    
C25   O17   D    
C2    C20   A    
C15   O8    A    
C9    H14   S    
O20   H11   S    
O4    Zn2   S    
C3    C4    A    
O14   H7    S    
C12   O3    A    
C4    C5    A    
C24   O16   S    
C21   O9    D    
C1    O2    A    
