data_mof_unit_55191.cif
_audit_creation_date              2012-12-10T17:48:55-0500
_audit_creation_method            fapswitch 2.2
_symmetry_space_group_name_H-M    P1
_symmetry_Int_Tables_number       1
_space_group_crystal_system       triclinic
_cell_length_a                    10.718875
_cell_length_b                    14.732406
_cell_length_c                    14.788125
_cell_angle_alpha                 64.700947
_cell_angle_beta                  104.608446
_cell_angle_gamma                 102.636306
_cell_volume                      2026.52917899

loop_
_atom_site_label
_atom_site_type_symbol
_atom_type_description
_atom_site_fract_x
_atom_site_fract_y
_atom_site_fract_z
_atom_type_partial_charge
Br1   Br    Br    0.494310 0.348443 0.793444 -0.512707
Br2   Br    Br    0.619098 0.706352 0.601141 -0.570298
C1    C     C_R   0.480714 0.119463 0.311947 0.818406
C2    C     C_R   0.508451 0.360536 0.078390 0.056146
C3    C     C_R   0.496328 0.322959 0.002218 0.016332
C4    C     C_R   0.260176 0.000714 0.499519 0.810046
C5    C     C_R   0.532633 0.466707 0.053531 0.086769
C6    C     C_R   0.527727 0.534062 0.950128 0.012590
C7    C     C_R   0.517558 0.494214 0.876616 -0.216413
C8    C     C_R   0.503542 0.390895 0.901754 0.264192
C9    C     C_R   0.565787 0.507863 0.128687 -0.170424
C10   C     C_R   0.587278 0.611816 0.102411 -0.183761
C11   C     C_R   0.572694 0.678368 0.000658 0.152166
C12   C     C_3   0.878381 0.000225 0.500258 0.064729
C13   C     C_R   0.538625 0.639856 0.923661 0.101645
C14   C     C_R   0.591812 0.783267 0.974717 -0.152743
C15   C     C_R   0.576198 0.850261 0.872837 -0.146977
C16   C     C_R   0.521216 0.880389 0.687823 0.866849
C17   C     C_R   0.513886 0.708486 0.822253 -0.182095
C18   C     C_R   0.758458 0.312087 0.615709 -0.267339
C19   C     C_R   0.706852 0.218057 0.612800 0.092364
C20   C     C_R   0.507261 0.279891 0.516126 0.036215
C21   C     C_R   0.552902 0.377093 0.518476 0.016928
C22   C     C_R   0.683591 0.392470 0.566127 0.169881
C23   C     C_3   0.926252 0.899795 0.581858 -0.375098
C24   C     C_R   0.476653 0.460069 0.473438 0.016242
C25   C     C_R   0.532529 0.554571 0.480758 0.106585
C26   C     C_R   0.668105 0.569697 0.511781 -0.145639
C27   C     C_R   0.741015 0.489307 0.558537 -0.152760
C28   C     C_R   0.740029 0.999899 0.500031 0.787366
C29   C     C_R   0.348606 0.453318 0.419461 -0.258627
C30   C     C_R   0.278313 0.536213 0.373700 0.399731
C31   C     C_R   0.329112 0.626426 0.388929 0.030756
C32   C     C_R   0.453238 0.633489 0.449640 -0.103063
C33   C     C_R   0.257152 0.708859 0.347050 -0.235561
C34   C     C_3   0.964233 0.089556 0.524908 -0.359327
C35   C     C_R   0.303703 0.793622 0.370648 0.072957
C36   C     C_R   0.488403 0.716386 0.481430 0.395482
C37   C     C_3   0.039330 0.012005 0.394911 -0.466903
C38   C     C_3   0.895258 0.012030 0.394597 -0.368178
C39   C     C_3   0.070510 0.899383 0.582182 0.217990
C40   C     C_3   0.106853 0.090969 0.523429 -0.332784
C41   C     C_3   0.122637 0.000738 0.500732 0.066148
C42   C     C_R   0.479606 0.186192 0.203639 -0.141205
C43   C     C_R   0.536724 0.812824 0.796040 -0.044569
C44   C     C_R   0.478166 0.218085 0.028271 -0.167103
C45   C     C_R   0.471716 0.149769 0.127802 0.361221
C46   C     C_R   0.494015 0.290653 0.177007 -0.274709
Cl1   Cl    Cl    0.165538 0.875398 0.707169 -0.622387
Cl2   Cl    Cl    0.455775 0.020184 0.151245 -0.608179
Cl3   Cl    Cl    0.122190 0.520605 0.302390 -0.629795
Cu1   Cu    Cu3+1 0.465900 0.918260 0.475680 1.011969
Cu2   Cu    Cu3+1 0.534100 0.081740 0.524320 0.957020
H1    H     H_    0.047872 0.948676 0.375563 0.177861
H2    H     H_    0.526138 0.541906 0.798827 0.204589
H3    H     H_    0.581512 0.461840 0.209066 0.145997
H4    H     H_    0.619718 0.813404 0.033218 0.156346
H5    H     H_    0.843905 0.503586 0.586739 0.154028
H6    H     H_    0.247757 0.856721 0.337337 0.146889
H7    H     H_    0.858052 0.322940 0.653174 0.152050
H8    H     H_    0.766933 0.157460 0.646741 0.125717
H9    H     H_    0.412724 0.263844 0.475160 0.115578
H10   H     H_    0.861405 0.083983 0.335087 0.181714
H11   H     H_    0.720097 0.644563 0.498074 0.170056
H12   H     H_    0.955514 0.082226 0.601281 0.184136
H13   H     H_    0.301587 0.385175 0.408747 0.160888
H14   H     H_    0.164423 0.708422 0.296728 0.204745
H15   H     H_    0.835149 0.948924 0.374869 0.194978
H16   H     H_    0.077242 0.835461 0.563052 0.128939
H17   H     H_    0.867504 0.834760 0.565187 0.188398
H18   H     H_    0.166942 0.087633 0.597828 0.225363
H19   H     H_    0.140886 0.163888 0.464122 0.166580
H20   H     H_    0.931222 0.162987 0.468219 0.190077
H21   H     H_    0.912100 0.889620 0.657796 0.210751
H22   H     H_    0.473267 0.681957 0.762223 0.182843
H23   H     H_    0.593689 0.930929 0.854315 0.171392
H24   H     H_    0.614271 0.640204 0.162243 0.151612
H25   H     H_    0.470233 0.187741 0.971855 0.217581
H26   H     H_    0.491280 0.316112 0.234651 0.168253
H27   H     H_    0.074992 0.083699 0.335079 0.184677
N1    N     N_R   0.585360 0.204570 0.560800 -0.183693
N2    N     N_R   0.414550 0.795430 0.439160 -0.188341
O1    O     O_R   0.455060 0.022100 0.338110 -0.528153
O2    O     O_R   0.512640 0.160150 0.379180 -0.598363
O3    O     O_R   0.288900 0.930980 0.479450 -0.603134
O4    O     O_R   0.346480 0.069030 0.520520 -0.584250
O5    O     O_R   0.487360 0.839850 0.620820 -0.541978
O6    O     O_R   0.544940 0.977900 0.661890 -0.581282
O7    O     O_R   0.653520 0.930970 0.479480 -0.545900
O8    O     O_R   0.711100 0.069020 0.520550 -0.607024

loop_
_geom_bond_atom_site_label_1
_geom_bond_atom_site_label_2
_ccdc_geom_bond_type
C29   H13   S    
C34   C40   S    
C28   O8    A    
C5    C6    A    
C5    C9    A    
C24   C25   A    
C4    O3    A    
Cu2   O2    S    
C46   H26   S    
C26   C27   A    
C33   C35   A    
C15   C43   A    
C2    C5    A    
C12   C34   S    
C37   H1    S    
Cu2   N1    S    
C23   H21   S    
C21   C24   A    
C22   C27   A    
C18   C22   A    
C14   C15   A    
C15   H23   S    
C21   C22   A    
Cu2   O4    S    
C7    H2    S    
C18   H7    S    
C7    C8    A    
C19   H8    S    
C42   C45   A    
C24   C29   A    
C36   N2    A    
C39   C41   S    
Cu1   O7    S    
C12   C28   S    
C28   O7    A    
C39   Cl1   S    
C45   Cl2   S    
C25   C32   A    
C1    C42   S    
C20   N1    A    
C23   C39   S    
C37   C38   S    
C44   H25   S    
C34   H12   S    
C6    C7    A    
C37   C41   S    
C16   O6    A    
Cu1   O1    S    
C13   C17   A    
C30   Cl3   S    
C20   H9    S    
Br2   C36   S    
C29   C30   A    
C33   H14   S    
C10   H24   S    
C18   C19   A    
C40   H19   S    
C31   C32   A    
C27   H5    S    
Cu1   N2    S    
C38   H10   S    
C35   H6    S    
C26   H11   S    
C19   N1    A    
C6    C13   A    
C4    C41   S    
C11   C13   A    
C1    O1    A    
C35   N2    A    
C40   C41   S    
C16   C43   S    
C1    O2    A    
Cu1   Cu2   S    
C39   H16   S    
C2    C46   A    
C44   C45   A    
Cu1   O3    S    
C32   C36   A    
Cu1   O5    S    
Br1   C8    S    
C2    C3    A    
C9    C10   A    
C17   C43   A    
C3    C44   A    
C16   O5    A    
C4    O4    A    
C37   H27   S    
C17   H22   S    
C3    C8    A    
C30   C31   A    
C40   H18   S    
C31   C33   A    
Cu2   O6    S    
C14   H4    S    
C12   C23   S    
C34   H20   S    
C12   C38   S    
C10   C11   A    
C38   H15   S    
C11   C14   A    
Cu2   O8    S    
C20   C21   A    
C23   H17   S    
C9    H3    S    
C42   C46   A    
C25   C26   A    
