data_mof_unit_33700.cif
_audit_creation_date              2012-12-10T17:47:03-0500
_audit_creation_method            fapswitch 2.2
_symmetry_space_group_name_H-M    P1
_symmetry_Int_Tables_number       1
_space_group_crystal_system       triclinic
_cell_length_a                    9.93811
_cell_length_b                    10.630135
_cell_length_c                    13.624336
_cell_angle_alpha                 91.470647
_cell_angle_beta                  82.804368
_cell_angle_gamma                 89.89142
_cell_volume                      1427.49681926

loop_
_atom_site_label
_atom_site_type_symbol
_atom_type_description
_atom_site_fract_x
_atom_site_fract_y
_atom_site_fract_z
_atom_type_partial_charge
C1    C     C_R   0.500300 0.739248 0.497339 0.845455
C2    C     C_R   0.556196 0.937732 0.565458 -0.218915
C3    C     C_R   0.556579 0.066261 0.565415 -0.197121
C4    C     C_R   0.475485 0.499997 0.685523 0.878181
C5    C     C_R   0.502389 0.128075 0.490554 -0.082770
C6    C     C_R   0.838801 0.666404 0.628803 -0.144298
C7    C     C_R   0.898273 0.746870 0.692828 -0.201166
C8    C     C_R   0.037386 0.745149 0.693615 -0.183996
C9    C     C_R   0.117987 0.663309 0.630075 -0.144983
C10   C     C_R   0.061421 0.580910 0.563859 0.161674
C11   C     C_R   0.917047 0.581591 0.563506 0.173863
C12   C     C_1   0.457032 0.499081 0.789273 -0.186093
C13   C     C_R   0.939226 0.422156 0.439119 -0.113115
C14   C     C_R   0.082177 0.422315 0.439037 -0.104769
C15   C     C_R   0.500614 0.260618 0.497438 0.864347
C16   C     C_R   0.524570 0.499964 0.314453 0.876451
C17   C     C_1   0.543962 0.503342 0.210757 -0.209692
C18   C     C_2   0.565159 0.510438 0.018776 0.209629
C19   C     C_2   0.448296 0.497697 0.980695 -0.188907
C20   C     C_1   0.447325 0.498240 0.876993 0.019729
C21   C     C_1   0.557967 0.506862 0.123020 -0.014349
C22   C     C_3   0.700646 0.527447 0.957018 -0.842712
C23   C     C_R   0.404170 0.864127 0.331744 -0.229925
C24   C     C_3   0.310258 0.128302 0.169659 -0.941671
C25   C     C_R   0.357612 0.927360 0.254025 -0.133802
C26   C     C_R   0.358350 0.058835 0.253380 0.265684
C27   C     C_R   0.405958 0.126304 0.331427 -0.206788
C28   C     C_R   0.451786 0.063320 0.411377 0.048826
C29   C     C_R   0.451101 0.931522 0.411502 0.097641
C30   C     C_R   0.501526 0.871415 0.490675 -0.070072
H1    H     H_    0.352632 0.485534 0.027733 0.133505
H2    H     H_    0.408655 0.227817 0.327802 0.149749
H3    H     H_    0.596460 0.117925 0.625023 0.151718
H4    H     H_    0.894400 0.358437 0.389352 0.148404
H5    H     H_    0.783201 0.536980 0.004640 0.233808
H6    H     H_    0.723552 0.444666 0.906234 0.241755
H7    H     H_    0.698781 0.613706 0.912874 0.235675
H8    H     H_    0.276083 0.062612 0.113179 0.241068
H9    H     H_    0.224016 0.190908 0.198687 0.240771
H10   H     H_    0.394019 0.186443 0.133386 0.246261
H11   H     H_    0.731549 0.673870 0.632937 0.195862
H12   H     H_    0.835761 0.810871 0.742272 0.145109
H13   H     H_    0.083315 0.807657 0.743750 0.149567
H14   H     H_    0.223942 0.666966 0.635082 0.201245
H15   H     H_    0.144390 0.358671 0.389190 0.146828
H16   H     H_    0.595932 0.889720 0.625065 0.136123
H17   H     H_    0.404797 0.762485 0.327697 0.163518
H18   H     H_    0.322313 0.873364 0.193856 0.140468
N1    N     N_R   0.857120 0.501200 0.500900 -0.119475
N2    N     N_R   0.142720 0.501280 0.500940 -0.119546
O1    O     O_R   0.385310 0.683220 0.500000 -0.637656
O2    O     O_R   0.614640 0.683250 0.500010 -0.628702
O3    O     O_R   0.368830 0.499960 0.640340 -0.624715
O4    O     O_R   0.598160 0.499980 0.640350 -0.626355
O5    O     O_R   0.385360 0.316750 0.499990 -0.613305
O6    O     O_R   0.614690 0.316780 0.500000 -0.610239
O7    O     O_R   0.401840 0.500020 0.359650 -0.621507
O8    O     O_R   0.631170 0.500040 0.359660 -0.600255
Zn1   Zn    Zn3+2 0.346870 0.499980 0.499990 0.932516
Zn2   Zn    Zn3+2 0.653130 0.500020 0.500010 0.941472

loop_
_geom_bond_atom_site_label_1
_geom_bond_atom_site_label_2
_ccdc_geom_bond_type
C13   H4    S    
C24   H8    S    
C6    C7    A    
C11   N1    A    
O5    Zn1   S    
C4    O3    A    
C4    C12   S    
C18   C21   S    
C22   H6    S    
C9    C10   A    
C19   C20   S    
C8    H13   S    
C2    C30   A    
C19   H1    S    
C15   O6    A    
C12   C20   T    
C23   H17   S    
C2    C3    A    
O3    Zn1   S    
C7    C8    A    
C16   O8    A    
C13   C14   A    
C2    H16   S    
C22   H5    S    
C1    O1    A    
C25   H18   S    
C26   C27   A    
C29   C30   A    
N1    Zn2   S    
C27   H2    S    
C13   N1    A    
N2    Zn1   S    
C23   C29   A    
C28   C29   A    
C24   H10   S    
C24   C26   S    
C14   H15   S    
C16   O7    A    
C23   C25   A    
C1    O2    A    
C5    C15   S    
O7    Zn1   S    
C10   C11   A    
C14   N2    A    
O8    Zn2   S    
C5    C28   A    
C6    C11   A    
C24   H9    S    
O1    Zn1   S    
C18   C19   D    
C7    H12   S    
C27   C28   A    
C3    H3    S    
C1    C30   S    
C9    H14   S    
O4    Zn2   S    
O2    Zn2   S    
C4    O4    A    
C25   C26   A    
C18   C22   S    
C22   H7    S    
C17   C21   T    
O6    Zn2   S    
C16   C17   S    
C15   O5    A    
C8    C9    A    
C3    C5    A    
C6    H11   S    
C10   N2    A    
