data_mof_unit_63971.cif
_audit_creation_date              2012-12-10T19:31:59-0500
_audit_creation_method            fapswitch 2.2
_symmetry_space_group_name_H-M    P1
_symmetry_Int_Tables_number       1
_space_group_crystal_system       triclinic
_cell_length_a                    25.083199
_cell_length_b                    24.985946
_cell_length_c                    16.448419
_cell_angle_alpha                 89.999861
_cell_angle_beta                  90.000408
_cell_angle_gamma                 89.999336
_cell_volume                      10308.6757895

loop_
_atom_site_label
_atom_site_type_symbol
_atom_type_description
_atom_site_fract_x
_atom_site_fract_y
_atom_site_fract_z
_atom_type_partial_charge
C1    C     C_R   0.072160 0.427714 0.499989 0.809523
C2    C     C_R   0.927839 0.572285 0.499989 0.809514
C3    C     C_R   0.927840 0.427713 0.500011 0.809533
C4    C     C_R   0.072161 0.572287 0.500012 0.809517
C5    C     C_R   0.572161 0.927714 0.499989 0.809481
C6    C     C_R   0.427838 0.072286 0.499988 0.809476
C7    C     C_R   0.427839 0.927714 0.500011 0.809481
C8    C     C_R   0.572161 0.072287 0.500012 0.809475
C9    C     C_R   0.001188 0.547239 0.743072 0.096899
C10   C     C_R   0.001161 0.452751 0.256930 0.096869
C11   C     C_R   0.998812 0.452761 0.743071 0.096898
C12   C     C_R   0.998838 0.547248 0.256928 0.096861
C13   C     C_R   0.501528 0.047240 0.743071 0.096891
C14   C     C_R   0.501497 0.952757 0.256929 0.096888
C15   C     C_R   0.498472 0.952760 0.743071 0.096888
C16   C     C_R   0.498503 0.047243 0.256928 0.096889
C17   C     C_R   0.000000 0.499999 0.873067 0.137380
C18   C     C_R   0.000000 0.499999 0.126933 0.137397
C19   C     C_R   0.500000 1.000000 0.873067 0.137413
C20   C     C_R   0.500001 1.000000 0.126933 0.137423
C21   C     C_1   0.000000 0.499999 0.962705 -0.025648
C22   C     C_1   0.000000 0.499999 0.037296 -0.025651
C23   C     C_1   0.500001 1.000000 0.962704 -0.025646
C24   C     C_1   0.500001 1.000000 0.037296 -0.025647
C25   C     C_R   0.200798 0.645211 0.543186 -0.177881
C26   C     C_R   0.854609 0.298824 0.457384 -0.175349
C27   C     C_R   0.799181 0.354811 0.543098 -0.177867
C28   C     C_R   0.145426 0.701150 0.457323 -0.175359
C29   C     C_R   0.799164 0.645171 0.456958 -0.177863
C30   C     C_R   0.145342 0.298785 0.542510 -0.175344
C31   C     C_R   0.200844 0.354833 0.457026 -0.177863
C32   C     C_R   0.854629 0.701193 0.542552 -0.175353
C33   C     C_R   0.700798 0.145217 0.543159 -0.177887
C34   C     C_R   0.354610 0.798826 0.457384 -0.175379
C35   C     C_R   0.299191 0.854798 0.543115 -0.177883
C36   C     C_R   0.645412 0.201156 0.457324 -0.175384
C37   C     C_R   0.299191 0.145205 0.456856 -0.177881
C38   C     C_R   0.645395 0.798826 0.542610 -0.175380
C39   C     C_R   0.700818 0.854806 0.456897 -0.177882
C40   C     C_R   0.354580 0.201151 0.542680 -0.175389
C41   C     C_R   0.161531 0.605585 0.543507 -0.036888
C42   C     C_R   0.894305 0.338013 0.456982 -0.028897
C43   C     C_R   0.838446 0.394439 0.543424 -0.036898
C44   C     C_R   0.105725 0.661964 0.456920 -0.028898
C45   C     C_R   0.838428 0.605541 0.456635 -0.036896
C46   C     C_R   0.105649 0.337979 0.542908 -0.028946
C47   C     C_R   0.161582 0.394465 0.456695 -0.036921
C48   C     C_R   0.894325 0.662002 0.542957 -0.028964
C49   C     C_R   0.661532 0.105590 0.543491 -0.036947
C50   C     C_R   0.394302 0.838019 0.456973 -0.028933
C51   C     C_R   0.338453 0.894429 0.543435 -0.036960
C52   C     C_R   0.605715 0.161967 0.456925 -0.028930
C53   C     C_R   0.338461 0.105581 0.456521 -0.036949
C54   C     C_R   0.605701 0.838019 0.543022 -0.028933
C55   C     C_R   0.661553 0.894435 0.456575 -0.036958
C56   C     C_R   0.394280 0.161965 0.543076 -0.028932
C57   C     C_R   0.113596 0.613714 0.500089 -0.109037
C58   C     C_R   0.886407 0.386286 0.500084 -0.109012
C59   C     C_R   0.886407 0.613712 0.499915 -0.109042
C60   C     C_R   0.113587 0.386284 0.499917 -0.109043
C61   C     C_R   0.613594 0.113715 0.500087 -0.109094
C62   C     C_R   0.386408 0.886285 0.500085 -0.109093
C63   C     C_R   0.386403 0.113713 0.499915 -0.109092
C64   C     C_R   0.613595 0.886287 0.499916 -0.109098
C65   C     C_R   0.192699 0.692714 0.500240 0.106036
C66   C     C_R   0.807309 0.307282 0.500227 0.106032
C67   C     C_R   0.807311 0.692718 0.499767 0.106019
C68   C     C_R   0.192677 0.307272 0.499784 0.105996
C69   C     C_R   0.692692 0.192721 0.500224 0.106039
C70   C     C_R   0.307317 0.807275 0.500240 0.106026
C71   C     C_R   0.307297 0.192711 0.499787 0.106046
C72   C     C_R   0.692691 0.807279 0.499762 0.106028
C73   C     C_1   0.233072 0.733056 0.500294 -0.033937
C74   C     C_1   0.766937 0.266938 0.500277 -0.033937
C75   C     C_1   0.766939 0.733063 0.499713 -0.033941
C76   C     C_1   0.233047 0.266925 0.499738 -0.033943
C77   C     C_1   0.733062 0.233066 0.500275 -0.033944
C78   C     C_1   0.266948 0.766928 0.500294 -0.033945
C79   C     C_1   0.266923 0.233054 0.499739 -0.033941
C80   C     C_1   0.733063 0.766934 0.499711 -0.033943
C81   C     C_R   0.001211 0.548095 0.828886 -0.258720
C82   C     C_R   0.001182 0.451893 0.171115 -0.258720
C83   C     C_R   0.998790 0.451904 0.828886 -0.258730
C84   C     C_R   0.998818 0.548105 0.171113 -0.258710
C85   C     C_R   0.501561 0.048097 0.828886 -0.258697
C86   C     C_R   0.501530 0.951899 0.171115 -0.258704
C87   C     C_R   0.498439 0.951902 0.828886 -0.258703
C88   C     C_R   0.498471 0.048101 0.171113 -0.258697
Cu1   Cu    Cu3+1 0.000000 0.500000 0.580420 0.982700
Cu2   Cu    Cu3+1 1.000000 0.500000 0.419580 0.982695
Cu3   Cu    Cu3+1 0.500000 1.000000 0.580420 0.982722
Cu4   Cu    Cu3+1 0.500000 0.000000 0.419580 0.982722
H1    H     H_    0.237781 0.639014 0.576081 0.144082
H2    H     H_    0.860628 0.261579 0.424729 0.144255
H3    H     H_    0.762176 0.361027 0.575931 0.144083
H4    H     H_    0.139428 0.738377 0.424615 0.144254
H5    H     H_    0.762146 0.638941 0.424171 0.144090
H6    H     H_    0.139293 0.261515 0.575076 0.144264
H7    H     H_    0.237875 0.361071 0.424284 0.144098
H8    H     H_    0.860663 0.738453 0.575159 0.144259
H9    H     H_    0.737784 0.139021 0.576043 0.144091
H10   H     H_    0.360626 0.761585 0.424723 0.144259
H11   H     H_    0.262191 0.861008 0.575955 0.144096
H12   H     H_    0.639407 0.238385 0.424624 0.144253
H13   H     H_    0.262202 0.139005 0.423980 0.144087
H14   H     H_    0.639380 0.761583 0.575266 0.144255
H15   H     H_    0.737820 0.861020 0.424067 0.144094
H16   H     H_    0.360583 0.238381 0.575378 0.144250
H17   H     H_    0.002171 0.586126 0.860431 0.144447
H18   H     H_    0.002119 0.413854 0.139571 0.144444
H19   H     H_    0.997830 0.413873 0.860430 0.144438
H20   H     H_    0.997881 0.586144 0.139568 0.144452
H21   H     H_    0.502801 0.086129 0.860430 0.144446
H22   H     H_    0.502744 0.913864 0.139571 0.144439
H23   H     H_    0.497200 0.913870 0.860430 0.144442
H24   H     H_    0.497258 0.086136 0.139569 0.144443
H25   H     H_    0.002141 0.584608 0.709986 0.143780
H26   H     H_    0.002094 0.415376 0.290017 0.143814
H27   H     H_    0.997860 0.415392 0.709986 0.143738
H28   H     H_    0.997904 0.584623 0.290013 0.143854
H29   H     H_    0.502745 0.084609 0.709985 0.143850
H30   H     H_    0.502691 0.915385 0.290017 0.143826
H31   H     H_    0.497255 0.915391 0.709985 0.143830
H32   H     H_    0.497308 0.084615 0.290014 0.143846
N1    N     N_R   1.000000 0.500000 0.701220 -0.175453
N2    N     N_R   1.000000 0.500000 0.298780 -0.175442
N3    N     N_R   0.500000 0.000000 0.701220 -0.175413
N4    N     N_R   0.500000 0.000000 0.298780 -0.175405
O1    O     O_R   0.054370 0.445630 0.567930 -0.574492
O2    O     O_R   0.945630 0.554370 0.432070 -0.577606
O3    O     O_R   0.945630 0.554370 0.567930 -0.574484
O4    O     O_R   0.054370 0.445630 0.432070 -0.577596
O5    O     O_R   0.945630 0.445630 0.432070 -0.574509
O6    O     O_R   0.054370 0.554370 0.567930 -0.577618
O7    O     O_R   0.054370 0.554370 0.432070 -0.574494
O8    O     O_R   0.945630 0.445630 0.567930 -0.577616
O9    O     O_R   0.554370 0.945630 0.567930 -0.574257
O10   O     O_R   0.445630 0.054370 0.432070 -0.577817
O11   O     O_R   0.445630 0.054370 0.567930 -0.574252
O12   O     O_R   0.554370 0.945630 0.432070 -0.577813
O13   O     O_R   0.445630 0.945630 0.432070 -0.574272
O14   O     O_R   0.554370 0.054370 0.567930 -0.577836
O15   O     O_R   0.554370 0.054370 0.432070 -0.574266
O16   O     O_R   0.445630 0.945630 0.567930 -0.577833
C89   C     C_1   0.171926 0.556290 0.586672 0.252303
N5    N     N_1   0.180190 0.516765 0.621126 -0.270279
C90   C     C_1   0.943544 0.326996 0.414530 0.239185
N6    N     N_1   0.983029 0.318123 0.380718 -0.296711
C91   C     C_1   0.828022 0.443763 0.586504 0.252232
N7    N     N_1   0.819735 0.483311 0.620889 -0.270309
C92   C     C_1   0.056505 0.672972 0.414413 0.239173
N8    N     N_1   0.017036 0.681840 0.380557 -0.296743
C93   C     C_1   0.827988 0.556199 0.413620 0.252194
N9    N     N_1   0.819687 0.516637 0.379287 -0.270345
C94   C     C_1   0.056373 0.326939 0.585237 0.239087
N10   N     N_1   0.016859 0.318050 0.618950 -0.296642
C95   C     C_1   0.172040 0.443819 0.413729 0.252137
N11   N     N_1   0.180355 0.483392 0.379437 -0.270363
C96   C     C_1   0.943583 0.673032 0.585348 0.239068
N12   N     N_1   0.983083 0.681913 0.619111 -0.296665
C97   C     C_1   0.671928 0.056301 0.586664 0.252184
N13   N     N_1   0.680190 0.016783 0.621129 -0.270243
C98   C     C_1   0.443533 0.827013 0.414498 0.239309
N14   N     N_1   0.483011 0.818152 0.380666 -0.296774
C99   C     C_1   0.328031 0.943747 0.586521 0.252104
N15   N     N_1   0.319745 0.983291 0.620910 -0.270273
C100  C     C_1   0.556490 0.172968 0.414424 0.239291
N16   N     N_1   0.517016 0.181828 0.380574 -0.296787
C101  C     C_1   0.328064 0.056287 0.413361 0.252174
N17   N     N_1   0.319800 0.016764 0.378907 -0.270247
C102  C     C_1   0.556473 0.827013 0.585502 0.239341
N18   N     N_1   0.516999 0.818153 0.619340 -0.296778
C103  C     C_1   0.671977 0.943759 0.413507 0.252105
N19   N     N_1   0.680265 0.983307 0.379133 -0.270284
C104  C     C_1   0.443504 0.172967 0.585578 0.239319
N20   N     N_1   0.482976 0.181826 0.619430 -0.296790

loop_
_geom_bond_atom_site_label_1
_geom_bond_atom_site_label_2
_ccdc_geom_bond_type
C28   H4    S    
C26   H2    S    
C102  N18   T    
C25   H1    S    
C99   N15   T    
C14   H30   S    
C40   C71   A    
C70   C78   S    
C9    H25   S    
C101  N17   T    
C27   H3    S    
C98   N14   T    
C76   C79   T    
C1    O4    A    
Cu4   O10   S    
C42   C58   A    
C71   C79   S    
C97   N13   T    
C67   C75   S    
Cu1   O1    S    
Cu1   N1    S    
C103  N19   T    
C39   H15   S    
C46   C94   S    
C84   H20   S    
C15   H31   S    
C5    O12   A    
C33   H9    S    
C82   H18   S    
C4    O6    A    
C11   N1    A    
C35   H11   S    
C52   C61   A    
C52   C100  S    
C12   N2    A    
C33   C49   A    
C66   C74   S    
C14   N4    A    
C6    O10   A    
C12   C84   A    
C3    O8    A    
C6    O11   A    
Cu4   O15   S    
C55   C103  S    
C43   C58   A    
C18   C82   A    
C47   C60   A    
Cu3   O9    S    
C69   C77   S    
C95   N11   T    
C12   H28   S    
C90   N6    T    
C35   C70   A    
C39   C55   A    
C74   C77   T    
C20   C86   A    
C4    C57   S    
C18   C84   A    
C92   N8    T    
C31   H7    S    
C75   C80   T    
C34   C70   A    
C87   H23   S    
C36   C52   A    
C33   C69   A    
C8    C61   S    
C40   H16   S    
Cu3   O14   S    
C37   C53   A    
C11   H27   S    
Cu1   O8    S    
C31   C47   A    
C21   C22   T    
C32   C48   A    
C96   N12   T    
C51   C62   A    
C32   C67   A    
C42   C90   S    
Cu4   N4    S    
C7    O16   A    
C89   N5    T    
C94   N10   T    
C31   C68   A    
C48   C96   S    
C38   C72   A    
C34   C50   A    
C44   C92   S    
C49   C61   A    
C56   C104  S    
C26   C66   A    
C20   C24   S    
C25   C65   A    
C14   C86   A    
C65   C73   S    
C25   C41   A    
C100  N16   T    
Cu2   O5    S    
C2    C59   S    
C40   C56   A    
C28   C44   A    
C9    N1    A    
C32   H8    S    
C5    C64   S    
C29   C45   A    
C17   C83   A    
Cu2   O2    S    
C6    C63   S    
C88   H24   S    
C19   C23   S    
C7    C62   S    
C37   H13   S    
C10   H26   S    
C13   H29   S    
C104  N20   T    
C38   C54   A    
C44   C57   A    
C73   C78   T    
C55   C64   A    
C2    O3    A    
Cu2   N2    S    
C56   C63   A    
C34   H10   S    
Cu4   O13   S    
C16   N4    A    
C39   C72   A    
Cu3   N3    S    
C4    O7    A    
Cu3   O11   S    
C81   H17   S    
C37   C71   A    
C35   C51   A    
C50   C62   A    
C83   H19   S    
C1    C60   S    
C45   C93   S    
Cu4   O12   S    
C7    O13   A    
C36   C69   A    
C26   C42   A    
C48   C59   A    
C15   C87   A    
Cu3   O16   S    
C47   C95   S    
C10   N2    A    
C45   C59   A    
Cu1   O6    S    
C46   C60   A    
C50   C98   S    
C18   C22   S    
C49   C97   S    
C54   C102  S    
C30   C46   A    
C15   N3    A    
C19   C85   A    
C43   C91   S    
C5    O9    A    
C53   C101  S    
C68   C76   S    
C30   H6    S    
C1    O1    A    
Cu1   O3    S    
C29   H5    S    
C86   H22   S    
C11   C83   A    
C85   H21   S    
C28   C65   A    
C16   H32   S    
C19   C87   A    
Cu2   O4    S    
C72   C80   S    
C27   C66   A    
C29   C67   A    
C91   N7    T    
Cu2   O7    S    
C53   C63   A    
C36   H12   S    
C54   C64   A    
C20   C88   A    
C2    O2    A    
C10   C82   A    
C8    O15   A    
C17   C81   A    
C17   C21   S    
C51   C99   S    
C23   C24   T    
C41   C57   A    
C13   N3    A    
C3    C58   S    
C27   C43   A    
C41   C89   S    
C13   C85   A    
C38   H14   S    
C16   C88   A    
C8    O14   A    
C3    O5    A    
C93   N9    T    
Cu1   Cu2   S    
C30   C68   A    
Cu3   Cu4   S    
C9    C81   A    
