data_mof_unit_49051.cif
_audit_creation_date              2012-12-10T16:44:14-0500
_audit_creation_method            fapswitch 2.2
_symmetry_space_group_name_H-M    P1
_symmetry_Int_Tables_number       1
_space_group_crystal_system       triclinic
_cell_length_a                    7.447405
_cell_length_b                    8.692842
_cell_length_c                    13.356173
_cell_angle_alpha                 94.231503
_cell_angle_beta                  77.498067
_cell_angle_gamma                 103.234906
_cell_volume                      821.476064527

loop_
_atom_site_label
_atom_site_type_symbol
_atom_type_description
_atom_site_fract_x
_atom_site_fract_y
_atom_site_fract_z
_atom_type_partial_charge
C1    C     C_R   0.545362 0.800195 0.503082 0.832684
C2    C     C_R   0.414144 0.521484 0.977918 -0.038624
C3    C     C_R   0.464949 0.561587 0.872946 0.010124
C4    C     C_R   0.556396 0.556133 0.037511 -0.042970
C5    C     C_R   0.730968 0.660525 0.999068 0.070670
C6    C     C_R   0.767665 0.718278 0.900473 -0.183435
C7    C     C_R   0.638217 0.667851 0.837707 -0.163240
C8    C     C_R   0.534513 0.486315 0.132400 0.618672
C9    C     C_R   0.830294 0.652135 0.159398 -0.185681
C10   C     C_R   0.337557 0.499068 0.807262 -0.098279
C11   C     C_2   0.570809 0.968177 0.504574 -0.328453
C12   C     C_R   0.399754 0.498087 0.694596 0.773576
C13   C     C_2   0.429149 0.031818 0.495532 -0.355434
C14   C     C_R   0.454607 0.199809 0.496982 0.892304
C15   C     C_R   0.601457 0.511492 0.305861 0.869067
C16   C     C_R   0.866881 0.706650 0.059976 -0.191347
C17   C     C_R   0.662635 0.543509 0.196298 -0.181262
C18   C     C_R   0.151348 0.425127 0.850059 -0.305310
C19   C     C_R   0.092664 0.410031 0.955528 -0.230000
C20   C     C_R   0.221263 0.457311 0.019560 0.692862
Cu1   Cu    Cu3+1 0.321300 0.483160 0.488710 1.076094
Cu2   Cu    Cu3+1 0.678700 0.516840 0.511290 1.038005
H1    H     H_    0.930423 0.697701 0.208122 0.212914
H2    H     H_    0.292719 0.960181 0.487010 0.182134
H3    H     H_    0.009455 0.615733 0.581091 0.161780
H4    H     H_    0.998990 0.788514 0.031749 0.168338
H5    H     H_    0.050180 0.379540 0.801930 0.190694
H6    H     H_    0.946017 0.360691 0.988027 0.183852
H7    H     H_    0.672640 0.719552 0.762954 0.155075
H8    H     H_    0.707236 0.039805 0.513106 0.200552
N1    N     N_2   0.947230 0.542220 0.528320 -0.155748
N2    N     N_2   0.052770 0.457780 0.471680 0.200697
O1    O     O_R   0.383920 0.714220 0.492660 -0.610496
O2    O     O_R   0.685730 0.742660 0.511730 -0.603098
O3    O     O_R   0.275440 0.478800 0.636790 -0.618925
O4    O     O_R   0.577250 0.507240 0.655860 -0.599599
O5    O     O_R   0.314270 0.257340 0.488270 -0.563233
O6    O     O_R   0.616080 0.285780 0.507340 -0.527861
O7    O     O_R   0.422750 0.492760 0.344140 -0.501476
O8    O     O_R   0.724560 0.521200 0.363210 -0.520271
F1    F     F_    0.976353 0.363192 0.401468 -0.468797
H9    H     H_    0.898724 0.800580 0.870930 0.139785
F2    F     F_    0.398189 0.354941 0.161010 -0.595831
F3    F     F_    0.150249 0.456614 0.122040 -0.600507

loop_
_geom_bond_atom_site_label_1
_geom_bond_atom_site_label_2
_ccdc_geom_bond_type
H3    N1    S    
C2    C4    A    
N2    F1    S    
C6    C7    A    
C7    H7    S    
C12   O4    A    
Cu2   O4    S    
C8    C17   A    
Cu1   O7    S    
C8    F2    S    
C4    C8    A    
Cu2   O8    S    
C2    C3    A    
C1    O1    A    
C3    C10   A    
C13   C14   S    
C14   O5    A    
C19   H6    S    
C11   C13   D    
C15   O7    A    
C10   C12   S    
C10   C18   A    
Cu1   O3    S    
C9    C17   A    
C20   F3    S    
C9    C16   A    
C1    O2    A    
C3    C7    A    
C16   H4    S    
C5    C6    A    
Cu2   O2    S    
Cu1   N2    S    
C15   O8    A    
Cu1   O1    S    
Cu2   N1    S    
C2    C20   A    
C14   O6    A    
Cu2   O6    S    
Cu1   O5    S    
C11   H8    S    
C18   C19   A    
C6    H9    S    
C15   C17   S    
C9    H1    S    
C5    C16   A    
Cu1   Cu2   S    
N1    N2    D    
C18   H5    S    
C19   C20   A    
C13   H2    S    
C4    C5    A    
C12   O3    A    
C1    C11   S    
