data_mof_unit_48904.cif
_audit_creation_date              2013-03-05T15:52:18-0500
_audit_creation_method            fapswitch 2.2
_symmetry_space_group_name_H-M    P1
_symmetry_Int_Tables_number       1
_space_group_crystal_system       triclinic
_cell_length_a                    14.816753
_cell_length_b                    15.249577
_cell_length_c                    9.982936
_cell_angle_alpha                 91.724026
_cell_angle_beta                  90.269426
_cell_angle_gamma                 90.264623
_cell_volume                      2254.56501325

loop_
_atom_site_label
_atom_site_type_symbol
_atom_site_description
_atom_site_fract_x
_atom_site_fract_y
_atom_site_fract_z
_atom_type_partial_charge
O1    O     O_R   0.408390 0.908380 0.614690 -0.626382
O2    O     O_R   0.408390 0.091620 0.614690 -0.628263
O3    O     O_R   0.908390 0.408380 0.614690 -0.626453
O4    O     O_R   0.908390 0.591620 0.614690 -0.628245
O5    O     O_R   0.408370 0.908380 0.385360 -0.615104
O6    O     O_R   0.408370 0.091620 0.385360 -0.623039
O7    O     O_R   0.908370 0.408380 0.385360 -0.615049
O8    O     O_R   0.908370 0.591620 0.385360 -0.623003
C1    C     C_R   0.380975 0.879881 0.498632 0.854693
C2    C     C_R   0.383822 0.122697 0.500769 0.840347
C3    C     C_R   0.880985 0.379870 0.498635 0.854696
C4    C     C_R   0.883807 0.622685 0.500771 0.840272
Zn1   Zn    Zn3+2 0.500010 0.000000 0.653130 0.940601
Zn2   Zn    Zn3+2 0.000010 0.500000 0.653130 0.940587
Zn3   Zn    Zn3+2 0.499980 1.000000 0.346870 0.934469
Zn4   Zn    Zn3+2 0.999980 0.500000 0.346870 0.934504
O9    O     O_R   0.591620 0.091610 0.614640 -0.606738
O10   O     O_R   0.591620 0.908390 0.614640 -0.620639
O11   O     O_R   0.091620 0.591610 0.614640 -0.606697
O12   O     O_R   0.091620 0.408390 0.614640 -0.620694
O13   O     O_R   0.591610 0.091610 0.385310 -0.625273
O14   O     O_R   0.591610 0.908390 0.385310 -0.620071
O15   O     O_R   0.091610 0.591610 0.385310 -0.625247
O16   O     O_R   0.091610 0.408390 0.385310 -0.620085
C5    C     C_R   0.619998 0.119184 0.501641 0.837780
C6    C     C_R   0.622781 0.883410 0.499022 0.834350
C7    C     C_R   0.119986 0.619198 0.501645 0.837789
C8    C     C_R   0.122791 0.383419 0.499018 0.834405
H1    H     H_    0.237999 0.131341 0.643795 0.138172
H2    H     H_    0.207639 0.900240 0.466423 0.131073
H3    H     H_    0.737837 0.631175 0.643509 0.138084
H4    H     H_    0.707701 0.400125 0.465578 0.131153
C9    C     C_R   0.417205 0.277697 0.341925 -0.194897
C10   C     C_R   0.437613 0.701087 0.533274 -0.173766
C11   C     C_R   0.917310 0.777808 0.342287 -0.194888
C12   C     C_R   0.937562 0.201166 0.534379 -0.173700
H5    H     H_    0.471465 0.230852 0.342826 0.161875
H6    H     H_    0.490436 0.749311 0.523034 0.129661
H7    H     H_    0.971556 0.730944 0.343176 0.161805
H8    H     H_    0.990396 0.249390 0.524252 0.129713
C13   C     C_R   0.429084 0.350766 0.263332 -0.144314
C14   C     C_R   0.462171 0.615015 0.559543 -0.151786
C15   C     C_R   0.929270 0.850964 0.263897 -0.144238
C16   C     C_R   0.962078 0.115148 0.561084 -0.151682
H9    H     H_    0.490161 0.357910 0.205500 0.139690
H10   H     H_    0.532698 0.598144 0.570309 0.131501
H11   H     H_    0.990399 0.858162 0.206199 0.139671
H12   H     H_    0.032582 0.098319 0.572292 0.131380
C17   C     C_R   0.863322 0.915306 0.261205 -0.128983
C18   C     C_R   0.895751 0.050992 0.573931 -0.117804
C19   C     C_R   0.363125 0.415094 0.260612 -0.129078
C20   C     C_R   0.395858 0.550862 0.572545 -0.117806
H13   H     H_    0.873179 0.972699 0.201637 0.139808
H14   H     H_    0.914658 0.984364 0.595534 0.144397
H15   H     H_    0.372922 0.472424 0.200891 0.139833
H16   H     H_    0.414799 0.484195 0.593840 0.144506
C21   C     C_R   0.785254 0.906744 0.336994 -0.201139
C22   C     C_R   0.804938 0.072445 0.557971 -0.195324
C23   C     C_R   0.285130 0.406606 0.336581 -0.201187
C24   C     C_R   0.305014 0.572368 0.557127 -0.195303
H17   H     H_    0.737884 0.960203 0.334746 0.155545
H18   H     H_    0.755228 0.021154 0.569382 0.130114
H19   H     H_    0.237772 0.460070 0.334313 0.155662
H20   H     H_    0.255311 0.521085 0.568671 0.129962
C25   C     C_R   0.771423 0.832496 0.416581 0.091639
C26   C     C_R   0.779382 0.158906 0.528164 0.085532
C27   C     C_R   0.271375 0.332443 0.416377 0.091635
C28   C     C_R   0.279411 0.658875 0.527701 0.085590
C29   C     C_R   0.338014 0.267315 0.418934 0.100299
C30   C     C_R   0.345888 0.723971 0.518998 0.100141
C31   C     C_R   0.838053 0.767361 0.419124 0.100288
C32   C     C_R   0.845868 0.223999 0.519538 0.100154
C33   C     C_R   0.323777 0.194654 0.501348 -0.089277
C34   C     C_R   0.318097 0.810441 0.495952 -0.081680
C35   C     C_R   0.823743 0.694626 0.501360 -0.089180
C36   C     C_R   0.818119 0.310416 0.495975 -0.081707
C37   C     C_R   0.248771 0.187969 0.583083 -0.222803
C38   C     C_R   0.228004 0.832903 0.479843 -0.229595
C39   C     C_R   0.748658 0.687859 0.582926 -0.222883
C40   C     C_R   0.728057 0.332825 0.479342 -0.229697
H21   H     H_    0.626732 0.745518 0.647155 0.157981
H22   H     H_    0.593322 0.286122 0.469501 0.134188
H23   H     H_    0.126923 0.245684 0.647468 0.157934
H24   H     H_    0.093239 0.786230 0.470423 0.134221
C41   C     C_R   0.684966 0.751991 0.582866 -0.219893
C42   C     C_R   0.663425 0.268639 0.482756 -0.201696
C43   C     C_R   0.185086 0.252101 0.583031 -0.219877
C44   C     C_R   0.163369 0.768714 0.483283 -0.201798
C45   C     C_R   0.694388 0.822067 0.497739 -0.102214
C46   C     C_R   0.689025 0.182815 0.505758 -0.076819
C47   C     C_R   0.194417 0.322093 0.497727 -0.102257
C48   C     C_R   0.189013 0.682834 0.505781 -0.076778
H25   H     H_    0.637127 0.967510 0.123742 0.144863
H26   H     H_    0.137115 0.467464 0.123735 0.144806
C49   C     C_R   0.335964 0.039228 0.133356 0.246687
C50   C     C_R   0.835978 0.539283 0.133346 0.246738
C51   C     C_R   0.274207 0.090338 0.063601 -0.174707
C52   C     C_R   0.774233 0.590403 0.063584 -0.174787
H27   H     H_    0.213978 0.114656 0.113288 0.155756
H28   H     H_    0.714010 0.614739 0.113268 0.155769
C53   C     C_R   0.272211 0.082204 0.925228 -0.248287
C54   C     C_R   0.772238 0.582264 0.925210 -0.248209
H29   H     H_    0.213124 0.103089 0.870931 0.152794
H30   H     H_    0.713162 0.603167 0.870903 0.152892
C55   C     C_R   0.341237 0.037499 0.859442 -0.135793
C56   C     C_R   0.841249 0.537532 0.859437 -0.135730
H31   H     H_    0.329238 0.015911 0.758115 0.196318
H32   H     H_    0.829240 0.515925 0.758120 0.196323
C57   C     C_R   0.421643 0.018707 0.927329 0.136091
C58   C     C_R   0.921649 0.518728 0.927326 0.136049
C59   C     C_R   0.420572 0.018913 0.071211 0.126133
C60   C     C_R   0.920580 0.518942 0.071208 0.126158
N1    N     N_R   0.498810 0.000000 0.142780 -0.115084
N2    N     N_R   0.998810 0.500000 0.142780 -0.115067
C61   C     C_R   0.575298 0.981994 0.071041 -0.114239
C62   C     C_R   0.075291 0.481968 0.071039 -0.114234
H33   H     H_    0.637125 0.967633 0.875274 0.149252
H34   H     H_    0.137114 0.467590 0.875272 0.149270
C63   C     C_R   0.575254 0.982041 0.928476 -0.105718
C64   C     C_R   0.075248 0.482018 0.928475 -0.105736
N3    N     N_R   0.498740 0.000000 0.857170 -0.114873
N4    N     N_R   0.998740 0.500000 0.857170 -0.114873
C65   C     C_3   0.287628 0.972555 0.215046 -0.806342
H35   H     H_    0.216218 0.962987 0.182233 0.195835
H36   H     H_    0.317685 0.906709 0.198234 0.252140
H37   H     H_    0.283730 0.994988 0.321078 0.242831
C66   C     C_3   0.787634 0.472629 0.215052 -0.806549
H38   H     H_    0.716218 0.463079 0.182260 0.195844
H39   H     H_    0.817673 0.406774 0.198243 0.252180
H40   H     H_    0.783761 0.495071 0.321077 0.242833

loop_
_geom_bond_atom_site_label_1
_geom_bond_atom_site_label_2
_geom_bond_distance
_ccdc_geom_bond_type
C22   H18   1.080794 S    
H23   C43   1.083632 S    
Zn2   N4    2.037094 S    
C43   C47   1.392111 A    
O10   C6    1.292540 A    
C32   C36   1.408454 A    
C60   N2    1.394705 A    
C65   H35   1.113784 S    
C26   C46   1.407811 A    
C6    C45   1.417569 S    
C25   C45   1.413960 A    
C55   H31   1.068148 S    
C5    C46   1.406188 S    
C18   H14   1.082865 S    
C35   C39   1.387044 A    
O13   C5    1.291046 A    
Zn1   O10   1.982888 S    
C3    C36   1.406805 S    
H33   C63   1.081736 S    
C14   H10   1.082965 S    
C2    C33   1.415758 S    
C28   C48   1.407815 A    
C65   H36   1.108816 S    
C16   C18   1.392574 A    
C17   C21   1.392929 A    
H25   C61   1.081280 S    
C21   H17   1.078857 S    
O2    Zn1   1.996761 S    
C33   C37   1.386986 A    
C40   C42   1.367463 A    
C20   C24   1.395771 A    
C23   C27   1.417316 A    
O6    Zn3   1.982995 S    
C22   C26   1.413324 A    
Zn3   O14   1.996754 S    
C26   C32   1.400051 A    
C12   C32   1.412291 A    
C44   C48   1.389765 A    
C10   C14   1.395785 A    
C50   C52   1.401058 A    
C30   C34   1.408425 A    
Zn3   N1    2.037410 S    
C29   C33   1.415440 A    
O15   C7    1.291090 A    
O4    C4    1.296346 A    
O11   C7    1.287414 A    
C10   C30   1.412328 A    
C9    C29   1.416665 A    
C11   C31   1.416656 A    
O8    Zn4   1.982995 S    
C51   H27   1.084476 S    
C64   N4    1.368939 A    
O7    C3    1.290220 A    
H34   C64   1.081737 S    
C63   N3    1.368942 A    
C53   C55   1.388477 A    
C38   C44   1.367534 A    
C18   C22   1.395745 A    
Zn2   O12   1.982888 S    
C12   H8    1.078771 S    
O1    C1    1.288360 A    
C42   C46   1.389733 A    
H26   C62   1.081260 S    
C15   C17   1.388690 A    
C65   H37   1.104435 S    
O12   C8    1.292588 A    
C25   C31   1.404375 A    
C9    H5    1.078138 S    
C62   C64   1.423227 A    
C50   C66   1.503404 S    
C27   C29   1.404383 A    
H24   C44   1.082104 S    
C11   H7    1.078163 S    
C66   H39   1.108813 S    
O5    C1    1.290174 A    
C52   C54   1.383377 A    
H4    C40   1.083553 S    
Zn1   N3    2.037094 S    
O8    C4    1.287244 A    
C51   C53   1.383371 A    
C27   C47   1.414002 A    
H1    C37   1.081507 S    
C7    C48   1.406235 S    
C59   N1    1.394690 A    
C54   H30   1.081769 S    
C37   C43   1.362135 A    
O3    Zn2   1.971674 S    
C28   C30   1.400036 A    
O7    Zn4   1.990438 S    
Zn4   O15   1.971666 S    
C52   H28   1.084476 S    
C34   C38   1.389481 A    
C12   C16   1.395790 A    
O1    Zn1   1.971674 S    
C1    C34   1.406762 S    
C66   H38   1.113782 S    
O2    C2    1.296380 A    
C39   C41   1.362203 A    
C11   C15   1.392969 A    
O16   C8    1.292172 A    
C56   C58   1.402834 A    
C49   C65   1.503454 S    
C55   C57   1.402838 A    
C41   C45   1.392142 A    
C10   H6    1.078801 S    
Zn2   O11   1.990329 S    
C36   C40   1.389455 A    
C21   C25   1.417308 A    
Zn4   N2    2.037410 S    
O6    C2    1.287220 A    
N2    C62   1.367969 A    
C49   C51   1.401042 A    
H3    C39   1.081559 S    
C23   H19   1.078821 S    
C53   H29   1.081764 S    
Zn1   O9    1.990329 S    
C24   H20   1.080789 S    
C9    C13   1.392927 A    
C57   C59   1.436440 A    
C66   H40   1.104394 S    
O9    C5    1.287435 A    
H22   C42   1.082072 S    
C58   N4    1.369408 A    
C31   C35   1.415432 A    
C57   N3    1.369438 A    
C56   H32   1.068151 S    
C17   H13   1.082544 S    
C61   C63   1.423234 A    
C50   C60   1.432373 A    
C54   C56   1.388461 A    
C8    C47   1.417616 S    
C19   H15   1.082532 S    
O4    Zn2   1.996761 S    
C58   C60   1.436426 A    
O5    Zn3   1.990438 S    
O3    C3    1.288338 A    
H2    C38   1.083604 S    
C20   H16   1.082861 S    
Zn3   O13   1.971666 S    
C19   C23   1.392898 A    
C24   C28   1.413285 A    
Zn4   O16   1.996754 S    
O14   C6    1.292191 A    
C4    C35   1.415742 S    
C13   H9    1.082564 S    
C49   C59   1.432403 A    
C15   H11   1.082575 S    
C13   C19   1.388653 A    
H21   C41   1.083676 S    
C16   H12   1.082950 S    
C14   C20   1.392583 A    
N1    C61   1.367968 A    
