data_mof_unit_10445.cif
_audit_creation_date              2012-12-10T20:30:11-0500
_audit_creation_method            fapswitch 2.2
_symmetry_space_group_name_H-M    P1
_symmetry_Int_Tables_number       1
_space_group_crystal_system       triclinic
_cell_length_a                    9.85664
_cell_length_b                    10.68235
_cell_length_c                    12.974941
_cell_angle_alpha                 90.113807
_cell_angle_beta                  71.548548
_cell_angle_gamma                 89.772734
_cell_volume                      1295.90950318

loop_
_atom_site_label
_atom_site_type_symbol
_atom_type_description
_atom_site_fract_x
_atom_site_fract_y
_atom_site_fract_z
_atom_type_partial_charge
C1    C     C_R   0.501215 0.740145 0.496679 0.894044
C2    C     C_R   0.446560 0.386583 0.975353 0.086046
C3    C     C_R   0.486525 0.391267 0.861226 0.087440
C4    C     C_R   0.555043 0.405781 0.024093 0.082967
C5    C     C_R   0.699964 0.412497 0.958196 0.139651
C6    C     C_R   0.737221 0.378524 0.849118 -0.269220
C7    C     C_R   0.630656 0.365360 0.801126 -0.204506
C8    C     C_R   0.522201 0.432727 0.134116 -0.247137
C9    C     C_R   0.765732 0.503558 0.107820 -0.013551
C10   C     C_R   0.382018 0.426891 0.812443 -0.143996
C11   C     C_R   0.386150 0.936839 0.478117 0.143652
C12   C     C_R   0.423858 0.478672 0.701563 0.885543
C13   C     C_R   0.508221 0.871502 0.478954 -0.113612
C14   C     C_R   0.638655 0.934661 0.458564 -0.227061
C15   C     C_R   0.639037 0.064162 0.458252 -0.222572
C16   C     C_R   0.509014 0.128650 0.478219 -0.098020
C17   C     C_R   0.386614 0.064595 0.477539 0.130785
C18   C     C_3   0.237359 0.073312 0.554173 -0.478117
C19   C     C_3   0.237166 0.931551 0.555333 -0.491159
C20   C     C_R   0.910871 0.599439 0.541919 0.212409
C21   C     C_R   0.949661 0.407984 0.448982 -0.141878
C22   C     C_R   0.093808 0.408156 0.448718 -0.134261
C23   C     C_R   0.501834 0.259941 0.496174 0.866510
C24   C     C_R   0.052854 0.598491 0.543306 0.217865
C25   C     C_3   0.008477 0.642320 0.658508 -0.511309
C26   C     C_3   0.855903 0.647467 0.655487 -0.498832
C27   C     C_R   0.578436 0.500439 0.295003 0.849975
C28   C     C_R   0.803769 0.460581 0.000086 -0.191009
C29   C     C_R   0.624866 0.481111 0.177033 -0.158106
C30   C     C_R   0.236859 0.416262 0.872724 -0.178814
C31   C     C_R   0.196890 0.382017 0.981668 -0.062720
C32   C     C_R   0.299655 0.373402 0.034445 -0.177856
H1    H     H_    0.738164 0.112655 0.450245 0.164112
H2    H     H_    0.231884 0.115768 0.633761 0.205956
H3    H     H_    0.162030 0.113896 0.514943 0.198875
H4    H     H_    0.232791 0.891925 0.635503 0.203708
H5    H     H_    0.161191 0.890227 0.517242 0.204059
H6    H     H_    0.912061 0.332510 0.409555 0.143804
H7    H     H_    0.165058 0.332959 0.408856 0.142761
H8    H     H_    0.025392 0.569910 0.714757 0.209934
H9    H     H_    0.051316 0.735948 0.667616 0.204158
H10   H     H_    0.783369 0.581206 0.712054 0.236748
H11   H     H_    0.848348 0.371610 0.799119 0.145959
H12   H     H_    0.813330 0.744444 0.658892 0.203470
H13   H     H_    0.911651 0.473677 0.946065 0.160335
H14   H     H_    0.414383 0.421366 0.187298 0.166666
H15   H     H_    0.154659 0.434322 0.835637 0.142679
H16   H     H_    0.261539 0.354863 0.120515 0.124133
H17   H     H_    0.085222 0.368735 0.027039 0.161331
H18   H     H_    0.663294 0.339594 0.716180 0.187525
H19   H     H_    0.737652 0.885215 0.450639 0.169739
N1    N     N_R   0.856940 0.500860 0.500710 -0.108570
N2    N     N_R   0.142580 0.500820 0.500710 -0.103910
O1    O     O_R   0.385310 0.683210 0.499990 -0.606064
O2    O     O_R   0.614650 0.683240 0.500000 -0.618554
O3    O     O_R   0.328390 0.499940 0.653610 -0.611382
O4    O     O_R   0.557730 0.499980 0.653620 -0.618242
O5    O     O_R   0.385350 0.316760 0.500000 -0.622837
O6    O     O_R   0.614690 0.316790 0.500010 -0.636663
O7    O     O_R   0.442270 0.500020 0.346380 -0.603881
O8    O     O_R   0.671610 0.500060 0.346390 -0.629046
Zn1   Zn    Zn3+2 0.346870 0.499980 0.499990 0.941084
Zn2   Zn    Zn3+2 0.653130 0.500020 0.500010 0.926834
C33   C     C_2   0.869033 0.580747 0.142635 0.373958
H20   H     H_    0.836787 0.629394 0.219896 0.096953
O9    O     O_2   0.991046 0.596543 0.082694 -0.588783

loop_
_geom_bond_atom_site_label_1
_geom_bond_atom_site_label_2
_ccdc_geom_bond_type
O5    Zn1   S    
C23   O5    A    
C2    C4    A    
C1    O1    A    
C11   C17   A    
C6    C7    A    
C27   C29   S    
C5    C28   A    
C11   C13   A    
C18   H3    S    
C10   C30   A    
O6    Zn2   S    
C31   C32   A    
C9    C29   A    
C19   H4    S    
C6    H11   S    
C33   H20   S    
C17   C18   S    
C1    O2    A    
C26   H12   S    
C20   N1    A    
C3    C10   A    
C21   C22   A    
C24   C25   S    
C23   O6    A    
C32   H16   S    
C30   C31   A    
C11   C19   S    
C12   O3    A    
C10   C12   S    
C31   H17   S    
C8    C29   A    
C2    C32   A    
O4    Zn2   S    
C22   N2    A    
C2    C3    A    
C27   O7    A    
C18   H2    S    
C25   H8    S    
C5    C6    A    
O3    Zn1   S    
C28   H13   S    
C1    C13   S    
C12   O4    A    
C15   C16   A    
C9    C33   S    
C16   C17   A    
C20   C24   A    
C30   H15   S    
C16   C23   S    
C26   H10   S    
O7    Zn1   S    
C18   C19   S    
N2    Zn1   S    
C25   H9    S    
C4    C8    A    
O8    Zn2   S    
C24   N2    A    
C14   C15   A    
O1    Zn1   S    
C33   O9    D    
C19   H5    S    
C3    C7    A    
C25   C26   S    
C13   C14   A    
C22   H7    S    
C9    C28   A    
C15   H1    S    
C21   N1    A    
C8    H14   S    
C21   H6    S    
C14   H19   S    
C7    H18   S    
O2    Zn2   S    
C4    C5    A    
C20   C26   S    
N1    Zn2   S    
C27   O8    A    
