data_mof_unit_61738.cif
_audit_creation_date              2012-12-10T21:24:29-0500
_audit_creation_method            fapswitch 2.2
_symmetry_space_group_name_H-M    P1
_symmetry_Int_Tables_number       1
_space_group_crystal_system       triclinic
_cell_length_a                    16.782675
_cell_length_b                    16.931479
_cell_length_c                    17.562286
_cell_angle_alpha                 88.601882
_cell_angle_beta                  89.419772
_cell_angle_gamma                 95.384071
_cell_volume                      4966.53740315

loop_
_atom_site_label
_atom_site_type_symbol
_atom_type_description
_atom_site_fract_x
_atom_site_fract_y
_atom_site_fract_z
_atom_type_partial_charge
C1    C     C_R   0.499593 0.499246 0.646829 0.882444
C2    C     C_R   0.425827 0.488839 0.848933 -0.141998
C3    C     C_R   0.498046 0.477854 0.114346 0.148386
C4    C     C_R   0.496573 0.476984 0.886699 0.147800
C5    C     C_1   0.497329 0.473840 0.034399 -0.045733
C6    C     C_1   0.496695 0.473561 0.966851 -0.045822
C7    C     C_R   0.160844 0.449653 0.547106 0.488959
C8    C     C_R   0.839111 0.550132 0.452628 0.488876
C9    C     C_R   0.244794 0.449353 0.547321 0.172476
C10   C     C_R   0.755156 0.550375 0.452392 0.172660
C11   C     C_R   0.257996 0.551210 0.452049 -0.184405
C12   C     C_R   0.500286 0.499453 0.353194 0.883573
C13   C     C_R   0.742047 0.449110 0.548250 -0.184414
C14   C     C_R   0.173932 0.553034 0.450401 0.529881
C15   C     C_R   0.826116 0.447352 0.549928 0.529905
C16   C     C_R   0.489105 0.346583 0.502163 0.889979
C17   C     C_R   0.510898 0.653414 0.497695 0.891300
C18   C     C_R   0.124307 0.501626 0.498540 -0.212670
C19   C     C_R   0.875698 0.498493 0.501508 -0.212532
C20   C     C_1   0.036554 0.501006 0.499160 0.214964
C21   C     C_1   0.963454 0.499158 0.500903 0.214961
C22   C     C_R   0.481921 0.260750 0.506688 -0.043813
C23   C     C_R   0.427710 0.494737 0.231534 -0.185890
C24   C     C_R   0.518124 0.739211 0.492046 -0.045024
C25   C     C_R   0.549382 0.221958 0.525389 -0.214795
C26   C     C_R   0.450738 0.777772 0.472555 -0.214342
C27   C     C_R   0.544846 0.140204 0.526465 -0.143265
C28   C     C_R   0.455459 0.859541 0.469893 -0.142811
C29   C     C_R   0.472635 0.096176 0.507854 0.319287
C30   C     C_R   0.527763 0.903824 0.487751 0.318919
C31   C     C_R   0.404299 0.134751 0.493105 -0.170385
C32   C     C_R   0.596039 0.865402 0.503195 -0.169864
C33   C     C_R   0.408768 0.217053 0.492239 -0.184478
C34   C     C_R   0.569474 0.481600 0.768250 -0.185655
C35   C     C_R   0.591395 0.783088 0.505620 -0.184276
C36   C     C_R   0.426796 0.486585 0.153261 -0.145254
C37   C     C_R   0.568318 0.473379 0.846930 -0.144285
C38   C     C_R   0.500133 0.494197 0.270776 -0.050867
C39   C     C_R   0.498652 0.493495 0.729478 -0.051762
C40   C     C_R   0.571582 0.485586 0.230924 -0.166750
C41   C     C_R   0.426755 0.497087 0.770169 -0.164540
C42   C     C_R   0.570438 0.477486 0.152541 -0.145565
F1    F     F_    0.141533 0.604650 0.402112 -0.614175
F2    F     F_    0.858564 0.396062 0.598521 -0.614636
F3    F     F_    0.114867 0.399086 0.594386 -0.598406
F4    F     F_    0.885042 0.600428 0.405063 -0.598236
H1    H     H_    0.394104 0.744850 0.459931 0.173931
H2    H     H_    0.644265 0.753969 0.519832 0.180815
H3    H     H_    0.370870 0.487629 0.123074 0.148185
H4    H     H_    0.623236 0.464910 0.876738 0.148759
H5    H     H_    0.371881 0.501265 0.261172 0.169618
H6    H     H_    0.625544 0.478282 0.737931 0.169170
H7    H     H_    0.627995 0.484638 0.260178 0.179523
H8    H     H_    0.371556 0.506409 0.741325 0.178846
H9    H     H_    0.625739 0.471413 0.121752 0.149204
H10   H     H_    0.370421 0.492448 0.880354 0.149315
H11   H     H_    0.605942 0.254707 0.538591 0.173823
H12   H     H_    0.295521 0.591007 0.414740 0.184547
H13   H     H_    0.704552 0.409528 0.585783 0.183393
H14   H     H_    0.402272 0.887942 0.455290 0.161370
H15   H     H_    0.598061 0.111642 0.540615 0.161233
H16   H     H_    0.348320 0.100977 0.479917 0.155908
H17   H     H_    0.652068 0.899349 0.515885 0.155872
H18   H     H_    0.355863 0.246339 0.478535 0.180759
I1    I     I_    0.291315 0.367040 0.623978 -0.222691
I2    I     I_    0.708515 0.632152 0.375248 -0.221077
N1    N     N_2   0.467107 0.013212 0.502058 -0.195790
N2    N     N_2   0.533252 0.986846 0.492958 -0.195939
N3    N     N_R   0.292770 0.500020 0.499970 -0.167598
N4    N     N_R   0.707230 0.499980 0.500030 -0.167484
O1    O     O_R   0.433430 0.500000 0.610870 -0.596750
O2    O     O_R   0.566570 0.500000 0.389130 -0.597075
O3    O     O_R   0.566520 0.499990 0.610900 -0.623573
O4    O     O_R   0.433480 0.500010 0.389100 -0.623967
O5    O     O_R   0.426030 0.383870 0.500690 -0.598008
O6    O     O_R   0.573970 0.616130 0.499310 -0.597389
O7    O     O_R   0.559120 0.383870 0.500710 -0.623558
O8    O     O_R   0.440880 0.616130 0.499290 -0.622847
Zn1   Zn    Zn3+2 0.411140 0.500000 0.499980 0.980872
Zn2   Zn    Zn3+2 0.588860 0.500000 0.500020 0.980884

loop_
_geom_bond_atom_site_label_1
_geom_bond_atom_site_label_2
_ccdc_geom_bond_type
C38   C40   A    
C3    C42   A    
C12   O4    A    
C27   C29   A    
C34   C37   A    
C14   C18   A    
O1    Zn1   S    
C24   C35   A    
C39   C41   A    
C15   C19   A    
C1    O1    A    
C10   I2    S    
C7    F3    S    
C19   C21   S    
C9    N3    A    
C15   F2    S    
C5    C6    T    
C11   C14   A    
C13   N4    A    
C2    C41   A    
C16   O5    A    
C16   O7    A    
C27   H15   S    
C29   N1    S    
C22   C25   A    
C17   O6    A    
C31   C33   A    
C11   H12   S    
C40   C42   A    
C12   O2    A    
C31   H16   S    
C25   H11   S    
C35   H2    S    
C8    F4    S    
C28   H14   S    
C8    C19   A    
N4    Zn2   S    
N1    N2    D    
C17   C24   S    
C32   C35   A    
C4    C6    S    
O8    Zn1   S    
C34   C39   A    
C2    C4    A    
C42   H9    S    
C23   H5    S    
C7    C18   A    
C20   C21   T    
C26   H1    S    
C10   N4    A    
C8    C10   A    
C23   C36   A    
O4    Zn1   S    
C13   C15   A    
N3    Zn1   S    
O7    Zn2   S    
C7    C9    A    
C22   C33   A    
C16   C22   S    
C34   H6    S    
O6    Zn2   S    
C32   H17   S    
C24   C26   A    
C3    C5    S    
C11   N3    A    
C13   H13   S    
C25   C27   A    
C23   C38   A    
C26   C28   A    
C1    O3    A    
C28   C30   A    
C29   C31   A    
C2    H10   S    
C30   C32   A    
C37   H4    S    
C3    C36   A    
C33   H18   S    
C17   O8    A    
O3    Zn2   S    
C18   C20   S    
C12   C38   S    
C9    I1    S    
C41   H8    S    
C1    C39   S    
C4    C37   A    
O2    Zn2   S    
C40   H7    S    
O5    Zn1   S    
C30   N2    S    
C36   H3    S    
C14   F1    S    
