data_mof_unit_12534.cif
_audit_creation_date              2012-12-10T19:03:38-0500
_audit_creation_method            fapswitch 2.2
_symmetry_space_group_name_H-M    P1
_symmetry_Int_Tables_number       1
_space_group_crystal_system       triclinic
_cell_length_a                    15.871622
_cell_length_b                    10.89121
_cell_length_c                    9.63532
_cell_angle_alpha                 89.653651
_cell_angle_beta                  88.876323
_cell_angle_gamma                 92.277234
_cell_volume                      1663.8984384

loop_
_atom_site_label
_atom_site_type_symbol
_atom_type_description
_atom_site_fract_x
_atom_site_fract_y
_atom_site_fract_z
_atom_type_partial_charge
C1    C     C_R   0.501008 0.263287 0.500207 0.792933
C2    C     C_3   0.947916 0.452020 0.631083 -0.367059
C3    C     C_3   0.916839 0.508158 0.493764 0.177363
C4    C     C_3   0.953562 0.643822 0.479407 -0.258918
C5    C     C_3   0.053470 0.648715 0.495057 0.060484
C6    C     C_1   0.824335 0.504880 0.494578 -0.064066
C7    C     C_1   0.175733 0.506271 0.500432 -0.027637
C8    C     C_1   0.251073 0.503090 0.502476 -0.107355
C9    C     C_R   0.510612 0.061963 0.618047 0.070187
C10   C     C_R   0.504596 0.131329 0.498243 -0.129743
C11   C     C_R   0.505756 0.068716 0.371119 -0.170813
C12   C     C_R   0.340510 0.500260 0.501090 0.843321
C13   C     C_R   0.509026 0.940072 0.366073 -0.027213
C14   C     C_R   0.509540 0.871092 0.493262 -0.170763
C15   C     C_R   0.513137 0.938109 0.615725 -0.037837
C16   C     C_3   0.519396 0.926666 0.769970 -0.131887
C17   C     C_3   0.516978 0.069478 0.772424 -0.148708
C18   C     C_R   0.558059 0.570103 0.070491 0.226510
C19   C     C_R   0.442153 0.430343 0.078361 0.065319
C20   C     C_R   0.439782 0.432641 0.929494 0.103850
C21   C     C_R   0.557191 0.571784 0.923834 0.258833
C22   C     C_3   0.650701 0.564769 0.911769 -0.505931
C23   C     C_R   0.503723 0.737393 0.498576 0.784960
C24   C     C_3   0.652451 0.559621 0.068946 -0.255961
C25   C     C_R   0.659431 0.500383 0.498791 0.815090
C26   C     C_3   0.044606 0.442914 0.626544 -0.439413
C27   C     C_3   0.049973 0.439050 0.364425 -0.188486
C28   C     C_3   0.950881 0.434132 0.366660 -0.183419
C29   C     C_1   0.748867 0.502414 0.496152 -0.181102
C30   C     C_3   0.083340 0.510195 0.495431 0.126820
Cu1   Cu    Cu3+1 0.500000 0.499980 0.640670 0.932701
Cu2   Cu    Cu3+1 0.500000 0.500020 0.359330 0.984916
H1    H     H_    0.917821 0.359815 0.651499 0.223202
H2    H     H_    0.071048 0.482437 0.723135 0.167993
H3    H     H_    0.929291 0.509588 0.720561 0.136563
H4    H     H_    0.939071 0.672787 0.371639 0.166726
H5    H     H_    0.506983 0.119779 0.274449 0.189139
H6    H     H_    0.462430 0.879438 0.817620 0.178022
H7    H     H_    0.457435 0.100355 0.820927 0.147865
H8    H     H_    0.060842 0.344714 0.627935 0.188476
H9    H     H_    0.670425 0.479448 0.860055 0.216204
H10   H     H_    0.681668 0.649748 0.867693 0.199856
H11   H     H_    0.685363 0.641190 0.115051 0.142556
H12   H     H_    0.071032 0.491702 0.270344 0.146891
H13   H     H_    0.931521 0.482927 0.271095 0.066829
N1    N     N_R   0.500530 0.500930 0.147930 -0.221565
N2    N     N_R   0.500530 0.500890 0.852020 -0.207934
O1    O     O_R   0.500000 0.319640 0.618810 -0.611444
O2    O     O_R   0.500010 0.319680 0.381230 -0.584781
O3    O     O_R   0.379430 0.499990 0.618840 -0.600002
O4    O     O_R   0.379440 0.500030 0.381260 -0.532122
O5    O     O_R   0.499990 0.680320 0.618770 -0.575513
O6    O     O_R   0.500000 0.680360 0.381190 -0.607637
O7    O     O_R   0.620560 0.499970 0.618740 -0.585834
O8    O     O_R   0.620570 0.500010 0.381160 -0.581195
C31   C     C_2   0.515707 0.885026 0.226067 0.441874
H14   H     H_    0.557945 0.811154 0.206099 0.110320
O9    O     O_2   0.475679 0.924928 0.129863 -0.553952
C32   C     C_2   0.600418 0.871439 0.812328 0.401101
H15   H     H_    0.643020 0.834816 0.734815 0.066666
O10   O     O_2   0.618827 0.867039 0.934502 -0.569434
C33   C     C_3   0.595451 0.143403 0.826018 -0.296178
C34   C     C_3   0.673486 0.147654 0.727684 -0.312186
C35   C     C_3   0.751615 0.199264 0.800296 -0.792653
H16   H     H_    0.741633 0.294129 0.836451 0.246031
H17   H     H_    0.766333 0.140439 0.890515 0.266149
H18   H     H_    0.806291 0.201365 0.726580 0.257630
H19   H     H_    0.687060 0.054807 0.688774 0.225840
H20   H     H_    0.661644 0.207073 0.636570 0.216614
H21   H     H_    0.577133 0.239480 0.844362 0.217756
H22   H     H_    0.611828 0.106014 0.929095 0.257020
C36   C     C_2   0.390674 0.335962 0.156345 0.458463
H23   H     H_    0.415666 0.246231 0.172450 0.058279
O11   O     O_2   0.318637 0.354249 0.194827 -0.526323
C37   C     C_3   0.371266 0.351654 0.862829 -0.362849
C38   C     C_3   0.283343 0.406484 0.876212 -0.315653
C39   C     C_3   0.214367 0.312644 0.835575 -0.802193
H24   H     H_    0.220608 0.290072 0.723661 0.237779
H25   H     H_    0.218207 0.227287 0.898443 0.278940
H26   H     H_    0.151665 0.350883 0.855848 0.241912
H27   H     H_    0.269895 0.436968 0.983241 0.264058
H28   H     H_    0.279407 0.489603 0.810258 0.237227
H29   H     H_    0.383832 0.329696 0.754641 0.248052
H30   H     H_    0.369709 0.259320 0.912474 0.150658
C40   C     C_2   0.684199 0.438872 0.120456 0.452689
H31   H     H_    0.744031 0.438047 0.172946 0.041220
O12   O     O_2   0.645083 0.341846 0.100801 -0.572424
C41   C     C_2   0.088399 0.314160 0.346661 0.412943
H32   H     H_    0.080475 0.243822 0.426391 0.108829
O13   O     O_2   0.129061 0.291454 0.241671 -0.529815
C42   C     C_2   0.909764 0.306138 0.354136 0.370154
H33   H     H_    0.874260 0.282948 0.262126 0.074864
O14   O     O_2   0.915820 0.228447 0.444851 -0.556929
C43   C     C_2   0.081301 0.708007 0.632067 0.377638
H34   H     H_    0.041664 0.699406 0.724716 0.044549
O15   O     O_2   0.151266 0.757638 0.643032 -0.556583
C44   C     C_3   0.095373 0.726100 0.371294 -0.388035
C45   C     C_3   0.072561 0.862643 0.368957 -0.325776
C46   C     C_3   0.121333 0.933110 0.253675 -0.784430
H35   H     H_    0.190235 0.931363 0.271345 0.267296
H36   H     H_    0.107195 0.892092 0.151036 0.250756
H37   H     H_    0.102571 0.030218 0.252746 0.271898
H38   H     H_    0.004245 0.870608 0.350377 0.250543
H39   H     H_    0.087166 0.907628 0.469133 0.259382
H40   H     H_    0.165150 0.721758 0.374983 0.236899
H41   H     H_    0.076226 0.687315 0.270141 0.171363
C47   C     C_2   0.907498 0.732577 0.572760 0.338668
H42   H     H_    0.902123 0.716803 0.683810 0.065543
O16   O     O_2   0.873670 0.821105 0.523272 -0.541464

loop_
_geom_bond_atom_site_label_1
_geom_bond_atom_site_label_2
_ccdc_geom_bond_type
C2    H3    S    
C4    H4    S    
C18   C21   A    
C19   C20   A    
Cu1   O5    S    
C3    C6    S    
C26   H8    S    
C5    C43   S    
C19   N1    A    
C7    C8    T    
C39   H24   S    
C18   C24   S    
C3    C28   S    
C37   H30   S    
C22   H9    S    
C45   H38   S    
C44   C45   S    
C31   H14   S    
C33   H21   S    
C17   H7    S    
C11   H5    S    
C27   H12   S    
C26   H2    S    
C34   H20   S    
C16   C17   S    
C47   H42   S    
C9    C10   A    
Cu2   O8    S    
C13   C31   S    
C44   H40   S    
C39   H25   S    
C32   H15   S    
C7    C30   S    
Cu1   N2    S    
C21   C22   S    
C27   C30   S    
C47   O16   D    
C19   C36   S    
C27   C41   S    
C18   N1    A    
C23   O6    A    
C40   O12   D    
C25   C29   S    
C4    C47   S    
C28   H13   S    
C32   O10   D    
C35   H18   S    
C38   C39   S    
C36   O11   D    
C38   H28   S    
C42   H33   S    
C36   H23   S    
C40   H31   S    
C20   C37   S    
C16   C32   S    
C35   H17   S    
C14   C23   S    
C37   C38   S    
Cu2   O4    S    
C33   C34   S    
C17   C33   S    
C42   O14   D    
Cu1   Cu2   S    
C8    C12   S    
C6    C29   T    
C2    C26   S    
C25   O7    A    
C43   O15   D    
C44   H41   S    
C2    H1    S    
C9    C17   S    
C46   H36   S    
C41   O13   D    
C26   C30   S    
Cu1   O1    S    
C22   C24   S    
Cu1   O3    S    
C3    C4    S    
Cu2   O6    S    
C12   O4    A    
C5    C30   S    
C24   C40   S    
C39   H26   S    
C34   H19   S    
Cu2   N1    S    
C1    C10   S    
C25   O8    A    
C5    C44   S    
C4    C5    S    
C38   H27   S    
C12   O3    A    
C1    O1    A    
C46   H35   S    
C35   H16   S    
C2    C3    S    
C9    C15   A    
C11   C13   A    
C37   H29   S    
C23   O5    A    
C22   H10   S    
C45   H39   S    
C31   O9    D    
C33   H22   S    
C28   C42   S    
Cu1   O7    S    
C43   H34   S    
Cu2   O2    S    
C20   N2    A    
C10   C11   A    
C34   C35   S    
C46   H37   S    
C41   H32   S    
C45   C46   S    
C27   C28   S    
C24   H11   S    
C14   C15   A    
C13   C14   A    
C1    O2    A    
C15   C16   S    
C16   H6    S    
C21   N2    A    
