data_mof_unit_40402.cif
_audit_creation_date              2013-03-05T16:12:48-0500
_audit_creation_method            fapswitch 2.2
_symmetry_space_group_name_H-M    P1
_symmetry_Int_Tables_number       1
_space_group_crystal_system       triclinic
_cell_length_a                    8.197121
_cell_length_b                    16.346345
_cell_length_c                    18.732639
_cell_angle_alpha                 111.605299
_cell_angle_beta                  90.804727
_cell_angle_gamma                 83.685117
_cell_volume                      2318.58185953

loop_
_atom_site_label
_atom_site_type_symbol
_atom_site_description
_atom_site_fract_x
_atom_site_fract_y
_atom_site_fract_z
_atom_type_partial_charge
P1    P     P_3+3 0.582960 0.413890 0.320860 0.459272
O1    O     O_2   0.402610 0.439360 0.314250 -0.364746
O2    O     O_3   0.648560 0.446300 0.404730 -0.399942
O3    O     O_3   0.108870 0.604000 0.387500 -0.366045
O4    O     O_2   0.245859 0.525943 0.248201 -0.387444
O5    O     O_3   0.605159 0.298078 0.279812 -0.591852
O6    O     O_3   0.134888 0.689413 0.280723 -0.560979
H1    H     H_    0.093446 0.779054 0.391573 0.160950
C1    C     C_3   0.031222 0.838916 0.307323 -0.118903
H2    H     H_    0.157899 0.852863 0.299157 0.160089
H3    H     H_    0.970110 0.821082 0.251049 0.130371
P2    P     P_3+3 0.071690 0.707860 0.593450 0.486872
P3    P     P_3+3 0.492966 0.765562 0.453381 0.463316
O7    O     O_2   0.241370 0.719440 0.573960 -0.355985
O8    O     O_3   0.507090 0.652150 0.432150 -0.392060
O9    O     O_2   0.336420 0.808904 0.504069 -0.383014
O10   O     O_3   0.065938 0.747463 0.693894 -0.561634
O11   O     O_3   0.455578 0.785825 0.368823 -0.510050
C2    C     C_3   0.533265 0.714430 0.306841 0.479174
H4    H     H_    0.465282 0.655602 0.293394 0.150112
H5    H     H_    0.662177 0.696721 0.319311 0.011690
C3    C     C_3   0.534431 0.740108 0.236668 -0.939765
H6    H     H_    0.406770 0.756311 0.221479 0.272239
H7    H     H_    0.602804 0.798568 0.248686 0.279039
C4    C     C_3   0.624079 0.736317 0.664826 0.422433
H8    H     H_    0.750890 0.711020 0.642540 0.092846
H9    H     H_    0.537382 0.718583 0.616905 0.129972
C5    C     C_3   0.610311 0.836674 0.703331 -0.956038
H10   H     H_    0.701008 0.856004 0.749532 0.270945
H11   H     H_    0.634263 0.866879 0.661096 0.210460
H12   H     H_    0.484667 0.862654 0.728548 0.271950
Ba1   Ba    Ba6+2 0.333520 0.539550 0.472180 1.550746
C6    C     C_3   0.575148 0.262876 0.335261 0.249627
H13   H     H_    0.445703 0.281985 0.354894 0.094018
H14   H     H_    0.655700 0.287143 0.384992 0.152525
C7    C     C_3   0.610934 0.162047 0.299823 -0.684826
H15   H     H_    0.601853 0.133851 0.345036 0.207629
H16   H     H_    0.738560 0.143794 0.275565 0.212892
C8    C     C_3   0.123385 0.682363 0.722753 0.277445
H17   H     H_    0.257235 0.664551 0.710582 0.095138
H18   H     H_    0.058114 0.622602 0.697806 0.119172
C9    C     C_3   0.089759 0.723860 0.809637 -0.627651
H19   H     H_    0.157006 0.783222 0.834006 0.244634
H20   H     H_    0.956336 0.746082 0.821086 0.187826
P4    P     P_3+3 0.606720 0.586180 0.679160 0.458362
O12   O     O_2   0.787080 0.560670 0.685800 -0.387293
O13   O     O_3   0.541120 0.553770 0.595290 -0.400388
O14   O     O_3   0.080800 0.396070 0.612520 -0.354965
O15   O     O_3   0.586124 0.701922 0.719796 -0.567311
P5    P     P_3+3 0.698554 0.234745 0.549972 0.488454
O16   O     O_3   0.164600 0.390590 0.443970 -0.396809
O17   O     O_3   0.682580 0.347920 0.567870 -0.394485
O18   O     O_2   0.852714 0.190522 0.497620 -0.326496
O19   O     O_3   0.741775 0.216054 0.634867 -0.499377
Ba2   Ba    Ba6+2 0.856270 0.460520 0.527840 1.558278
P6    P     P_3+3 0.097280 0.591058 0.290946 0.438428
C10   C     C_3   0.037498 0.761128 0.334178 0.249126
H21   H     H_    0.909889 0.746285 0.338373 0.026764
O20   O     O_3   0.025080 0.609480 0.556050 -0.398948
C11   C     C_3   0.052580 0.319413 0.281918 0.424854
H22   H     H_    0.924552 0.337804 0.305151 0.098366
H23   H     H_    0.122693 0.377572 0.305417 0.126066
C12   C     C_3   0.049968 0.292415 0.195093 -0.983567
H24   H     H_    0.976555 0.235834 0.169868 0.272650
H25   H     H_    0.994320 0.348649 0.179915 0.220174
H26   H     H_    0.177202 0.272777 0.170486 0.256495
P7    P     P_3+3 0.129188 0.279328 0.399521 0.453509
O21   O     O_2   0.948320 0.280590 0.426090 -0.362878
O22   O     O_3   0.126752 0.247909 0.299570 -0.556492
H27   H     H_    0.595008 0.684405 0.187104 0.222964
C13   C     C_3   0.685536 0.292538 0.697971 0.328906
H28   H     H_    0.755144 0.347703 0.700636 0.179762
H29   H     H_    0.553923 0.313489 0.693898 0.005214
C14   C     C_3   0.712124 0.275077 0.772185 -0.613753
H30   H     H_    0.684365 0.338020 0.822064 0.174297
H31   H     H_    0.842651 0.250510 0.775264 0.247318
P8    P     P_3+3 0.095485 0.405446 0.707716 0.425460
C15   C     C_3   0.196699 0.239570 0.657377 0.327784
H32   H     H_    0.317113 0.265374 0.661716 -0.036768
O23   O     O_2   0.939802 0.463264 0.751243 -0.431599
O24   O     O_3   0.079789 0.300586 0.709928 -0.541503
H33   H     H_    0.154012 0.224256 0.597716 0.138116
H34   H     H_    0.332997 0.112515 0.641907 0.057871
C16   C     C_3   0.223336 0.154982 0.674760 -0.112739
H35   H     H_    0.246539 0.172086 0.736908 0.160757
C17   C     C_R   0.517947 0.452977 0.038812 0.043229
C18   C     C_R   0.450229 0.404639 0.077921 -0.171418
C19   C     C_R   0.308766 0.420092 0.937639 -0.111232
C20   C     C_R   0.454460 0.456399 0.968336 0.053313
C21   C     C_R   0.251742 0.420288 0.867500 -0.126959
C22   C     C_R   0.336566 0.456861 0.824238 -0.020047
C23   C     C_R   0.477242 0.499123 0.855331 0.037701
C24   C     C_R   0.535779 0.499606 0.927973 0.032023
C25   C     C_R   0.283091 0.453812 0.751293 0.152198
C26   C     C_R   0.372146 0.489580 0.709048 -0.518723
C27   C     C_R   0.506579 0.535172 0.739448 0.244325
C28   C     C_R   0.557439 0.542270 0.814494 -0.001864
C29   C     C_R   0.657432 0.496511 0.070264 0.041677
C30   C     C_R   0.715788 0.497428 0.143054 -0.002486
C31   C     C_R   0.634350 0.455505 0.184531 -0.044874
C32   C     C_R   0.508166 0.405259 0.148384 -0.054636
H36   H     H_    0.331558 0.485254 0.652690 0.186692
H37   H     H_    0.139436 0.391221 0.848023 0.173645
H38   H     H_    0.450921 0.366010 0.174176 0.159453
C33   C     C_R   0.683647 0.592382 0.850800 -0.028327
C34   C     C_R   0.742136 0.592239 0.920933 -0.189418
C35   C     C_R   0.675201 0.543120 0.959473 0.047389
C36   C     C_R   0.739399 0.539080 0.029574 0.049968
C37   C     C_R   0.886626 0.574035 0.059491 -0.201956
C38   C     C_R   0.857129 0.539240 0.173814 -0.025205
C39   C     C_R   0.943801 0.573946 0.129642 -0.156574
C40   C     C_R   0.908064 0.544589 0.247673 0.180169
C41   C     C_R   0.816884 0.510665 0.290698 -0.526186
C42   C     C_R   0.683267 0.464410 0.260239 0.253076
H39   H     H_    0.739896 0.632452 0.825572 0.143963
H40   H     H_    0.057347 0.601797 0.148433 0.187722
H41   H     H_    0.855958 0.516331 0.347578 0.183319
H42   H     H_    0.233266 0.391914 0.967112 0.124051
H43   H     H_    0.352923 0.363958 0.054997 0.129950
H44   H     H_    0.838658 0.633330 0.944383 0.122136
H45   H     H_    0.963339 0.600728 0.029191 0.144739
C43   C     C_2   0.404034 0.240537 0.480256 -0.518738
C44   C     C_R   0.801809 0.749731 0.514243 -0.544875
C45   C     C_2   0.243179 0.119007 0.409670 -0.169808
C46   C     C_2   0.262742 0.205322 0.433702 0.248392
C47   C     C_2   0.512558 0.188201 0.502844 0.187246
C48   C     C_3   0.465173 0.099525 0.498126 -0.162022
C49   C     C_3   0.369992 0.054659 0.425565 0.244893
C50   C     C_2   0.603365 0.036817 0.506987 -0.042808
C51   C     C_2   0.569700 0.965609 0.520354 -0.161500
C52   C     C_R   0.841972 0.929087 0.566797 0.290872
C53   C     C_R   0.699761 0.900008 0.527887 -0.105563
C54   C     C_R   0.961042 0.869908 0.581135 -0.257101
C55   C     C_R   0.939105 0.780316 0.556610 0.305524
C56   C     C_R   0.678965 0.809462 0.501867 0.197174
H46   H     H_    0.143467 0.093307 0.372264 0.185629
H47   H     H_    0.066282 0.894697 0.614295 0.195288
H48   H     H_    0.425671 0.308237 0.490735 0.176642
H49   H     H_    0.785052 0.680298 0.495749 0.184472
H50   H     H_    0.729454 0.046570 0.499114 0.238569
H51   H     H_    0.442263 0.955155 0.524394 0.192782
C57   C     C_2   0.494253 0.123229 0.237079 0.716311
H52   H     H_    0.488322 0.142601 0.187481 0.033162
O25   O     O_2   0.406094 0.069484 0.241082 -0.576759
C58   C     C_2   0.137939 0.661121 0.849421 0.484706
H53   H     H_    0.075664 0.602614 0.837046 0.057103
O26   O     O_2   0.242838 0.677160 0.898039 -0.559782
N1    N     N_R   0.942001 0.917924 0.363209 0.234236
O27   O     O_R   0.805907 0.953328 0.344799 -0.412926
O28   O     O_R   0.007995 0.958953 0.428327 -0.386464
C59   C     C_2   0.605983 0.207882 0.776481 0.626361
H54   H     H_    0.617094 0.142022 0.732188 0.064566
O29   O     O_2   0.507482 0.226495 0.829870 -0.599763
N2    N     N_R   0.081051 0.105963 0.653555 0.276713
O30   O     O_R   0.038453 0.075563 0.582260 -0.349881
O31   O     O_R   0.002892 0.087359 0.704603 -0.420534

loop_
_geom_bond_atom_site_label_1
_geom_bond_atom_site_label_2
_geom_bond_distance
_ccdc_geom_bond_type
O14   Ba2   2.781324 S    
C12   H25   1.109263 S    
C54   H47   1.081999 S    
C47   C48   1.512726 S    
Ba2   O20   2.810002 S    
O4    P6    1.540130 D    
C26   C27   1.394463 A    
Ba2   O21   2.876938 S    
C21   C22   1.400600 A    
O8    Ba1   2.756238 S    
C8    H18   1.109360 S    
P4    O12   1.507492 D    
C4    C5    1.521293 S    
P5    O19   1.751037 S    
C14   H31   1.109140 S    
P3    O11   1.750173 S    
C11   C12   1.520885 S    
O1    Ba1   2.833772 S    
C5    H10   1.110773 S    
C2    H5    1.109305 S    
N1    O28   1.299709 A    
P1    O1    1.507188 D    
C37   C39   1.389420 A    
C34   C35   1.414863 A    
C44   H49   1.081880 S    
P8    C25   1.847502 S    
C6    C7    1.528590 S    
C29   C36   1.422819 A    
C36   C37   1.412054 A    
C11   H23   1.110321 S    
O11   C2    1.405356 S    
O10   C8    1.397389 S    
C51   H51   1.084964 S    
C7    C57   1.500537 S    
C38   C39   1.400772 A    
C23   C24   1.434081 A    
C18   C32   1.393400 A    
P2    O20   1.587737 S    
C16   N2    1.455446 S    
O19   C13   1.404691 S    
C2    H4    1.110977 S    
C5    H11   1.105280 S    
O12   Ba2   2.834255 S    
P5    O17   1.744483 S    
C35   C36   1.429185 A    
C39   H40   1.078641 S    
P5    C47   1.845390 S    
P4    O15   1.749348 S    
C1    H2    1.111693 S    
Ba1   Ba2   4.503180 S    
N2    O31   1.300626 A    
O17   Ba2   2.756824 S    
C45   C49   1.502349 S    
C28   C33   1.400073 A    
C12   H26   1.110925 S    
P2    C55   1.832452 S    
P2    Ba1   3.401728 S    
P3    C56   1.840190 S    
O2    Ba1   2.897626 S    
C9    H20   1.111712 S    
O6    P6    1.747565 S    
C3    H6    1.110105 S    
C40   C41   1.397488 A    
C58   O26   1.220378 D    
C23   C28   1.424176 A    
C58   H53   1.081574 S    
C8    C9    1.530850 S    
C4    O15   1.395365 S    
P4    O13   1.569771 S    
P5    O18   1.546921 D    
C14   H30   1.109021 S    
C45   H46   1.085456 S    
C44   C55   1.397456 A    
P7    O21   1.566097 D    
C2    C3    1.520485 S    
C31   C42   1.427635 A    
N1    O27   1.300971 A    
C43   H48   1.084847 S    
C41   C42   1.394194 A    
O7    Ba1   2.876739 S    
C8    H17   1.108347 S    
C13   H29   1.105750 S    
C17   C18   1.415418 A    
O16   Ba2   2.883802 S    
C4    H8    1.102864 S    
C30   C38   1.416646 A    
P1    Ba1   3.374333 S    
P1    O5    1.750541 S    
C44   C56   1.401748 A    
C11   H22   1.108257 S    
P1    O2    1.569771 S    
O14   P8    1.736315 S    
C43   C47   1.338238 D    
C51   C53   1.470427 S    
C48   C50   1.491997 S    
Ba1   O16   2.810531 S    
C18   H43   1.076841 S    
H1    C10   1.111694 S    
C15   H33   1.111946 S    
H34   C16   1.110097 S    
P8    O24   1.748518 S    
C59   H54   1.085582 S    
C27   C28   1.427444 A    
C6    H13   1.100982 S    
O16   P7    1.754843 S    
C16   H35   1.111531 S    
C1    H3    1.112724 S    
N2    O30   1.299573 A    
O3    Ba1   2.781924 S    
C41   H41   1.081999 S    
C19   C21   1.389368 A    
C32   H38   1.079858 S    
P3    O8    1.737675 S    
C54   C55   1.395828 A    
Ba1   O13   2.801848 S    
C3    H7    1.110782 S    
C14   C59   1.499078 S    
P1    C42   1.874519 S    
C19   H42   1.076843 S    
C52   C53   1.399642 A    
C22   C23   1.416429 A    
C57   O25   1.220398 D    
C3    H27   1.108423 S    
O13   Ba2   2.898384 S    
C50   C51   1.334533 D    
P8    O23   1.543710 D    
C7    H15   1.109991 S    
C34   H44   1.077028 S    
C15   H32   1.105827 S    
C33   H39   1.079571 S    
C5    H12   1.110826 S    
P2    O7    1.492239 D    
C52   C54   1.391706 A    
C17   C20   1.430242 A    
C13   C14   1.526977 S    
C26   H36   1.081940 S    
C4    H9    1.109367 S    
C33   C34   1.392922 A    
C1    N1    1.454940 S    
O2    Ba2   2.802393 S    
O5    C6    1.396065 S    
C43   C46   1.477113 S    
P7    C46   1.825186 S    
C13   H28   1.104726 S    
C30   C31   1.423477 A    
C24   C35   1.418112 A    
P2    O10   1.749398 S    
C9    C58   1.492869 S    
C15   O24   1.405496 S    
C37   H45   1.077382 S    
C10   H21   1.109683 S    
C50   H50   1.083178 S    
C11   O22   1.402789 S    
C53   C56   1.406855 A    
C7    H16   1.111228 S    
C31   C32   1.400221 A    
C6    H14   1.108793 S    
P6    C40   1.846655 S    
C1    C10   1.525949 S    
C59   O29   1.220365 D    
C20   C24   1.423310 A    
C25   C26   1.397091 A    
C17   C29   1.418503 A    
C38   C40   1.413859 A    
C21   H37   1.079568 S    
C12   H24   1.110612 S    
C15   C16   1.526029 S    
C19   C20   1.412262 A    
P4    Ba2   3.374832 S    
C29   C30   1.434058 A    
C9    H19   1.112760 S    
P3    O9    1.545640 D    
C57   H52   1.085308 S    
Ba1   O20   2.884560 S    
P7    O22   1.750112 S    
P4    C27   1.874717 S    
O6    C10   1.402268 S    
O3    P6    1.744436 S    
C48   C49   1.534965 S    
C45   C46   1.341314 D    
C22   C25   1.414091 A    
