data_mof_unit_47029.cif
_audit_creation_date              2012-12-10T20:38:16-0500
_audit_creation_method            fapswitch 2.2
_symmetry_space_group_name_H-M    P1
_symmetry_Int_Tables_number       1
_space_group_crystal_system       triclinic
_cell_length_a                    9.864914
_cell_length_b                    10.662615
_cell_length_c                    16.836108
_cell_angle_alpha                 89.750925
_cell_angle_beta                  83.358371
_cell_angle_gamma                 89.954443
_cell_volume                      1759.01780624

loop_
_atom_site_label
_atom_site_type_symbol
_atom_type_description
_atom_site_fract_x
_atom_site_fract_y
_atom_site_fract_z
_atom_type_partial_charge
C1    C     C_R   0.500391 0.740147 0.497753 0.867789
C2    C     C_R   0.540538 0.532353 0.262467 -0.016603
C3    C     C_R   0.379880 0.936378 0.484593 0.117789
C4    C     C_R   0.478985 0.498974 0.652702 0.969608
C5    C     C_R   0.502405 0.871620 0.484485 -0.119199
C6    C     C_R   0.626876 0.935265 0.467652 -0.179469
C7    C     C_R   0.627028 0.064965 0.466693 -0.216931
C8    C     C_R   0.502643 0.128968 0.482389 -0.122496
C9    C     C_R   0.379942 0.064263 0.483436 0.107489
C10   C     C_3   0.252524 0.072198 0.540696 -0.426617
C11   C     C_3   0.252837 0.930127 0.542174 -0.454700
C12   C     C_R   0.411931 0.610502 0.778877 0.193922
C13   C     C_R   0.921508 0.595149 0.535649 0.160869
C14   C     C_R   0.936285 0.412376 0.458741 -0.115150
C15   C     C_R   0.080254 0.412349 0.458747 -0.117571
C16   C     C_R   0.500798 0.260183 0.495954 0.949874
C17   C     C_R   0.064214 0.595046 0.535681 0.212525
C18   C     C_3   0.053489 0.630593 0.621744 -0.580362
C19   C     C_3   0.899170 0.629966 0.622027 -0.255723
C20   C     C_R   0.521064 0.505697 0.347307 0.852537
C21   C     C_R   0.460746 0.500037 0.739048 -0.118550
C22   C     C_R   0.497902 0.393925 0.782408 -0.092360
C23   C     C_R   0.492324 0.653241 0.147431 -0.142907
C24   C     C_R   0.489254 0.401591 0.865294 -0.196651
C25   C     C_R   0.444028 0.511424 0.904113 0.081419
C26   C     C_R   0.403645 0.614758 0.861887 -0.099564
C27   C     C_2   0.544424 0.274009 0.743620 0.913296
C28   C     C_3   0.373331 0.716826 0.280437 -0.874236
C29   C     C_2   0.833540 0.756851 0.636053 0.987038
C30   C     C_3   0.687278 0.613917 0.956660 -0.826693
C31   C     C_3   0.372835 0.725043 0.733822 -0.895536
C32   C     C_2   0.336095 0.466813 0.043293 0.897785
C33   C     C_R   0.470489 0.632377 0.229655 0.187592
C34   C     C_R   0.638633 0.462942 0.214445 -0.229158
C35   C     C_R   0.658165 0.483874 0.132672 -0.098790
C36   C     C_R   0.580380 0.575046 0.099181 0.156134
C37   C     C_2   0.452363 0.521118 0.989281 -0.088113
C38   C     C_2   0.567762 0.569214 0.014214 0.041102
H1    H     H_    0.726044 0.423183 0.094995 0.155130
H2    H     H_    0.090976 0.555496 0.659719 0.224347
H3    H     H_    0.097445 0.724741 0.629985 0.206646
H4    H     H_    0.848293 0.554599 0.660473 0.180785
H5    H     H_    0.695584 0.388883 0.239889 0.147604
H6    H     H_    0.370081 0.699419 0.893783 0.140403
H7    H     H_    0.433679 0.723984 0.119952 0.131432
H8    H     H_    0.519602 0.322685 0.900098 0.176880
H9    H     H_    0.528162 0.149088 0.655820 0.338017
H10   H     H_    0.336809 0.795431 0.244960 0.230893
H11   H     H_    0.282566 0.662928 0.306397 0.262385
H12   H     H_    0.723589 0.886048 0.460780 0.197738
H13   H     H_    0.425535 0.758027 0.329118 0.230167
H14   H     H_    0.691350 0.860064 0.702032 0.348083
H15   H     H_    0.771410 0.648426 0.989323 0.243903
H16   H     H_    0.727397 0.535703 0.917398 0.257197
H17   H     H_    0.655005 0.692174 0.919400 0.257597
H18   H     H_    0.284379 0.702667 0.701699 0.238115
H19   H     H_    0.344085 0.805001 0.774397 0.243624
H20   H     H_    0.459136 0.755234 0.689806 0.250533
H21   H     H_    0.269783 0.376591 0.146161 0.343541
H22   H     H_    0.723846 0.114001 0.459569 0.173771
H23   H     H_    0.269729 0.114677 0.598910 0.233865
H24   H     H_    0.165821 0.112471 0.512336 0.204535
H25   H     H_    0.271086 0.890377 0.601151 0.202727
H26   H     H_    0.166121 0.888196 0.514894 0.227857
H27   H     H_    0.888360 0.340227 0.426673 0.139545
H28   H     H_    0.140924 0.340160 0.426695 0.146156
N1    N     N_R   0.857140 0.500860 0.500530 -0.119362
N2    N     N_R   0.142780 0.500820 0.500530 -0.104730
O1    O     O_R   0.385310 0.683210 0.499990 -0.618607
O2    O     O_R   0.490958 0.233823 0.674836 -0.830026
O3    O     O_2   0.873035 0.846873 0.594326 -0.653825
O4    O     O_R   0.727461 0.770991 0.697858 -0.810060
O5    O     O_2   0.221488 0.467975 0.022257 -0.620484
O6    O     O_R   0.357209 0.409912 0.115841 -0.804112
O7    O     O_R   0.614650 0.683240 0.500000 -0.620194
O8    O     O_R   0.371780 0.500000 0.615800 -0.603413
O9    O     O_R   0.601120 0.500040 0.615800 -0.611407
O10   O     O_R   0.385350 0.316760 0.500000 -0.612788
O11   O     O_R   0.614690 0.316790 0.500010 -0.617360
O12   O     O_R   0.398880 0.499960 0.384200 -0.613554
O13   O     O_R   0.628220 0.500000 0.384200 -0.625896
O14   O     O_2   0.626583 0.207947 0.773523 -0.618341
Zn1   Zn    Zn3+2 0.346870 0.499980 0.499990 0.955855
Zn2   Zn    Zn3+2 0.653130 0.500020 0.500010 0.965439

loop_
_geom_bond_atom_site_label_1
_geom_bond_atom_site_label_2
_ccdc_geom_bond_type
C23   H7    S    
C35   C36   A    
C26   H6    S    
C7    C8    A    
C30   H16   S    
C1    C5    S    
C31   H20   S    
C18   C19   S    
C11   H25   S    
C32   O6    S    
O11   Zn2   S    
C28   H13   S    
O7    Zn2   S    
C30   C38   S    
C34   C35   A    
C18   H2    S    
C25   C37   S    
O10   Zn1   S    
C8    C9    A    
C23   C33   A    
C14   N1    A    
C31   H18   S    
C9    C10   S    
C19   H4    S    
C29   O4    S    
C2    C34   A    
N1    Zn2   S    
C8    C16   S    
C20   O13   A    
C10   H24   S    
O12   Zn1   S    
O8    Zn1   S    
C30   H15   S    
C20   O12   A    
C2    C20   S    
C1    O7    A    
C24   C25   A    
C11   H26   S    
C18   H3    S    
C32   O5    D    
C13   C19   S    
O9    Zn2   S    
C25   C26   A    
C15   H28   S    
C12   C21   A    
C1    O1    A    
C12   C26   A    
C35   H1    S    
H9    O2    S    
C37   C38   D    
O1    Zn1   S    
C28   H11   S    
H14   O4    S    
C17   C18   S    
C32   C37   S    
C6    H12   S    
C3    C9    A    
H21   O6    S    
C27   O2    S    
C2    C33   A    
C28   C33   S    
C22   C27   S    
C12   C31   S    
C22   C24   A    
C10   H23   S    
C19   C29   S    
C7    H22   S    
O13   Zn2   S    
C13   N1    A    
C28   H10   S    
C17   N2    A    
N2    Zn1   S    
C27   O14   D    
C34   H5    S    
C3    C5    A    
C6    C7    A    
C30   H17   S    
C13   C17   A    
C16   O11   A    
C24   H8    S    
C31   H19   S    
C36   C38   S    
C4    O9    A    
C4    C21   S    
C5    C6    A    
C15   N2    A    
C14   H27   S    
C16   O10   A    
C4    O8    A    
C3    C11   S    
C10   C11   S    
C23   C36   A    
C14   C15   A    
C21   C22   A    
C29   O3    D    
