data_mof_unit_36764.cif
_audit_creation_date              2012-12-11T15:28:39-0500
_audit_creation_method            fapswitch 2.2
_symmetry_space_group_name_H-M    P1
_symmetry_Int_Tables_number       1
_space_group_crystal_system       triclinic
_cell_length_a                    6.958416
_cell_length_b                    19.597373
_cell_length_c                    23.299565
_cell_angle_alpha                 95.856547
_cell_angle_beta                  91.641272
_cell_angle_gamma                 88.201762
_cell_volume                      3158.10953737

loop_
_atom_site_label
_atom_site_type_symbol
_atom_type_description
_atom_site_fract_x
_atom_site_fract_y
_atom_site_fract_z
_atom_type_partial_charge
O1    O     O_R   0.617180 0.809390 0.808140 -0.522278
O2    O     O_R   0.382820 0.190610 0.191860 -0.521924
O3    O     O_R   0.293300 0.672410 0.795490 -0.535706
O4    O     O_R   0.706700 0.327590 0.204510 -0.535589
O5    O     O_R   0.117220 0.690610 0.691850 -0.522147
O6    O     O_R   0.882780 0.309390 0.308150 -0.521237
C1    C     C_R   0.465623 0.647437 0.804687 0.697566
C2    C     C_R   0.534355 0.352499 0.195233 0.698121
O7    O     O_R   0.287840 0.807750 0.814460 -0.524885
O8    O     O_R   0.712160 0.192250 0.185540 -0.525013
O9    O     O_R   0.111720 0.826910 0.710960 -0.531745
O10   O     O_R   0.888280 0.173090 0.289040 -0.532438
C3    C     C_R   0.456552 0.830753 0.833160 0.714274
C4    C     C_R   0.543445 0.169256 0.166833 0.715102
O11   O     O_R   0.622680 0.673080 0.789040 -0.533609
O12   O     O_R   0.377320 0.326920 0.210960 -0.533487
O13   O     O_3   0.448820 0.756130 0.716020 -0.356681
O14   O     O_3   0.551180 0.243870 0.283980 -0.357565
V1    V     V_3+5 0.176220 0.748860 0.756300 1.418780
V2    V     V_3+5 0.823780 0.251140 0.243700 1.419070
O15   O     O_R   0.781670 0.827580 0.704500 -0.532150
O16   O     O_R   0.218330 0.172420 0.295500 -0.533287
C5    C     C_R   0.946223 0.852115 0.693714 0.715848
C6    C     C_R   0.053978 0.148069 0.306461 0.715771
O17   O     O_R   0.787130 0.692240 0.685530 -0.524858
O18   O     O_R   0.212870 0.307760 0.314470 -0.525362
C7    C     C_R   0.956015 0.669229 0.666776 0.717391
C8    C     C_R   0.043983 0.330745 0.333241 0.718657
V3    V     V_3+5 0.675510 0.751130 0.743690 1.425757
V4    V     V_3+5 0.324490 0.248870 0.256310 1.422067
O19   O     O_3   0.952780 0.743870 0.783980 -0.359162
O20   O     O_3   0.047220 0.256130 0.216020 -0.358921
C9    C     C_1   0.966381 0.617155 0.614727 -0.215146
C10   C     C_1   0.033608 0.382769 0.385323 -0.210175
C11   C     C_1   0.977978 0.573625 0.571927 -0.002022
C12   C     C_1   0.022002 0.426264 0.428146 0.004662
C13   C     C_1   0.993340 0.521799 0.521351 -0.003984
C14   C     C_1   0.006633 0.478066 0.478739 -0.000878
C15   C     C_R   0.935310 0.916609 0.664736 -0.101750
C16   C     C_R   0.068526 0.087072 0.339899 -0.104473
C17   C     C_R   0.772675 0.028142 0.659425 0.359466
C18   C     C_R   0.257700 0.983134 0.354590 0.360276
C19   C     C_R   0.813188 0.969340 0.687802 -0.225290
C20   C     C_R   0.190520 0.033049 0.319273 -0.219462
C21   C     C_R   0.022433 0.923449 0.612071 -0.198784
C22   C     C_R   0.001527 0.088462 0.396346 -0.221712
C23   C     C_R   0.994911 0.984227 0.583069 0.029793
C24   C     C_R   0.080430 0.042824 0.435982 0.017322
C25   C     C_R   0.860517 0.035732 0.605862 0.004031
C26   C     C_R   0.214896 0.990353 0.414420 -0.022143
C27   C     C_R   0.087924 0.992642 0.529916 -0.071095
C28   C     C_R   0.025138 0.045930 0.495615 -0.073788
C29   C     C_R   0.912754 0.100923 0.523069 0.266329
C30   C     C_R   0.249369 0.951423 0.511120 0.270537
C31   C     C_R   0.821487 0.093934 0.575039 -0.069988
C32   C     C_R   0.304571 0.947119 0.453466 -0.071739
H1    H     H_    0.891036 0.126555 0.408089 0.172351
H2    H     H_    0.101948 0.879195 0.592693 0.162556
H3    H     H_    0.238317 0.030821 0.275211 0.099624
H4    H     H_    0.744219 0.963761 0.728149 0.104046
C33   C     C_R   0.488139 0.585246 0.834774 -0.046350
C34   C     C_R   0.511734 0.414632 0.165075 -0.047146
C35   C     C_R   0.604408 0.467712 0.833952 -0.162362
C36   C     C_R   0.394638 0.532048 0.165788 -0.160614
C37   C     C_R   0.564232 0.525421 0.805151 -0.169546
C38   C     C_R   0.435175 0.474410 0.194637 -0.168135
C39   C     C_R   0.452722 0.587258 0.893893 -0.214950
C40   C     C_R   0.547176 0.412582 0.105945 -0.215001
C41   C     C_R   0.497614 0.529583 0.924834 0.086171
C42   C     C_R   0.501839 0.470186 0.074950 0.086376
C43   C     C_R   0.573901 0.469430 0.893335 0.140029
C44   C     C_R   0.425237 0.530310 0.106416 0.138977
C45   C     C_R   0.473306 0.529844 0.985804 0.057143
C46   C     C_R   0.526010 0.469897 0.013968 0.057167
C47   C     C_R   0.600042 0.411603 0.980174 -0.186510
C48   C     C_R   0.398986 0.588104 0.019575 -0.186553
C49   C     C_R   0.622661 0.411529 0.921236 -0.199792
C50   C     C_R   0.376220 0.588169 0.078497 -0.199278
H5    H     H_    0.680965 0.365565 0.897234 0.125935
H6    H     H_    0.317630 0.634101 0.102474 0.126055
H7    H     H_    0.603242 0.364645 0.085424 0.097016
H8    H     H_    0.397087 0.635239 0.914451 0.096902
H9    H     H_    0.404994 0.476172 0.240144 0.107582
H10   H     H_    0.594300 0.523672 0.759637 0.106770
H11   H     H_    0.663442 0.421927 0.809905 0.112575
H12   H     H_    0.335238 0.577795 0.189792 0.116103
H13   H     H_    0.643113 0.364727 0.997901 0.124596
H14   H     H_    0.355624 0.634946 0.001840 0.124467
C51   C     C_1   0.467364 0.882830 0.885213 -0.218047
C52   C     C_1   0.532634 0.117190 0.114772 -0.217720
C53   C     C_1   0.478776 0.926353 0.928037 -0.000636
C54   C     C_1   0.521223 0.073675 0.071941 -0.000769
C55   C     C_1   0.493611 0.978157 0.978662 -0.001634
C56   C     C_1   0.506390 0.021875 0.021314 -0.001743
C57   C     C_R   0.682463 0.149395 0.595079 0.245425
C58   C     C_R   0.745117 0.208166 0.629114 -0.046146
C59   C     C_R   0.612564 0.260178 0.647984 -0.122962
C60   C     C_R   0.417497 0.253775 0.632929 -0.091805
C61   C     C_R   0.354732 0.195467 0.598816 -0.129240
C62   C     C_R   0.486704 0.143457 0.579635 -0.077436
H15   H     H_    0.895701 0.213376 0.641251 0.090136
H16   H     H_    0.660935 0.305358 0.674394 0.105191
H17   H     H_    0.314965 0.293970 0.647708 0.109149
H18   H     H_    0.203874 0.190563 0.587367 0.122716
H19   H     H_    0.436653 0.098439 0.553243 0.100364
C63   C     C_R   0.465817 0.898439 0.437012 0.239990
C64   C     C_R   0.648609 0.922582 0.427085 -0.065474
C65   C     C_R   0.800361 0.875987 0.412892 -0.114668
C66   C     C_R   0.771547 0.805433 0.409357 -0.101737
C67   C     C_R   0.590427 0.781169 0.419786 -0.127818
C68   C     C_R   0.437843 0.827455 0.433643 -0.054465
H20   H     H_    0.672790 0.977177 0.430142 0.108270
H21   H     H_    0.940323 0.894313 0.404494 0.125221
H22   H     H_    0.889624 0.769588 0.398536 0.110922
H23   H     H_    0.568282 0.726509 0.417149 0.112181
H24   H     H_    0.297997 0.808159 0.441748 0.093747
O21   O     O_3   0.647504 0.078259 0.684025 -0.655320
H25   H     H_    0.599441 0.064597 0.720723 0.284904
O22   O     O_3   0.365833 0.927394 0.330966 -0.654529
H26   H     H_    0.380227 0.930218 0.289058 0.285764
O23   O     O_3   0.904820 0.165328 0.503952 -0.658415
H27   H     H_    0.033995 0.174106 0.489799 0.283775
O24   O     O_3   0.370279 0.920173 0.549340 -0.652651
H28   H     H_    0.372234 0.949682 0.586560 0.298909

loop_
_geom_bond_atom_site_label_1
_geom_bond_atom_site_label_2
_ccdc_geom_bond_type
C30   O24   S    
C35   C37   A    
C55   C56   T    
O6    C8    A    
O13   V3    S    
C64   H20   S    
C57   C58   A    
O4    C2    A    
V1    O19   S    
C59   C60   A    
O24   H28   S    
C23   C25   A    
C7    C9    S    
C16   C22   A    
O9    V1    S    
C62   H19   S    
C40   H7    S    
C11   C13   S    
C48   C50   A    
O3    C1    A    
C9    C11   T    
C50   H6    S    
C18   O22   S    
C63   C64   A    
C20   H3    S    
O12   V4    S    
C60   H17   S    
C65   C66   A    
C45   C46   A    
C21   C23   A    
C36   H12   S    
C41   C43   A    
O7    C3    A    
C67   C68   A    
C4    C52   S    
C44   C50   A    
C6    C16   S    
C38   H9    S    
O5    C7    A    
O7    V1    S    
C1    C33   S    
O8    V2    S    
C42   C46   A    
C64   C65   A    
O3    V1    S    
C68   H24   S    
O14   V4    S    
C51   C53   T    
C48   H14   S    
C10   C12   T    
C59   H16   S    
C15   C21   A    
C24   C26   A    
C61   H18   S    
C8    C10   S    
C2    O12   A    
C58   H15   S    
C35   H11   S    
C17   C19   A    
C18   C20   A    
C17   C25   A    
O11   V3    S    
C22   C24   A    
C63   C68   A    
C29   C31   A    
O17   V3    S    
C30   C32   A    
C21   H2    S    
C46   C47   A    
C34   C38   A    
C27   C28   A    
C31   C57   S    
O8    C4    A    
C57   C62   A    
C37   H10   S    
C15   C19   A    
C1    O11   A    
C25   C31   A    
O15   V3    S    
C26   C32   A    
C39   C41   A    
C36   C38   A    
C65   H21   S    
C13   C14   T    
C53   C55   S    
C33   C39   A    
C52   C54   T    
C61   C62   A    
C24   C28   A    
C58   C59   A    
O10   V2    S    
O1    V3    S    
C49   H5    S    
C41   C45   A    
C47   C49   A    
C32   C63   S    
O23   H27   S    
C66   H22   S    
C18   C26   A    
C19   H4    S    
C47   H13   S    
C35   C43   A    
O18   V4    S    
O15   C5    A    
C22   H1    S    
C45   C48   A    
O16   C6    A    
O1    C3    A    
C43   C49   A    
C28   C29   A    
V2    O20   S    
O16   V4    S    
C3    C51   S    
C23   C27   A    
O22   H26   S    
O5    V1    S    
O17   C7    A    
O6    V2    S    
O10   C6    A    
O18   C8    A    
C34   C40   A    
O2    V4    S    
C27   C30   A    
C12   C14   S    
V3    O19   S    
C29   O23   S    
O21   H25   S    
V4    O20   S    
C54   C56   S    
C5    C15   S    
O9    C5    A    
O13   V1    S    
O14   V2    S    
C36   C44   A    
O2    C4    A    
O4    V2    S    
C33   C37   A    
C16   C20   A    
C39   H8    S    
C40   C42   A    
C60   C61   A    
C42   C44   A    
C17   O21   S    
C66   C67   A    
C67   H23   S    
C2    C34   S    
