data_mof_unit_53569.cif
_audit_creation_date              2012-12-10T17:53:25-0500
_audit_creation_method            fapswitch 2.2
_symmetry_space_group_name_H-M    P1
_symmetry_Int_Tables_number       1
_space_group_crystal_system       triclinic
_cell_length_a                    23.443671
_cell_length_b                    10.614734
_cell_length_c                    9.9022
_cell_angle_alpha                 86.962423
_cell_angle_beta                  90.203477
_cell_angle_gamma                 92.525203
_cell_volume                      2458.29250941

loop_
_atom_site_label
_atom_site_type_symbol
_atom_type_description
_atom_site_fract_x
_atom_site_fract_y
_atom_site_fract_z
_atom_type_partial_charge
C1    C     C_R   0.502681 0.260356 0.504566 0.865943
C2    C     C_R   0.121668 0.644384 0.467643 0.619991
C3    C     C_R   0.239660 0.524722 0.364240 0.606407
C4    C     C_R   0.389255 0.502604 0.499764 0.903250
C5    C     C_R   0.298816 0.516328 0.371802 -0.413158
C6    C     C_R   0.326891 0.512463 0.497741 -0.199828
C7    C     C_R   0.295391 0.521637 0.618472 0.543282
C8    C     C_R   0.236019 0.533265 0.608589 -0.299839
C9    C     C_R   0.208842 0.532979 0.483313 0.161738
C10   C     C_R   0.759866 0.510552 0.363595 -0.099128
C11   C     C_R   0.700973 0.505055 0.372104 -0.233592
C12   C     C_R   0.969403 0.292579 0.484332 -0.141262
C13   C     C_R   0.673578 0.499460 0.498753 -0.124424
C14   C     C_R   0.706356 0.498498 0.619582 0.533654
C15   C     C_R   0.766329 0.500684 0.607995 -0.258329
C16   C     C_R   0.502381 0.740089 0.495733 0.933925
C17   C     C_R   0.792276 0.508564 0.481220 0.270070
C18   C     C_R   0.605161 0.120393 0.604130 0.348127
C19   C     C_R   0.657590 0.064260 0.593602 -0.200293
C20   C     C_R   0.661534 0.954733 0.524419 -0.176361
C21   C     C_R   0.612229 0.892759 0.477881 0.370226
C22   C     C_R   0.557997 0.941683 0.501153 -0.010178
C23   C     C_R   0.028667 0.296794 0.485939 -0.120538
C24   C     C_R   0.555589 0.065345 0.543231 -0.033370
C25   C     C_R   0.503975 0.127030 0.517337 -0.043479
C26   C     C_R   0.453812 0.061452 0.482200 -0.127147
C27   C     C_R   0.454022 0.933042 0.473359 -0.138447
C28   C     C_R   0.610810 0.498228 0.500374 0.989909
C29   C     C_R   0.505667 0.873718 0.483617 -0.051322
C30   C     C_R   0.427164 0.326984 0.147940 -0.316344
C31   C     C_R   0.395215 0.233881 0.082535 0.454329
C32   C     C_R   0.396961 0.232337 0.942071 0.305844
C33   C     C_R   0.429538 0.324329 0.867970 -0.228345
C34   C     C_R   0.059529 0.413293 0.479735 -0.011265
C35   C     C_R   0.464733 0.414071 0.931807 0.061938
C36   C     C_R   0.464147 0.414912 0.076265 0.100111
C37   C     C_R   0.534152 0.581376 0.067905 -0.142350
C38   C     C_R   0.534167 0.581929 0.924981 0.458484
C39   C     C_R   0.881403 0.628201 0.462573 0.545511
C40   C     C_R   0.880421 0.402608 0.478355 0.519256
C41   C     C_R   0.939988 0.404813 0.476606 -0.016110
C42   C     C_R   0.970577 0.522540 0.468628 -0.014075
C43   C     C_R   0.941083 0.635192 0.460487 -0.091598
C44   C     C_3   0.709781 0.538517 0.850646 -0.156714
C45   C     C_R   0.030650 0.527316 0.470146 -0.068702
C46   C     C_3   0.313827 0.179384 0.198653 -0.242656
C47   C     C_3   0.215836 0.424536 0.172146 -0.305014
C48   C     C_3   0.295297 0.466537 0.849427 -0.273546
C49   C     C_R   0.061582 0.645408 0.463339 -0.140222
C50   C     C_R   0.031070 0.758258 0.453364 0.427265
C51   C     C_R   0.971542 0.751735 0.452136 -0.192645
C52   C     C_R   0.118879 0.418417 0.483907 0.532046
Cl1   Cl    Cl    0.602755 0.236324 0.723533 -0.539896
Cl2   Cl    Cl    0.622212 0.776502 0.362107 -0.640370
Cl3   Cl    Cl    0.357288 0.116817 0.856460 -0.544175
Cl4   Cl    Cl    0.580152 0.692145 0.837038 -0.558458
Cl5   Cl    Cl    0.063576 0.911695 0.442714 -0.524962
H1    H     H_    0.946785 0.201235 0.490159 0.205740
H2    H     H_    0.421972 0.326501 0.254662 0.227168
H3    H     H_    0.426388 0.322633 0.760819 0.236857
H4    H     H_    0.949102 0.838958 0.445347 0.218409
H5    H     H_    0.322798 0.514498 0.278744 0.201234
H6    H     H_    0.210177 0.543522 0.697228 0.167634
H7    H     H_    0.780442 0.515872 0.265574 0.148149
H8    H     H_    0.729032 0.633723 0.821090 0.158522
H9    H     H_    0.742618 0.472956 0.888296 0.143003
H10   H     H_    0.680390 0.549836 0.936260 0.208449
H11   H     H_    0.286556 0.204179 0.109815 0.171096
H12   H     H_    0.676895 0.506496 0.278521 0.201514
H13   H     H_    0.319444 0.260355 0.265056 0.125228
H14   H     H_    0.291150 0.101429 0.258511 0.229933
H15   H     H_    0.204282 0.338705 0.237684 0.194819
H16   H     H_    0.259279 0.418759 0.129817 0.129127
H17   H     H_    0.185495 0.426899 0.085943 0.205850
H18   H     H_    0.326023 0.451593 0.933459 0.176278
H19   H     H_    0.277895 0.371898 0.822059 0.179566
H20   H     H_    0.261245 0.524326 0.888296 0.183608
H21   H     H_    0.793742 0.495559 0.695948 0.139404
H22   H     H_    0.414419 0.109678 0.464335 0.159475
H23   H     H_    0.695590 0.106114 0.638648 0.206853
H24   H     H_    0.703048 0.917469 0.507705 0.209101
H25   H     H_    0.414228 0.879974 0.456955 0.160204
H26   H     H_    0.561983 0.647513 0.119069 0.212263
H27   H     H_    0.050188 0.208453 0.492887 0.232381
N1    N     N_R   0.852781 0.513239 0.472455 -0.348029
N2    N     N_R   0.148214 0.532319 0.478100 -0.338184
N3    N     N_R   0.499460 0.498800 0.142780 -0.118964
N4    N     N_R   0.499440 0.498720 0.857170 -0.118792
O1    O     O_R   0.500000 0.316780 0.614690 -0.596960
O2    O     O_R   0.583850 0.500050 0.614640 -0.497915
O3    O     O_R   0.583840 0.500030 0.385310 -0.613743
O4    O     O_2   0.852062 0.734975 0.456065 -0.538709
O5    O     O_3   0.678149 0.486402 0.743919 -0.541880
O6    O     O_3   0.366712 0.137045 0.157090 -0.553642
O7    O     O_3   0.211459 0.536265 0.241362 -0.577796
O8    O     O_3   0.324389 0.532049 0.740747 -0.567451
O9    O     O_2   0.850192 0.291242 0.486840 -0.542582
O10   O     O_2   0.147405 0.310510 0.494254 -0.543189
O11   O     O_2   0.153792 0.752966 0.461897 -0.448877
O12   O     O_R   0.500000 0.316750 0.385360 -0.634377
O13   O     O_R   0.416160 0.499970 0.614690 -0.584522
O14   O     O_R   0.416150 0.499950 0.385360 -0.654484
O15   O     O_R   0.500000 0.683250 0.614640 -0.565246
O16   O     O_R   0.500000 0.683220 0.385310 -0.585523
Zn1   Zn    Zn3+2 0.500000 0.500020 0.653130 1.080431
Zn2   Zn    Zn3+2 0.500000 0.499980 0.346870 0.985405

loop_
_geom_bond_atom_site_label_1
_geom_bond_atom_site_label_2
_ccdc_geom_bond_type
C40   N1    A    
C22   C29   A    
C27   C29   A    
C41   C42   A    
C48   H19   S    
C44   H9    S    
C35   C36   A    
O3    Zn2   S    
O16   Zn2   S    
C7    C8    A    
C7    O8    S    
C12   C23   A    
C26   C27   A    
C37   C38   A    
C17   N1    S    
C21   C22   A    
C21   Cl2   S    
C15   H21   S    
C10   C17   A    
O2    Zn1   S    
C18   C19   A    
C44   O5    S    
C18   Cl1   S    
C16   O16   A    
C19   C20   A    
C8    C9    A    
C51   H4    S    
C13   C28   S    
O14   Zn2   S    
C18   C24   A    
C14   O5    S    
C12   H1    S    
C13   C14   A    
C30   H2    S    
C1    C25   S    
C48   H18   S    
C44   H8    S    
C1    O12   A    
C36   N3    A    
O13   Zn1   S    
C23   H27   S    
C24   C25   A    
C47   H16   S    
C4    C6    S    
C40   O9    S    
C39   C43   A    
C16   C29   S    
C38   N4    A    
C42   C45   A    
C48   H20   S    
C46   H11   S    
C12   C41   A    
C3    C9    A    
C2    C49   A    
C9    N2    S    
C35   N4    A    
C16   O15   A    
C31   C32   A    
C46   O6    S    
C45   C49   A    
C30   C31   A    
C23   C34   A    
C4    O13   A    
C50   C51   A    
O15   Zn1   S    
C34   C45   A    
C46   H14   S    
C32   Cl3   S    
C40   C41   A    
C2    O11   S    
C33   H3    S    
C22   C24   A    
C42   C43   A    
C39   N1    A    
C39   O4    S    
C15   C17   A    
C1    O1    A    
C48   O8    S    
C50   Cl5   S    
C34   C52   A    
C37   N3    A    
C27   H25   S    
C10   H7    S    
C47   H17   S    
C3    C5    A    
C28   O2    A    
C11   H12   S    
C6    C7    A    
C31   O6    S    
O12   Zn2   S    
C26   H22   S    
C30   C36   A    
C32   C33   A    
C52   N2    A    
C25   C26   A    
N4    Zn1   S    
C11   C13   A    
C43   C51   A    
C5    C6    A    
N3    Zn2   S    
C52   O10   S    
C33   C35   A    
C5    H5    S    
C2    N2    A    
C28   O3    A    
C19   H23   S    
C47   H15   S    
C46   H13   S    
C10   C11   A    
C8    H6    S    
C4    O14   A    
C38   Cl4   S    
C20   C21   A    
C49   C50   A    
O1    Zn1   S    
C47   O7    S    
C14   C15   A    
C37   H26   S    
C44   H10   S    
C3    O7    S    
C20   H24   S    
