data_mof_unit_37099.cif
_audit_creation_date              2012-12-11T15:07:10-0500
_audit_creation_method            fapswitch 2.2
_symmetry_space_group_name_H-M    P1
_symmetry_Int_Tables_number       1
_space_group_crystal_system       triclinic
_cell_length_a                    19.733912
_cell_length_b                    11.320368
_cell_length_c                    18.713147
_cell_angle_alpha                 89.999972
_cell_angle_beta                  90.63532
_cell_angle_gamma                 89.999956
_cell_volume                      4180.16920895

loop_
_atom_site_label
_atom_site_type_symbol
_atom_type_description
_atom_site_fract_x
_atom_site_fract_y
_atom_site_fract_z
_atom_type_partial_charge
C1    C     C_R   0.761207 0.523575 0.639265 0.533399
C2    C     C_R   0.238793 0.523575 0.360735 0.533398
C3    C     C_R   0.261207 0.023575 0.639265 0.533399
C4    C     C_R   0.738793 0.023575 0.360735 0.533398
C5    C     C_3   0.810665 0.130844 0.449701 -0.260706
C6    C     C_3   0.189334 0.130844 0.550298 -0.260706
C7    C     C_3   0.310665 0.630844 0.449701 -0.260706
C8    C     C_3   0.689334 0.630844 0.550298 -0.260706
C9    C     C_3   0.747239 0.056646 0.436715 0.066164
C10   C     C_3   0.252761 0.056646 0.563285 0.066164
C11   C     C_3   0.247239 0.556646 0.436715 0.066164
C12   C     C_3   0.752761 0.556646 0.563285 0.066164
C13   C     C_3   0.759957 0.090486 0.574241 0.064727
C14   C     C_3   0.240043 0.090485 0.425759 0.064726
C15   C     C_3   0.259957 0.590485 0.574241 0.064727
C16   C     C_3   0.740043 0.590485 0.425759 0.064726
C17   C     C_3   0.753510 0.957984 0.561811 -0.261716
C18   C     C_3   0.246490 0.957984 0.438189 -0.261716
C19   C     C_3   0.253510 0.457984 0.561811 -0.261716
C20   C     C_3   0.746490 0.457984 0.438189 -0.261716
C21   C     C_3   0.822711 0.133692 0.530778 -0.216308
C22   C     C_3   0.177289 0.133692 0.469222 -0.216308
C23   C     C_3   0.322711 0.633692 0.530778 -0.216308
C24   C     C_3   0.677289 0.633692 0.469222 -0.216308
C25   C     C_3   0.004089 0.205050 0.459052 -0.231929
C26   C     C_3   0.995911 0.205050 0.540948 -0.231929
C27   C     C_3   0.504089 0.705050 0.459052 -0.231929
C28   C     C_3   0.495911 0.705050 0.540948 -0.231929
C29   C     C_3   0.064514 0.405977 0.475256 -0.215542
C30   C     C_3   0.935486 0.405977 0.524744 -0.215542
C31   C     C_3   0.564514 0.905977 0.475256 -0.215542
C32   C     C_3   0.435486 0.905977 0.524744 -0.215541
C33   C     C_3   0.942037 0.390534 0.443721 -0.260227
C34   C     C_3   0.057963 0.390534 0.556279 -0.260227
C35   C     C_3   0.442037 0.890534 0.443721 -0.260227
C36   C     C_3   0.557963 0.890534 0.556279 -0.260227
C37   C     C_3   0.010772 0.333280 0.430997 0.063603
C38   C     C_3   0.989228 0.333280 0.569003 0.063603
C39   C     C_3   0.510772 0.833280 0.430997 0.063603
C40   C     C_3   0.489228 0.833280 0.569003 0.063603
C41   C     C_3   0.816499 0.022019 0.046091 -0.242234
C42   C     C_3   0.183501 0.022020 0.953909 -0.242235
C43   C     C_3   0.316499 0.522019 0.046091 -0.242234
C44   C     C_3   0.683501 0.522020 0.953909 -0.242235
C45   C     C_R   0.774011 0.120929 0.649585 0.539243
C46   C     C_R   0.225989 0.120929 0.350415 0.539242
C47   C     C_R   0.274011 0.620929 0.649585 0.539243
C48   C     C_R   0.725989 0.620929 0.350415 0.539242
C49   C     C_3   0.814939 0.019930 0.965557 -0.258411
C50   C     C_3   0.185062 0.019931 0.034443 -0.258410
C51   C     C_3   0.314939 0.519930 0.965557 -0.258411
C52   C     C_3   0.685062 0.519931 0.034443 -0.258410
C53   C     C_3   0.687585 0.022870 0.029451 -0.216856
C54   C     C_3   0.312414 0.022869 0.970549 -0.216854
C55   C     C_3   0.187585 0.522870 0.029451 -0.216856
C56   C     C_3   0.812414 0.522869 0.970549 -0.216854
C57   C     C_3   0.747156 0.203168 0.063337 -0.246046
C58   C     C_3   0.252843 0.203169 0.936662 -0.246048
C59   C     C_3   0.247156 0.703168 0.063337 -0.246046
C60   C     C_3   0.752843 0.703169 0.936662 -0.246047
C61   C     C_3   0.747593 0.070925 0.075100 0.042499
C62   C     C_3   0.252407 0.070925 0.924899 0.042500
C63   C     C_3   0.247593 0.570924 0.075100 0.042499
C64   C     C_3   0.752407 0.570925 0.924899 0.042500
C65   C     C_3   0.760765 0.109064 0.936740 0.030664
C66   C     C_3   0.239235 0.109067 0.063259 0.030663
C67   C     C_3   0.260765 0.609064 0.936740 0.030664
C68   C     C_3   0.739235 0.609067 0.063259 0.030663
C69   C     C_3   0.690213 0.057257 0.948820 -0.050665
C70   C     C_3   0.309788 0.057262 0.051179 -0.050661
C71   C     C_3   0.190213 0.557257 0.948820 -0.050665
C72   C     C_3   0.809788 0.557262 0.051179 -0.050661
C73   C     C_3   0.763671 0.222719 0.983412 -0.229256
C74   C     C_3   0.236328 0.222721 0.016586 -0.229263
C75   C     C_3   0.263671 0.722719 0.983412 -0.229256
C76   C     C_3   0.736328 0.722721 0.016586 -0.229263
C77   C     C_3   0.998404 0.474418 0.040231 -0.235214
C78   C     C_3   0.001594 0.474418 0.959770 -0.235213
C79   C     C_3   0.498404 0.974418 0.040231 -0.235214
C80   C     C_3   0.501594 0.974418 0.959770 -0.235213
C81   C     C_3   0.066413 0.287088 0.028417 -0.228624
C82   C     C_3   0.933586 0.287089 0.971584 -0.228624
C83   C     C_3   0.566413 0.787088 0.028417 -0.228624
C84   C     C_3   0.433586 0.787089 0.971584 -0.228624
C85   C     C_3   0.946056 0.276778 0.053238 -0.259710
C86   C     C_3   0.053943 0.276779 0.946762 -0.259710
C87   C     C_3   0.446056 0.776778 0.053238 -0.259710
C88   C     C_3   0.553943 0.776779 0.946762 -0.259710
C89   C     C_R   0.968765 0.342184 0.644893 0.536951
C90   C     C_R   0.031235 0.342184 0.355107 0.536950
C91   C     C_R   0.468765 0.842184 0.644893 0.536951
C92   C     C_R   0.531235 0.842184 0.355107 0.536950
C93   C     C_3   0.009401 0.348007 0.069828 0.043798
C94   C     C_3   0.990598 0.348007 0.930173 0.043797
C95   C     C_3   0.509401 0.848007 0.069828 0.043798
C96   C     C_3   0.490598 0.848007 0.930173 0.043797
C97   C     C_R   0.760869 0.533187 0.848925 0.530114
C98   C     C_R   0.239131 0.533187 0.151075 0.530114
C99   C     C_R   0.260869 0.033187 0.848925 0.530114
C100  C     C_R   0.739131 0.033187 0.151075 0.530114
C101  C     C_R   0.775720 0.136578 0.859970 0.540395
C102  C     C_R   0.224280 0.136580 0.140030 0.540394
C103  C     C_R   0.275720 0.636579 0.859970 0.540395
C104  C     C_R   0.724280 0.636580 0.140030 0.540394
C105  C     C_R   0.969540 0.352582 0.853404 0.542877
C106  C     C_R   0.030459 0.352582 0.146596 0.542873
C107  C     C_R   0.469540 0.852582 0.853404 0.542877
C108  C     C_R   0.530459 0.852582 0.146596 0.542873
C109  C     C_3   0.687514 0.131764 0.464689 -0.234266
C110  C     C_3   0.312486 0.131764 0.535311 -0.234266
C111  C     C_3   0.187514 0.631764 0.464689 -0.234266
C112  C     C_3   0.812486 0.631764 0.535311 -0.234266
C113  C     C_3   0.692668 0.144941 0.545903 -0.231626
C114  C     C_3   0.307332 0.144941 0.454097 -0.231626
C115  C     C_3   0.192668 0.644941 0.545903 -0.231626
C116  C     C_3   0.807332 0.644941 0.454097 -0.231626
C117  C     C_3   0.756653 0.939141 0.480541 -0.218769
C118  C     C_3   0.243347 0.939141 0.519459 -0.218768
C119  C     C_3   0.256653 0.439141 0.480541 -0.218769
C120  C     C_3   0.743347 0.439141 0.519459 -0.218768
Cr1   Cr    Cr6+3 0.885690 0.492860 0.745310 1.018578
Cr2   Cr    Cr6+3 0.114310 0.492860 0.254690 1.018574
Cr3   Cr    Cr6+3 0.385690 0.992860 0.745310 1.018578
Cr4   Cr    Cr6+3 0.614310 0.992860 0.254690 1.018574
Cr5   Cr    Cr6+3 0.729880 0.332270 0.748190 1.042047
Cr6   Cr    Cr6+3 0.270120 0.332270 0.251810 1.042052
Cr7   Cr    Cr6+3 0.229880 0.832270 0.748190 1.042047
Cr8   Cr    Cr6+3 0.770120 0.832270 0.251810 1.042052
Cr9   Cr    Cr6+3 0.888120 0.178590 0.753010 0.999782
Cr10  Cr    Cr6+3 0.111880 0.178590 0.246990 0.999782
Cr11  Cr    Cr6+3 0.388120 0.678590 0.753010 0.999782
Cr12  Cr    Cr6+3 0.611880 0.678590 0.246990 0.999782
H1    H     H_    0.638791 0.094616 0.449292 0.133021
H2    H     H_    0.361209 0.094616 0.550708 0.133022
H3    H     H_    0.138791 0.594616 0.449292 0.133021
H4    H     H_    0.861209 0.594616 0.550708 0.133022
H5    H     H_    0.863202 0.068187 0.541654 0.128391
H6    H     H_    0.136798 0.068187 0.458346 0.128391
H7    H     H_    0.363202 0.568187 0.541654 0.128391
H8    H     H_    0.636798 0.568187 0.458346 0.128391
H9    H     H_    0.808935 0.908877 0.470157 0.125990
H10   H     H_    0.191065 0.908877 0.529843 0.125990
H11   H     H_    0.308935 0.408877 0.470157 0.125990
H12   H     H_    0.691065 0.408877 0.529843 0.125990
H13   H     H_    0.795511 0.910031 0.589177 0.122466
H14   H     H_    0.204489 0.910031 0.410823 0.122466
H15   H     H_    0.295511 0.410031 0.589177 0.122466
H16   H     H_    0.704489 0.410031 0.410823 0.122466
H17   H     H_    0.046720 0.151047 0.443188 0.130149
H18   H     H_    0.953280 0.151047 0.556812 0.130149
H19   H     H_    0.546720 0.651047 0.443188 0.130149
H20   H     H_    0.453280 0.651047 0.556812 0.130149
H21   H     H_    0.959890 0.161171 0.433596 0.108790
H22   H     H_    0.040110 0.161171 0.566404 0.108791
H23   H     H_    0.459890 0.661171 0.433596 0.108790
H24   H     H_    0.540110 0.661171 0.566404 0.108791
H25   H     H_    0.616317 0.890425 0.457752 0.109691
H26   H     H_    0.383683 0.890425 0.542248 0.109691
H27   H     H_    0.116316 0.390425 0.457752 0.109691
H28   H     H_    0.883683 0.390425 0.542248 0.109691
H29   H     H_    0.599551 0.835177 0.578165 0.105437
H30   H     H_    0.400449 0.835177 0.421834 0.105437
H31   H     H_    0.099551 0.335177 0.578165 0.105437
H32   H     H_    0.900449 0.335177 0.421834 0.105437
H33   H     H_    0.938845 0.477775 0.416742 0.126938
H34   H     H_    0.061155 0.477775 0.583258 0.126939
H35   H     H_    0.438845 0.977775 0.416742 0.126938
H36   H     H_    0.561155 0.977775 0.583258 0.126939
H37   H     H_    0.947287 0.500039 0.535306 0.130208
H38   H     H_    0.052713 0.500039 0.464694 0.130208
H39   H     H_    0.447287 0.000039 0.535306 0.130208
H40   H     H_    0.552713 0.000039 0.464694 0.130208
H41   H     H_    0.831479 0.933026 0.064345 0.174616
H42   H     H_    0.168521 0.933026 0.935655 0.174618
H43   H     H_    0.331479 0.433026 0.064345 0.174616
H44   H     H_    0.668520 0.433026 0.935655 0.174618
H45   H     H_    0.687697 0.220145 0.439377 0.108618
H46   H     H_    0.312302 0.220145 0.560623 0.108618
H47   H     H_    0.187697 0.720145 0.439377 0.108618
H48   H     H_    0.812302 0.720145 0.560623 0.108618
H49   H     H_    0.858202 0.079621 0.065363 0.120880
H50   H     H_    0.141798 0.079622 0.934637 0.120880
H51   H     H_    0.358202 0.579621 0.065363 0.120880
H52   H     H_    0.641798 0.579622 0.934637 0.120880
H53   H     H_    0.867370 0.036486 0.947979 0.149232
H54   H     H_    0.132631 0.036485 0.052021 0.149233
H55   H     H_    0.367370 0.536486 0.947979 0.149232
H56   H     H_    0.632631 0.536485 0.052021 0.149233
H57   H     H_    0.802217 0.930599 0.945995 0.130447
H58   H     H_    0.197785 0.930600 0.054005 0.130448
H59   H     H_    0.302217 0.430599 0.945995 0.130447
H60   H     H_    0.697785 0.430600 0.054005 0.130448
H61   H     H_    0.694731 0.929699 0.032612 0.069575
H62   H     H_    0.305267 0.929698 0.967391 0.069573
H63   H     H_    0.194731 0.429699 0.032612 0.069575
H64   H     H_    0.805267 0.429698 0.967391 0.069573
H65   H     H_    0.683884 0.975846 0.915976 0.075733
H66   H     H_    0.316119 0.975853 0.084025 0.075729
H67   H     H_    0.183884 0.475845 0.915976 0.075733
H68   H     H_    0.816119 0.475853 0.084025 0.075729
H69   H     H_    0.696572 0.239265 0.076752 0.175843
H70   H     H_    0.303427 0.239265 0.923247 0.175847
H71   H     H_    0.196572 0.739265 0.076752 0.175843
H72   H     H_    0.803427 0.739265 0.923247 0.175847
H73   H     H_    0.785134 0.247591 0.098538 0.093399
H74   H     H_    0.214866 0.247591 0.901460 0.093400
H75   H     H_    0.285134 0.747591 0.098538 0.093399
H76   H     H_    0.714866 0.747591 0.901460 0.093400
H77   H     H_    0.814789 0.248335 0.983524 0.102477
H78   H     H_    0.185210 0.248337 0.016474 0.102479
H79   H     H_    0.314789 0.748335 0.983524 0.102477
H80   H     H_    0.685210 0.748337 0.016474 0.102479
H81   H     H_    0.731724 0.291651 0.960233 0.153897
H82   H     H_    0.268275 0.291653 0.039765 0.153885
H83   H     H_    0.231724 0.791651 0.960233 0.153897
H84   H     H_    0.768275 0.791653 0.039765 0.153885
H85   H     H_    0.638928 0.046938 0.053497 0.161661
H86   H     H_    0.361071 0.046933 0.946501 0.161668
H87   H     H_    0.138928 0.546938 0.053497 0.161661
H88   H     H_    0.861071 0.546932 0.946501 0.161668
H89   H     H_    0.687413 0.237111 0.561398 0.137953
H90   H     H_    0.312586 0.237111 0.438602 0.137953
H91   H     H_    0.187413 0.737111 0.561398 0.137953
H92   H     H_    0.812586 0.737111 0.438602 0.137953
H93   H     H_    0.032415 0.544051 0.061063 0.176556
H94   H     H_    0.967584 0.544051 0.938938 0.176565
H95   H     H_    0.532415 0.044051 0.061063 0.176556
H96   H     H_    0.467584 0.044051 0.938938 0.176565
H97   H     H_    0.947825 0.499075 0.055950 0.168073
H98   H     H_    0.052174 0.499075 0.944053 0.168076
H99   H     H_    0.447825 0.999075 0.055950 0.168073
H100  H     H_    0.552174 0.999075 0.944053 0.168076
H101  H     H_    0.606711 0.847716 0.038364 0.103979
H102  H     H_    0.393288 0.847717 0.961637 0.103978
H103  H     H_    0.106711 0.347716 0.038364 0.103979
H104  H     H_    0.893288 0.347717 0.961637 0.103978
H105  H     H_    0.598062 0.810766 0.916652 0.104139
H106  H     H_    0.401936 0.810766 0.083349 0.104135
H107  H     H_    0.098062 0.310766 0.916652 0.104139
H108  H     H_    0.901936 0.310766 0.083349 0.104135
H109  H     H_    0.954419 0.183020 0.068572 0.126397
H110  H     H_    0.045580 0.183021 0.931428 0.126396
H111  H     H_    0.454419 0.683020 0.068572 0.126397
H112  H     H_    0.545580 0.683021 0.931428 0.126396
H113  H     H_    0.922235 0.199012 0.949318 0.141107
H114  H     H_    0.077764 0.199012 0.050682 0.141107
H115  H     H_    0.422235 0.699012 0.949318 0.141107
H116  H     H_    0.577763 0.699012 0.050682 0.141107
H117  H     H_    0.648904 0.100939 0.571187 0.111247
H118  H     H_    0.351096 0.100938 0.428813 0.111246
H119  H     H_    0.148904 0.600939 0.571187 0.111247
H120  H     H_    0.851096 0.600938 0.428813 0.111246
H121  H     H_    0.722279 0.869159 0.463127 0.108161
H122  H     H_    0.277721 0.869159 0.536874 0.108161
H123  H     H_    0.222279 0.369159 0.463127 0.108161
H124  H     H_    0.777721 0.369159 0.536874 0.108161
H125  H     H_    0.705375 0.923866 0.583681 0.106410
H126  H     H_    0.294625 0.923866 0.416319 0.106410
H127  H     H_    0.205375 0.423866 0.583681 0.106410
H128  H     H_    0.794625 0.423866 0.416319 0.106410
H129  H     H_    0.854912 0.090755 0.422737 0.124040
H130  H     H_    0.145087 0.090755 0.577262 0.124039
H131  H     H_    0.354912 0.590755 0.422737 0.124040
H132  H     H_    0.645087 0.590755 0.577262 0.124039
H133  H     H_    0.804115 0.221180 0.428065 0.105311
H134  H     H_    0.195885 0.221180 0.571935 0.105311
H135  H     H_    0.304115 0.721180 0.428065 0.105311
H136  H     H_    0.695885 0.721180 0.571935 0.105311
H137  H     H_    0.841376 0.219676 0.548835 0.111310
H138  H     H_    0.158624 0.219676 0.451164 0.111310
H139  H     H_    0.341376 0.719676 0.548835 0.111310
H140  H     H_    0.658624 0.719676 0.451164 0.111310
O1    O     O_R   0.957210 0.449410 0.665480 -0.526417
O2    O     O_R   0.042790 0.449410 0.334520 -0.526418
O3    O     O_R   0.457210 0.949410 0.665480 -0.526417
O4    O     O_R   0.542790 0.949410 0.334520 -0.526418
O5    O     O_R   0.736260 0.212010 0.826560 -0.461092
O6    O     O_R   0.263740 0.212010 0.173440 -0.461086
O7    O     O_R   0.236260 0.712010 0.826560 -0.461092
O8    O     O_R   0.763740 0.712010 0.173440 -0.461086
O9    O     O_R   0.832520 0.095300 0.836000 -0.538011
O10   O     O_R   0.167480 0.095300 0.164000 -0.538011
O11   O     O_R   0.332520 0.595300 0.836000 -0.538011
O12   O     O_R   0.667480 0.595300 0.164000 -0.538011
O13   O     O_R   0.946380 0.253940 0.826940 -0.516071
O14   O     O_R   0.053620 0.253940 0.173060 -0.516070
O15   O     O_R   0.446380 0.753940 0.826940 -0.516071
O16   O     O_R   0.553620 0.753940 0.173060 -0.516070
O17   O     O_3   0.834560 0.334570 0.748840 -0.289023
O18   O     O_3   0.165440 0.334570 0.251160 -0.289023
O19   O     O_3   0.334560 0.834570 0.748840 -0.289023
O20   O     O_3   0.665440 0.834570 0.251160 -0.289023
O21   O     O_R   0.820730 0.541240 0.668250 -0.516816
O22   O     O_R   0.179270 0.541240 0.331750 -0.516816
O23   O     O_R   0.320730 0.041240 0.668250 -0.516816
O24   O     O_R   0.679270 0.041240 0.331750 -0.516816
O25   O     O_R   0.714240 0.455060 0.663710 -0.531350
O26   O     O_R   0.285760 0.455060 0.336290 -0.531349
O27   O     O_R   0.214240 0.955060 0.663710 -0.531350
O28   O     O_R   0.785760 0.955060 0.336290 -0.531349
O29   O     O_R   0.736780 0.204870 0.675910 -0.507152
O30   O     O_R   0.263220 0.204870 0.324090 -0.507152
O31   O     O_R   0.236780 0.704870 0.675910 -0.507152
O32   O     O_R   0.763220 0.704870 0.324090 -0.507152
O33   O     O_R   0.833070 0.087590 0.673490 -0.529738
O34   O     O_R   0.166930 0.087590 0.326510 -0.529738
O35   O     O_R   0.333070 0.587590 0.673490 -0.529738
O36   O     O_R   0.666930 0.587590 0.326510 -0.529738
O37   O     O_R   0.946890 0.246800 0.676300 -0.513746
O38   O     O_R   0.053110 0.246800 0.323700 -0.513746
O39   O     O_R   0.446890 0.746800 0.676300 -0.513746
O40   O     O_R   0.553110 0.746800 0.323700 -0.513746
O41   O     O_R   0.956650 0.457120 0.827980 -0.508399
O42   O     O_R   0.043350 0.457120 0.172020 -0.508404
O43   O     O_R   0.456650 0.957120 0.827980 -0.508399
O44   O     O_R   0.543350 0.957120 0.172020 -0.508404
O45   O     O_R   0.820220 0.548390 0.818890 -0.509266
O46   O     O_R   0.179780 0.548390 0.181110 -0.509267
O47   O     O_R   0.320220 0.048390 0.818890 -0.509266
O48   O     O_R   0.679780 0.048390 0.181110 -0.509267
O49   O     O_R   0.713680 0.462770 0.826210 -0.524683
O50   O     O_R   0.286320 0.462770 0.173790 -0.524679
O51   O     O_R   0.213680 0.962770 0.826210 -0.524683
O52   O     O_R   0.786320 0.962770 0.173790 -0.524679
C121  C     C_2   0.634773 0.144444 0.926598 0.537933
O53   O     O_2   0.612697 0.142900 0.865237 -0.505929
O54   O     O_R   0.606744 0.222255 0.976306 -0.754099
H141  H     H_    0.569536 0.273267 0.954828 0.334979
C122  C     C_2   0.365227 0.144453 0.073396 0.537931
O55   O     O_2   0.387300 0.142926 0.134758 -0.505923
O56   O     O_R   0.393263 0.222245 0.023682 -0.754098
H142  H     H_    0.430473 0.273260 0.045156 0.334979
C123  C     C_2   0.134773 0.644444 0.926598 0.537933
O57   O     O_2   0.112697 0.642900 0.865237 -0.505929
O58   O     O_R   0.106744 0.722255 0.976306 -0.754099
H143  H     H_    0.069536 0.773267 0.954828 0.334979
C124  C     C_2   0.865227 0.644453 0.073396 0.537931
O59   O     O_2   0.887300 0.642926 0.134758 -0.505923
O60   O     O_R   0.893263 0.722245 0.023682 -0.754098
H144  H     H_    0.930473 0.773260 0.045156 0.334979

loop_
_geom_bond_atom_site_label_1
_geom_bond_atom_site_label_2
_ccdc_geom_bond_type
C78   H94   S    
C5    H133  S    
C82   C94   S    
C119  H11   S    
C120  H12   S    
C21   H5    S    
C53   C69   S    
C104  O8    A    
C70   C122  S    
C124  O59   D    
C43   C63   S    
C123  O57   D    
C44   C64   S    
C69   C121  S    
Cr6   O6    S    
C84   H115  S    
C112  H4    S    
C63   C98   S    
Cr2   O2    S    
C19   H127  S    
C31   H40   S    
C28   C40   S    
C71   C123  S    
C30   C38   S    
C79   H95   S    
Cr9   O33   S    
C56   C72   S    
C45   O33   A    
C8    H132  S    
C18   C118  S    
C81   C86   S    
C83   C88   S    
C87   H106  S    
C48   O32   A    
C74   H82   S    
C89   O1    A    
C41   C49   S    
C111  H3    S    
C54   H86   S    
Cr1   O45   S    
Cr2   O42   S    
C109  H1    S    
Cr4   O48   S    
C26   C38   S    
Cr10  O34   S    
C14   C114  S    
Cr11  O39   S    
C60   C76   S    
C36   H36   S    
C24   H8    S    
Cr8   O52   S    
C30   H37   S    
C6    C10   S    
C54   C70   S    
C48   O36   A    
C68   C72   S    
C23   H139  S    
C97   O45   A    
C13   C21   S    
C99   O47   A    
C113  H89   S    
C31   H25   S    
C64   C97   S    
C36   H29   S    
C15   C115  S    
C20   C120  S    
C1    O25   A    
C77   H97   S    
Cr4   O20   S    
C57   C61   S    
C82   C85   S    
Cr6   O50   S    
C59   C63   S    
C72   C124  S    
Cr11  O19   S    
C60   C64   S    
Cr9   O13   S    
C13   C45   S    
C102  O6    A    
C78   C94   S    
C43   H51   S    
C95   C108  S    
C115  H91   S    
C62   C99   S    
C107  O43   A    
C5    C21   S    
C58   H70   S    
C110  H46   S    
C31   C36   S    
C47   O35   A    
C4    O28   A    
Cr5   O17   S    
C90   O38   A    
C54   H62   S    
Cr1   O21   S    
C84   H102  S    
Cr2   O18   S    
C65   C101  S    
Cr10  O14   S    
Cr3   O23   S    
Cr11  O11   S    
C67   C103  S    
C66   C70   S    
C37   C90   S    
C24   H140  S    
C73   H77   S    
C115  H119  S    
C66   C74   S    
C113  H117  S    
C25   H17   S    
C57   C73   S    
C121  O54   S    
C53   C61   S    
C60   H72   S    
C83   H101  S    
C56   H88   S    
C55   C63   S    
C6    H134  S    
C56   C64   S    
C7    H131  S    
Cr7   O51   S    
C42   C62   S    
C112  H48   S    
Cr5   O29   S    
C76   H80   S    
C70   H66   S    
C56   H64   S    
C122  O56   S    
C1    C12   S    
C43   H43   S    
C80   H100  S    
C2    C11   S    
Cr3   O3    S    
C7    C11   S    
C53   H85   S    
C111  H47   S    
C6    H130  S    
C42   H42   S    
Cr9   O37   S    
C55   H87   S    
C25   C26   S    
C105  O13   A    
O58   H143  S    
C107  O15   A    
C5    C9    S    
C108  O16   A    
C59   H71   S    
C93   C106  S    
C8    C12   S    
C90   O2    A    
C51   C67   S    
C7    H135  S    
C42   C50   S    
Cr2   O46   S    
Cr3   O43   S    
C110  H2    S    
C61   C100  S    
C67   C75   S    
C17   H125  S    
C91   O3    A    
C50   H54   S    
C112  C116  S    
C51   H59   S    
C58   C74   S    
Cr10  O38   S    
C59   H75   S    
C41   H41   S    
C81   H114  S    
C33   H33   S    
C44   H44   S    
C68   C76   S    
C1    O21   A    
C98   O46   A    
C85   H108  S    
C14   C22   S    
C3    O23   A    
C7    C23   S    
C8    C24   S    
C40   C91   S    
C101  O9    A    
Cr7   O27   S    
C99   O51   A    
Cr8   O20   S    
C49   H53   S    
C57   H69   S    
C52   H56   S    
Cr7   O7    S    
C4    C9    S    
Cr4   O24   S    
Cr8   O8    S    
C86   H110  S    
C58   C62   S    
C5    H129  S    
C88   C96   S    
C94   C105  S    
C77   H93   S    
C82   H104  S    
C53   H61   S    
C79   H99   S    
C12   C112  S    
C41   H49   S    
C21   H137  S    
C14   C46   S    
C77   C78   S    
C42   H50   S    
C15   C19   S    
C75   H79   S    
C101  O5    A    
C58   H74   S    
C6    C22   S    
C2    O22   A    
Cr11  O35   S    
Cr6   O18   S    
Cr8   O28   S    
Cr2   O22   S    
C103  O7    A    
Cr3   O19   S    
C46   O34   A    
C82   H113  S    
C17   C117  S    
C19   C119  S    
C27   H23   S    
C73   H81   S    
C81   H103  S    
Cr12  O36   S    
C16   C116  S    
C124  O60   S    
C123  O58   S    
C9    C109  S    
C25   H21   S    
C26   H18   S    
C105  O41   A    
C60   H76   S    
C54   C62   S    
C18   H14   S    
Cr3   O47   S    
C29   C34   S    
C108  O44   A    
C33   C37   S    
C41   C61   S    
C116  H92   S    
C117  H9    S    
O56   H142  S    
C79   C95   S    
Cr5   O25   S    
C76   H84   S    
O60   H144  S    
Cr6   O30   S    
C85   H109  S    
C86   H107  S    
C80   H96   S    
Cr12  O12   S    
C32   H39   S    
C91   O39   A    
C100  O52   A    
C39   C92   S    
C27   H19   S    
C106  O14   A    
C14   C18   S    
C68   C104  S    
C119  H123  S    
C17   H13   S    
C88   H112  S    
C71   H67   S    
C13   C17   S    
C78   H98   S    
C22   H6    S    
Cr5   O49   S    
C19   H15   S    
O54   H141  S    
C104  O12   A    
C43   C51   S    
Cr5   O5    S    
C65   C69   S    
C77   C93   S    
C10   C110  S    
C67   C71   S    
C121  O53   D    
C50   H58   S    
Cr1   O1    S    
C18   H126  S    
C51   H55   S    
C3    O27   A    
C109  H45   S    
C29   C37   S    
C11   C111  S    
C34   H34   S    
C55   H63   S    
C9    C117  S    
C122  O55   D    
C102  O10   A    
C35   C39   S    
C84   C87   S    
C15   C47   S    
C8    H136  S    
C11   C119  S    
C16   C48   S    
C29   H27   S    
C30   H28   S    
C38   C89   S    
C49   C65   S    
C74   H78   S    
C23   H7    S    
Cr7   O31   S    
Cr8   O32   S    
C49   H57   S    
Cr1   O41   S    
C114  H118  S    
C57   H73   S    
C65   C73   S    
C52   H60   S    
Cr4   O44   S    
C118  H122  S    
C25   C37   S    
C12   C120  S    
C27   C39   S    
C83   H116  S    
C35   H35   S    
Cr12  O20   S    
C55   C71   S    
C29   H38   S    
C80   C96   S    
C86   C94   S    
C44   H52   S    
C52   C68   S    
C16   C20   S    
C22   H138  S    
C15   C23   S    
Cr9   O17   S    
C16   C24   S    
C69   H65   S    
C59   C75   S    
C85   C93   S    
C2    O26   A    
C103  O11   A    
C32   H26   S    
C35   H30   S    
C117  H121  S    
C120  H124  S    
C32   C35   S    
C36   C40   S    
C33   H32   S    
C34   H31   S    
C97   O49   A    
C66   C102  S    
Cr7   O19   S    
C116  H120  S    
C114  H90   S    
C87   C95   S    
C46   O30   A    
C10   C118  S    
C72   H68   S    
C81   C93   S    
C87   H111  S    
C83   C95   S    
Cr10  O18   S    
C20   H16   S    
Cr12  O40   S    
Cr9   O9    S    
C50   C66   S    
C100  O48   A    
C20   H128  S    
C28   H20   S    
C45   O29   A    
C26   H22   S    
C92   O4    A    
C84   C96   S    
C106  O42   A    
C92   O40   A    
C110  C114  S    
C30   C33   S    
C34   C38   S    
C96   C107  S    
C47   O31   A    
C4    O24   A    
C118  H10   S    
C89   O37   A    
Cr6   O26   S    
C109  C113  S    
Cr1   O17   S    
Cr10  O10   S    
C3    C10   S    
Cr11  O15   S    
Cr4   O4    S    
C44   C52   S    
Cr12  O16   S    
C88   H105  S    
C75   H83   S    
C31   C39   S    
C32   C40   S    
C79   C80   S    
C98   O50   A    
C27   C28   S    
C28   H24   S    
C111  C115  S    
C13   C113  S    
