data_mof_unit_61207.cif
_audit_creation_date              2012-12-10T20:22:33-0500
_audit_creation_method            fapswitch 2.2
_symmetry_space_group_name_H-M    P1
_symmetry_Int_Tables_number       1
_space_group_crystal_system       triclinic
_cell_length_a                    19.335778
_cell_length_b                    18.46246
_cell_length_c                    15.851206
_cell_angle_alpha                 90.000199
_cell_angle_beta                  90.149691
_cell_angle_gamma                 90.004889
_cell_volume                      5658.63973453

loop_
_atom_site_label
_atom_site_type_symbol
_atom_type_description
_atom_site_fract_x
_atom_site_fract_y
_atom_site_fract_z
_atom_type_partial_charge
Br1   Br    Br    0.499829 0.656650 0.105545 -0.420566
Br2   Br    Br    0.500171 0.343350 0.894455 -0.420566
Br3   Br    Br    0.500175 0.656650 0.894458 -0.419892
Br4   Br    Br    0.499825 0.343350 0.105542 -0.419892
C1    C     C_R   0.365657 0.499997 0.499863 0.865310
C2    C     C_R   0.928255 0.500056 0.500340 0.102242
C3    C     C_R   0.544863 0.725954 0.550879 0.045951
C4    C     C_R   0.455137 0.274046 0.449121 0.045951
C5    C     C_R   0.455138 0.725946 0.449120 0.045897
C6    C     C_R   0.544862 0.274054 0.550880 0.045897
C7    C     C_R   0.545705 0.801947 0.551896 -0.256040
C8    C     C_R   0.454295 0.198053 0.448104 -0.256040
C9    C     C_R   0.454296 0.801939 0.448103 -0.256079
C10   C     C_R   0.545704 0.198061 0.551897 -0.256079
C11   C     C_R   0.500001 0.841349 0.499999 0.111590
C12   C     C_R   0.634343 0.500003 0.500137 0.865311
C13   C     C_R   0.499999 0.158650 0.500000 0.111589
C14   C     C_R   0.488730 0.961976 0.425040 -0.166362
C15   C     C_R   0.511270 0.038024 0.574960 -0.166362
C16   C     C_R   0.511270 0.961978 0.574960 -0.166228
C17   C     C_R   0.488729 0.038022 0.425040 -0.166229
C18   C     C_R   0.499999 0.077306 0.500000 0.112976
C19   C     C_R   0.500001 0.922694 0.500000 0.112976
C20   C     C_R   0.499927 0.500000 0.339204 0.901854
C21   C     C_R   0.500073 0.500000 0.660795 0.901853
C22   C     C_R   0.500063 0.566373 0.956007 0.224223
C23   C     C_R   0.709458 0.500015 0.500402 -0.034223
C24   C     C_R   0.499937 0.433627 0.043993 0.224223
C25   C     C_R   0.499938 0.566373 0.043994 0.223990
C26   C     C_R   0.500061 0.433627 0.956006 0.223990
C27   C     C_R   0.500114 0.500000 0.912955 -0.130016
C28   C     C_R   0.499885 0.500000 0.087045 -0.130016
C29   C     C_1   0.500143 0.500000 0.823910 0.129829
C30   C     C_1   0.499856 0.500000 0.176090 0.129829
C31   C     C_1   0.499875 0.500000 0.250904 -0.122244
C32   C     C_1   0.500125 0.500000 0.749096 -0.122244
C33   C     C_R   0.745602 0.434178 0.500385 -0.178006
C34   C     C_R   0.290542 0.499985 0.499604 -0.034222
C35   C     C_R   0.254398 0.565823 0.499624 -0.178004
C36   C     C_R   0.254409 0.434135 0.499327 -0.177740
C37   C     C_R   0.745591 0.565866 0.500682 -0.177738
C38   C     C_R   0.817230 0.434235 0.500492 -0.166046
C39   C     C_R   0.182770 0.565767 0.499524 -0.166049
C40   C     C_R   0.182782 0.434163 0.499277 -0.166532
C41   C     C_R   0.817218 0.565838 0.500738 -0.166534
C42   C     C_R   0.853146 0.500044 0.500587 0.112193
C43   C     C_R   0.146854 0.499958 0.499432 0.112193
C44   C     C_R   0.963929 0.544667 0.443795 -0.172833
C45   C     C_R   0.036071 0.455336 0.556224 -0.172832
C46   C     C_R   0.035558 0.544614 0.443467 -0.174761
C47   C     C_R   0.964442 0.455389 0.556553 -0.174761
C48   C     C_R   0.071745 0.499947 0.499680 0.102242
H1    H     H_    0.718682 0.382723 0.500064 0.159850
H2    H     H_    0.063643 0.421274 0.600651 0.141782
H3    H     H_    0.062722 0.578652 0.398813 0.140785
H4    H     H_    0.937278 0.421351 0.601207 0.140785
H5    H     H_    0.580276 0.696022 0.590695 0.133704
H6    H     H_    0.419724 0.303978 0.409304 0.133704
H7    H     H_    0.419725 0.696008 0.409304 0.133453
H8    H     H_    0.580275 0.303992 0.590696 0.133453
H9    H     H_    0.582579 0.829516 0.592121 0.144392
H10   H     H_    0.417421 0.170484 0.407878 0.144392
H11   H     H_    0.417422 0.829501 0.407877 0.144214
H12   H     H_    0.281318 0.617278 0.499943 0.159850
H13   H     H_    0.582578 0.170499 0.592123 0.144214
H14   H     H_    0.481056 0.933935 0.365776 0.148145
H15   H     H_    0.518944 0.066065 0.634224 0.148145
H16   H     H_    0.518945 0.933938 0.634223 0.148205
H17   H     H_    0.481054 0.066061 0.365777 0.148205
H18   H     H_    0.281336 0.382689 0.499031 0.159710
H19   H     H_    0.718664 0.617312 0.500975 0.159710
H20   H     H_    0.844615 0.383049 0.499541 0.138198
H21   H     H_    0.155385 0.616953 0.500477 0.138198
H22   H     H_    0.155398 0.382969 0.498315 0.138041
H23   H     H_    0.844602 0.617033 0.501703 0.138041
H24   H     H_    0.936358 0.578728 0.399368 0.141782
N1    N     N_R   0.500000 0.689440 0.500000 -0.100035
N2    N     N_R   0.500000 0.310560 0.500000 -0.100035
O1    O     O_R   0.398180 0.560840 0.499980 -0.628471
O2    O     O_R   0.601820 0.439160 0.500020 -0.628471
O3    O     O_R   0.601820 0.560840 0.500020 -0.628528
O4    O     O_R   0.398180 0.439160 0.499980 -0.628528
O5    O     O_R   0.499980 0.560800 0.378020 -0.606794
O6    O     O_R   0.500020 0.439200 0.621980 -0.606795
O7    O     O_R   0.500020 0.560800 0.621980 -0.606589
O8    O     O_R   0.499980 0.439200 0.378020 -0.606589
Zn1   Zn    Zn3+2 0.500000 0.581210 0.500000 0.971453
Zn2   Zn    Zn3+2 0.500000 0.418790 0.500000 0.971453

loop_
_geom_bond_atom_site_label_1
_geom_bond_atom_site_label_2
_ccdc_geom_bond_type
C39   H21   S    
O5    Zn1   S    
C14   C17   A    
C44   H24   S    
C15   C16   A    
O1    Zn1   S    
C6    N2    A    
C41   C42   A    
C3    C7    A    
C35   H12   S    
C2    C44   A    
C20   O5    A    
C47   H4    S    
C25   C28   A    
C26   C27   A    
O8    Zn2   S    
C45   H2    S    
C29   C32   T    
C30   C31   T    
C38   C42   A    
C33   C38   A    
C5    C9    A    
C4    H6    S    
C7    C11   A    
C45   C47   A    
C8    C13   A    
C21   O6    A    
C46   C48   A    
C27   C29   S    
C15   H15   S    
C2    C47   A    
C1    O1    A    
C40   C43   A    
C37   H19   S    
C33   H1    S    
C12   C23   S    
C44   C46   A    
C22   C27   A    
C1    C34   S    
C4    N2    A    
C10   C13   A    
C21   O7    A    
Br4   C24   S    
O7    Zn1   S    
C20   C31   S    
C14   C19   A    
O6    Zn2   S    
C24   C28   A    
C15   C18   A    
C6    C10   A    
C35   C39   A    
C17   H17   S    
C12   O2    A    
C28   C30   S    
C6    H8    S    
C8    H10   S    
C23   C37   A    
C9    H11   S    
C16   C19   A    
C4    C8    A    
C45   C48   A    
Br1   C25   S    
C5    N1    A    
C40   H22   S    
O3    Zn1   S    
C36   H18   S    
C9    C11   A    
C3    N1    A    
N2    Zn2   S    
C2    C42   S    
C16   H16   S    
Br3   C22   S    
C46   H3    S    
C7    H9    S    
C43   C48   S    
C14   H14   S    
C13   C18   S    
Br2   C26   S    
C41   H23   S    
C24   C26   A    
O2    Zn2   S    
C34   C36   A    
C1    O4    A    
C34   C35   A    
C20   O8    A    
C23   C33   A    
O4    Zn2   S    
C11   C19   S    
C12   O3    A    
C10   H13   S    
C21   C32   S    
C36   C40   A    
N1    Zn1   S    
C22   C25   A    
C37   C41   A    
C5    H7    S    
C38   H20   S    
C17   C18   A    
C39   C43   A    
C3    H5    S    
