data_mof_unit_61109.cif
_audit_creation_date              2012-12-10T16:58:11-0500
_audit_creation_method            fapswitch 2.2
_symmetry_space_group_name_H-M    P1
_symmetry_Int_Tables_number       1
_space_group_crystal_system       triclinic
_cell_length_a                    21.777278
_cell_length_b                    21.770204
_cell_length_c                    22.209389
_cell_angle_alpha                 59.771971
_cell_angle_beta                  118.702814
_cell_angle_gamma                 90.039956
_cell_volume                      7565.2403875

loop_
_atom_site_label
_atom_site_type_symbol
_atom_type_description
_atom_site_fract_x
_atom_site_fract_y
_atom_site_fract_z
_atom_type_partial_charge
C1    C     C_R   0.620049 0.498579 0.502793 0.781451
C2    C     C_3   0.289443 0.711234 0.082407 0.188048
C3    C     C_3   0.192399 0.725463 0.974217 -0.155377
C4    C     C_3   0.206671 0.793194 0.917553 0.187773
C5    C     C_3   0.206913 0.755105 0.028745 -0.160132
C6    C     C_3   0.220449 0.823581 0.970618 -0.159499
C7    C     C_1   0.335892 0.665083 0.174262 -0.073184
C8    C     C_1   0.160991 0.838518 0.825703 -0.072740
C9    C     C_R   0.747328 0.361150 0.625676 -0.169868
C10   C     C_R   0.804029 0.293853 0.676661 -0.139479
C11   C     C_R   0.862405 0.291396 0.667188 -0.136694
C12   C     C_R   0.419910 0.580643 0.339710 0.812064
C13   C     C_R   0.865697 0.356788 0.608862 -0.169108
C14   C     C_R   0.810561 0.426206 0.558827 0.097807
C15   C     C_R   0.748285 0.427617 0.563933 0.096703
C16   C     C_R   0.689267 0.495640 0.507810 -0.095912
C17   C     C_R   0.694421 0.561508 0.451833 -0.200057
C18   C     C_R   0.756764 0.560716 0.449360 -0.199503
C19   C     C_R   0.815093 0.493977 0.502527 -0.102844
C20   C     C_3   0.717917 0.200585 0.030164 -0.156551
C21   C     C_3   0.685154 0.287252 0.972650 -0.154260
C22   C     C_1   0.625276 0.373306 0.750199 -0.166329
C23   C     C_R   0.382376 0.499128 0.501564 0.802140
C24   C     C_1   0.876102 0.124326 0.249809 -0.173566
C25   C     C_3   0.741666 0.202978 0.973677 -0.160617
C26   C     C_3   0.709609 0.288949 0.917582 0.187244
C27   C     C_3   0.817074 0.208676 0.027377 -0.159551
C28   C     C_3   0.792603 0.207003 0.082428 0.188660
C29   C     C_3   0.784293 0.295358 0.969847 -0.155778
C30   C     C_3   0.760526 0.292973 0.026297 -0.154370
C31   C     C_1   0.663316 0.335011 0.825733 -0.073092
C32   C     C_1   0.838610 0.161576 0.174280 -0.073031
C33   C     C_R   0.246589 0.610891 0.351274 -0.141370
C34   C     C_R   0.580091 0.419356 0.660285 0.816992
C35   C     C_R   0.182639 0.669637 0.279801 -0.132911
C36   C     C_R   0.119457 0.677899 0.279588 -0.162332
C37   C     C_R   0.119345 0.626405 0.350019 -0.162575
C38   C     C_R   0.183045 0.564266 0.423272 0.104355
C39   C     C_R   0.248354 0.558571 0.424317 0.055396
C40   C     C_R   0.314289 0.500991 0.498126 -0.156328
C41   C     C_R   0.316673 0.447920 0.570599 0.246574
C42   C     C_R   0.251387 0.452061 0.567944 -0.216464
C43   C     C_R   0.184797 0.508353 0.495811 -0.176298
C44   C     C_R   0.998464 0.882838 0.496924 0.782106
C45   C     C_3   0.289194 0.749318 0.971269 -0.154518
C46   C     C_R   0.079735 0.919806 0.660274 0.812314
C47   C     C_R   0.999766 0.118706 0.499368 0.780615
C48   C     C_R   0.920254 0.079936 0.339726 0.808970
C49   C     C_R   0.001561 0.619442 0.499285 0.793331
C50   C     C_R   0.881203 0.497627 0.500632 0.793262
C51   C     C_R   0.997657 0.379941 0.501436 0.798225
C52   C     C_R   0.118712 0.504050 0.498780 0.814388
C53   C     C_R   0.014753 0.877832 0.375455 -0.169418
C54   C     C_R   0.031982 0.871635 0.325454 -0.139096
C55   C     C_R   0.043891 0.803601 0.335181 -0.137337
C56   C     C_3   0.303698 0.778982 0.025744 -0.154724
C57   C     C_R   0.035882 0.742293 0.392735 -0.169681
C58   C     C_R   0.015596 0.747932 0.441749 0.097902
C59   C     C_R   0.009111 0.815429 0.436495 0.096707
C60   C     C_R   0.996305 0.818697 0.491760 -0.096893
C61   C     C_R   0.985426 0.757894 0.546868 -0.199827
C62   C     C_R   0.988641 0.693040 0.549404 -0.199955
C63   C     C_R   0.003163 0.687502 0.497191 -0.101865
C64   C     C_R   0.030447 0.104924 0.647896 -0.164131
C65   C     C_R   0.040961 0.098389 0.717969 -0.132619
C66   C     C_R   0.035479 0.161539 0.718428 -0.159440
C67   C     C_1   0.374264 0.626717 0.249793 -0.175668
C68   C     C_R   0.020653 0.231363 0.649434 -0.182126
C69   C     C_R   0.011059 0.240060 0.577301 0.105876
C70   C     C_R   0.014305 0.175365 0.576555 0.095896
C71   C     C_R   0.002140 0.182166 0.504850 -0.079951
C72   C     C_R   0.989014 0.250717 0.435849 -0.209444
C73   C     C_R   0.986500 0.314031 0.436051 -0.191234
C74   C     C_R   0.997531 0.310301 0.505559 -0.118174
C75   C     C_1   0.123769 0.875608 0.750181 -0.175219
C76   C     C_3   0.275617 0.680907 0.029290 -0.154539
Cu1   Cu    Cu3+1 0.500040 0.438210 0.499990 0.948999
Cu2   Cu    Cu3+1 0.499960 0.561790 0.500010 0.960417
Cu3   Cu    Cu3+1 0.061810 0.999860 0.500010 0.954496
Cu4   Cu    Cu3+1 0.938190 0.999990 0.499990 0.954862
Cu5   Cu    Cu3+1 0.958570 0.541460 0.417120 0.938683
Cu6   Cu    Cu3+1 0.041430 0.458560 0.582880 0.936250
H1    H     H_    0.349964 0.800505 0.047914 0.131915
H2    H     H_    0.905512 0.238748 0.705494 0.134240
H3    H     H_    0.910872 0.352352 0.602197 0.132344
H4    H     H_    0.759812 0.612751 0.406171 0.155768
H5    H     H_    0.630389 0.320034 0.949152 0.133505
H6    H     H_    0.691105 0.161117 0.055954 0.132661
H7    H     H_    0.768779 0.329513 0.048900 0.131793
H8    H     H_    0.811101 0.334826 0.944047 0.132332
H9    H     H_    0.871826 0.175873 0.050873 0.129447
H10   H     H_    0.733396 0.166466 0.951038 0.130783
H11   H     H_    0.322562 0.747400 0.946677 0.134379
H12   H     H_    0.294505 0.607042 0.348476 0.128176
H13   H     H_    0.182387 0.709331 0.224722 0.128790
H14   H     H_    0.070060 0.724568 0.224455 0.128197
H15   H     H_    0.068593 0.638352 0.344661 0.153607
H16   H     H_    0.251686 0.409969 0.622078 0.176812
H17   H     H_    0.975538 0.760205 0.589196 0.154383
H18   H     H_    0.005066 0.932100 0.364828 0.147598
H19   H     H_    0.036757 0.919637 0.279524 0.132924
H20   H     H_    0.058924 0.798399 0.297652 0.134645
H21   H     H_    0.046938 0.690280 0.399560 0.131392
H22   H     H_    0.197217 0.882771 0.945426 0.126979
H23   H     H_    0.979072 0.647044 0.591934 0.155537
H24   H     H_    0.979752 0.255374 0.380984 0.141980
H25   H     H_    0.035576 0.054115 0.650551 0.133764
H26   H     H_    0.053108 0.044154 0.771966 0.130534
H27   H     H_    0.042901 0.156470 0.772748 0.127761
H28   H     H_    0.016687 0.276781 0.655365 0.157078
H29   H     H_    0.976779 0.366308 0.381481 0.165733
H30   H     H_    0.173623 0.756958 0.053447 0.125654
H31   H     H_    0.146135 0.703938 0.952047 0.131982
H32   H     H_    0.298793 0.621744 0.054378 0.134354
H33   H     H_    0.649360 0.613697 0.408834 0.153631
H34   H     H_    0.703589 0.360450 0.636049 0.146734
H35   H     H_    0.802288 0.243301 0.723142 0.133240
O1    O     O_R   0.590210 0.447820 0.500000 -0.586242
O2    O     O_R   0.947780 0.909820 0.499990 -0.582847
O3    O     O_R   0.112650 0.939420 0.620930 -0.572920
O4    O     O_R   0.008260 0.939530 0.620910 -0.586017
O5    O     O_R   0.052220 0.090030 0.500010 -0.580155
O6    O     O_R   0.947830 0.090140 0.500000 -0.583577
O7    O     O_R   0.991740 0.060320 0.379090 -0.590304
O8    O     O_R   0.887350 0.060430 0.379070 -0.575426
O9    O     O_R   0.964960 0.625150 0.430050 -0.594580
O10   O     O_R   0.034940 0.555150 0.570020 -0.580424
O11   O     O_R   0.874830 0.535020 0.430000 -0.580056
O12   O     O_R   0.590150 0.552170 0.500020 -0.583599
O13   O     O_R   0.944810 0.465010 0.569970 -0.594518
O14   O     O_R   0.965060 0.444870 0.429980 -0.580403
O15   O     O_R   0.035040 0.374860 0.569950 -0.603542
O16   O     O_R   0.055190 0.535000 0.430030 -0.601612
O17   O     O_R   0.125170 0.465000 0.570000 -0.583799
O18   O     O_R   0.439580 0.508290 0.379070 -0.572967
O19   O     O_R   0.439510 0.612640 0.379090 -0.585601
O20   O     O_R   0.409850 0.447830 0.499980 -0.595097
O21   O     O_R   0.409790 0.552180 0.500000 -0.576257
O22   O     O_R   0.560490 0.387360 0.620910 -0.595176
O23   O     O_R   0.560420 0.491710 0.620930 -0.573233
O24   O     O_R   0.052170 0.909710 0.500000 -0.586682
N1    N     N_2   0.385444 0.391773 0.645172 -0.430600
H36   H     H_    0.416148 0.364466 0.636915 0.262025
C77   C     C_3   0.392140 0.345955 0.724336 -0.700901
H37   H     H_    0.451129 0.313266 0.775564 0.228514
H38   H     H_    0.360563 0.305982 0.723485 0.223863
H39   H     H_    0.372352 0.381859 0.737512 0.238651

loop_
_geom_bond_atom_site_label_1
_geom_bond_atom_site_label_2
_ccdc_geom_bond_type
C66   C68   A    
C21   C26   S    
C21   H5    S    
C49   C63   S    
C49   O10   A    
Cu5   O9    S    
C27   C29   S    
C52   O17   A    
C41   C42   A    
C54   H19   S    
C35   C36   A    
C51   C74   S    
C4    C8    S    
C45   H11   S    
C33   H12   S    
C37   H15   S    
Cu5   Cu6   S    
C53   C59   A    
C62   H23   S    
Cu3   O24   S    
Cu1   Cu2   S    
C49   O9    A    
C55   H20   S    
C29   C30   S    
C64   H25   S    
C45   C76   S    
C36   C37   A    
Cu2   O12   S    
Cu1   O20   S    
C23   O21   A    
C1    O12   A    
C42   H16   S    
C5    C6    S    
C43   C52   S    
Cu5   O14   S    
C20   C25   S    
C15   C16   A    
C34   O22   A    
C18   C19   A    
C73   C74   A    
C34   O23   A    
C29   H8    S    
C50   O13   A    
C48   O8    A    
C2    C7    S    
C45   C56   S    
C16   C17   A    
C12   O18   A    
C76   H32   S    
C46   O4    A    
C27   H9    S    
C70   C71   A    
C64   C70   A    
Cu6   O13   S    
C9    C10   A    
C65   H26   S    
C61   C62   A    
Cu4   O4    S    
Cu4   O2    S    
C59   C60   A    
C13   C14   A    
C52   O16   A    
C61   H17   S    
C77   H39   S    
C57   H21   S    
Cu2   O21   S    
C46   C75   S    
C12   C67   S    
C73   H29   S    
C4    C45   S    
C53   H18   S    
C22   C34   S    
Cu3   O5    S    
C22   C31   T    
C24   C48   S    
C28   C32   S    
C72   C73   A    
C77   H38   S    
Cu1   O1    S    
C3    H31   S    
C39   C40   A    
C18   H4    S    
C51   O14   A    
C68   C69   A    
C47   O5    A    
C68   H28   S    
C20   C28   S    
C44   O2    A    
C25   C26   S    
C53   C54   A    
C8    C75   T    
C38   C43   A    
C60   C61   A    
Cu6   O17   S    
C24   C32   T    
C37   C38   A    
C36   H14   S    
C47   O6    A    
Cu4   O8    S    
Cu3   O3    S    
C62   C63   A    
C17   C18   A    
C46   O3    A    
C69   C74   A    
C1    C16   S    
C33   C39   A    
C3    C76   S    
C47   C71   S    
C4    C6    S    
C40   C41   A    
C72   H24   S    
C6    H22   S    
C55   C57   A    
Cu5   O11   S    
N1    C77   S    
C2    C5    S    
C50   O11   A    
C42   C43   A    
Cu6   O15   S    
C3    C4    S    
C2    C76   S    
C17   H33   S    
C56   H1    S    
Cu3   O7    S    
C58   C63   A    
C54   C55   A    
C25   H10   S    
C14   C15   A    
C9    H34   S    
C14   C19   A    
C23   O20   A    
Cu1   O22   S    
C6    C56   S    
C77   H37   S    
C3    C5    S    
Cu2   O23   S    
C48   O7    A    
C51   O15   A    
Cu5   O16   S    
C5    H30   S    
C35   H13   S    
C11   H2    S    
C25   C27   S    
C21   C30   S    
C64   C65   A    
C30   H7    S    
C58   C59   A    
C41   N1    S    
C10   H35   S    
C2    C56   S    
C11   C13   A    
C19   C50   S    
C57   C58   A    
C38   C39   A    
C44   C60   S    
C20   H6    S    
C28   C30   S    
C33   C35   A    
C1    O1    A    
C66   H27   S    
C9    C15   A    
C69   C70   A    
Cu6   O10   S    
C10   C11   A    
C7    C67   T    
Cu3   Cu4   S    
C26   C31   S    
C71   C72   A    
C20   C21   S    
C26   C29   S    
C65   C66   A    
C12   O19   A    
C13   H3    S    
C27   C28   S    
N1    H36   S    
C44   O24   A    
Cu1   O18   S    
Cu2   O19   S    
C23   C40   S    
Cu4   O6    S    
