data_mof_unit_54384.cif
_audit_creation_date              2013-03-05T15:46:33-0500
_audit_creation_method            fapswitch 2.2
_symmetry_space_group_name_H-M    P1
_symmetry_Int_Tables_number       1
_space_group_crystal_system       triclinic
_cell_length_a                    17.231956
_cell_length_b                    24.148445
_cell_length_c                    14.947359
_cell_angle_alpha                 89.851232
_cell_angle_beta                  125.594683
_cell_angle_gamma                 90.007149
_cell_volume                      5057.77302276

loop_
_atom_site_label
_atom_site_type_symbol
_atom_site_description
_atom_site_fract_x
_atom_site_fract_y
_atom_site_fract_z
_atom_type_partial_charge
C1    C     C_R   0.309069 0.376328 0.906288 -0.150696
C2    C     C_R   0.650420 0.348359 0.092568 -0.160961
C3    C     C_R   0.809562 0.875232 0.905942 -0.155415
C4    C     C_R   0.152600 0.849118 0.092685 -0.161342
H1    H     H_    0.253853 0.370429 0.820444 0.157921
H2    H     H_    0.682545 0.334649 0.175623 0.151287
H3    H     H_    0.753503 0.869895 0.820075 0.147926
H4    H     H_    0.185250 0.835005 0.175758 0.157946
N1    N     N_R   0.394180 0.396910 0.943210 -0.048082
N2    N     N_R   0.605820 0.396910 0.056790 -0.047132
N3    N     N_R   0.894180 0.896910 0.943210 -0.047021
N4    N     N_R   0.105820 0.896910 0.056790 -0.048673
C5    C     C_R   0.399601 0.621140 0.091238 -0.158923
C6    C     C_R   0.550759 0.653039 0.907229 -0.160062
C7    C     C_R   0.898263 0.124044 0.088066 -0.131581
C8    C     C_R   0.052745 0.152522 0.907075 -0.133046
H5    H     H_    0.428136 0.625077 0.176603 0.157721
H6    H     H_    0.495935 0.665930 0.824512 0.155464
H7    H     H_    0.924580 0.132949 0.171146 0.137919
H8    H     H_    0.999914 0.164936 0.823307 0.157523
N5    N     N_R   0.450950 0.603070 0.056740 -0.045072
N6    N     N_R   0.549050 0.603070 0.943260 -0.046958
N7    N     N_R   0.950950 0.103070 0.056740 -0.047105
N8    N     N_R   0.049050 0.103070 0.943260 -0.049787
C9    C     C_R   0.549825 0.454048 0.304156 -0.145094
C10   C     C_R   0.518852 0.453796 0.750217 -0.124668
C11   C     C_R   0.017924 0.953956 0.284950 -0.143135
C12   C     C_R   0.948097 0.954290 0.695664 -0.123015
H9    H     H_    0.567856 0.411566 0.331593 0.090289
H10   H     H_    0.528164 0.410885 0.738889 0.092967
H11   H     H_    0.026508 0.911756 0.312949 0.089447
H12   H     H_    0.932042 0.911637 0.669405 0.084979
N9    N     N_R   0.525650 0.471570 0.206150 -0.037625
N10   N     N_R   0.474350 0.471570 0.793850 -0.037771
N11   N     N_R   0.025650 0.971570 0.206150 -0.036797
N12   N     N_R   0.974350 0.971570 0.793850 -0.037676
C13   C     C_R   0.247019 0.546214 0.695395 -0.163912
C14   C     C_R   0.767818 0.546513 0.246343 -0.145281
C15   C     C_R   0.747212 0.046195 0.695238 -0.165319
C16   C     C_R   0.267864 0.046557 0.246559 -0.143283
H13   H     H_    0.241933 0.588172 0.667309 0.107666
H14   H     H_    0.785988 0.589264 0.248519 0.108822
H15   H     H_    0.742494 0.088057 0.666905 0.104006
H16   H     H_    0.286095 0.089308 0.248973 0.108917
N13   N     N_R   0.319480 0.528420 0.793810 -0.039226
N14   N     N_R   0.680520 0.528420 0.206190 -0.038724
N15   N     N_R   0.819480 0.028420 0.793810 -0.037377
N16   N     N_R   0.180520 0.028420 0.206190 -0.040239
C17   C     C_R   0.550213 0.545794 0.304064 -0.151242
C18   C     C_R   0.519614 0.546341 0.751283 -0.120778
C19   C     C_R   0.019273 0.046034 0.285532 -0.129992
C20   C     C_R   0.948044 0.046391 0.696270 -0.121803
H17   H     H_    0.569094 0.588150 0.331452 0.095615
H18   H     H_    0.530424 0.589289 0.742291 0.080865
H19   H     H_    0.029313 0.088233 0.313541 0.089592
H20   H     H_    0.930803 0.089119 0.670713 0.079665
N17   N     N_R   0.525640 0.528390 0.206120 -0.038422
N18   N     N_R   0.474360 0.528390 0.793880 -0.038453
N19   N     N_R   0.025640 0.028390 0.206120 -0.038252
N20   N     N_R   0.974360 0.028390 0.793880 -0.039133
C21   C     C_R   0.244971 0.454570 0.695058 -0.154328
C22   C     C_R   0.769917 0.454119 0.251259 -0.118762
C23   C     C_R   0.744960 0.954583 0.694959 -0.153208
C24   C     C_R   0.270073 0.954198 0.251514 -0.118670
H21   H     H_    0.235425 0.412377 0.666570 0.096605
H22   H     H_    0.791734 0.411341 0.262811 0.082101
H23   H     H_    0.735397 0.912399 0.666411 0.092513
H24   H     H_    0.292127 0.911462 0.263505 0.085985
N21   N     N_R   0.319490 0.471590 0.793840 -0.039745
N22   N     N_R   0.680510 0.471590 0.206160 -0.039270
N23   N     N_R   0.819490 0.971590 0.793840 -0.038116
N24   N     N_R   0.180510 0.971590 0.206160 -0.040339
C25   C     C_R   0.307580 0.622054 0.907893 -0.125950
C26   C     C_R   0.646993 0.653208 0.088650 -0.156957
C27   C     C_R   0.807828 0.122888 0.905316 -0.139211
C28   C     C_R   0.147873 0.152943 0.088900 -0.162956
H25   H     H_    0.250077 0.627618 0.822470 0.122196
H26   H     H_    0.690365 0.665767 0.173414 0.117660
H27   H     H_    0.751779 0.128180 0.819422 0.124591
H28   H     H_    0.190954 0.165496 0.173640 0.119501
N25   N     N_R   0.394130 0.603080 0.943110 -0.043811
N26   N     N_R   0.605870 0.603080 0.056890 -0.041406
N27   N     N_R   0.894130 0.103080 0.943110 -0.045268
N28   N     N_R   0.105870 0.103080 0.056890 -0.042543
C29   C     C_R   0.398402 0.377608 0.089962 -0.131131
C30   C     C_R   0.561600 0.348399 0.910243 -0.150243
C31   C     C_R   0.900110 0.873966 0.089226 -0.123491
C32   C     C_R   0.065214 0.849583 0.909926 -0.132562
H29   H     H_    0.423102 0.373681 0.174605 0.099217
H30   H     H_    0.516539 0.334611 0.825986 0.088318
H31   H     H_    0.925883 0.864917 0.172489 0.090823
H32   H     H_    0.023085 0.836235 0.825206 0.090517
N29   N     N_R   0.450990 0.396900 0.056840 -0.042319
N30   N     N_R   0.549010 0.396900 0.943160 -0.039876
N31   N     N_R   0.950990 0.896900 0.056840 -0.042204
N32   N     N_R   0.049010 0.896900 0.943160 -0.041633
C33   C     C_R   0.307315 0.365631 0.996423 0.130345
C34   C     C_R   0.626055 0.316628 0.002756 0.153746
C35   C     C_R   0.809034 0.862781 0.996151 0.128453
C36   C     C_R   0.130954 0.818232 0.003012 0.143196
C37   C     C_R   0.307009 0.631866 0.999611 0.117368
C38   C     C_R   0.611970 0.686514 0.995832 0.143496
C39   C     C_R   0.805740 0.133795 0.994846 0.123749
C40   C     C_R   0.114215 0.186040 0.996233 0.136163
C41   C     C_R   0.566333 0.499941 0.368084 0.048500
C42   C     C_R   0.550001 0.500136 0.724244 0.037486
C43   C     C_R   0.003941 0.000103 0.327914 0.048574
C44   C     C_R   0.928392 0.000648 0.631553 0.053577
C45   C     C_R   0.198169 0.500838 0.631073 0.080579
C46   C     C_R   0.826487 0.500829 0.276418 0.071091
C47   C     C_R   0.698394 0.000876 0.630861 0.081128
C48   C     C_R   0.326634 0.000941 0.276672 0.067821
Ni1   Ni    Ni4+2 0.434860 0.434850 0.869700 0.208980
Ni2   Ni    Ni4+2 0.565140 0.434850 0.130300 0.213068
Ni3   Ni    Ni4+2 0.934860 0.934850 0.869700 0.205966
Ni4   Ni    Ni4+2 0.065140 0.934850 0.130300 0.216498
Ni5   Ni    Ni4+2 0.565130 0.565140 0.130240 0.207961
Ni6   Ni    Ni4+2 0.434870 0.565140 0.869760 0.210266
Ni7   Ni    Ni4+2 0.065130 0.065140 0.130240 0.210218
Ni8   Ni    Ni4+2 0.934870 0.065140 0.869760 0.204447
C49   C     C_R   0.073995 0.552416 0.463578 0.161086
C50   C     C_R   0.979723 0.552628 0.373837 0.157852
C51   C     C_R   0.574180 0.052672 0.463738 0.152239
C52   C     C_R   0.479820 0.052902 0.374185 0.159861
C53   C     C_R   0.120038 0.502367 0.513993 0.033534
C54   C     C_R   0.929663 0.502663 0.331682 0.033467
C55   C     C_R   0.620447 0.002597 0.513698 0.034803
C56   C     C_R   0.429854 0.002934 0.331773 0.035418
C57   C     C_R   0.078517 0.453146 0.454191 -0.198634
C58   C     C_R   0.983111 0.453357 0.362389 -0.198337
C59   C     C_R   0.579066 0.953508 0.453404 -0.195214
C60   C     C_R   0.483530 0.953760 0.361759 -0.193040
H33   H     H_    0.114252 0.413655 0.485134 0.133980
H34   H     H_    0.949128 0.414060 0.326109 0.127116
H35   H     H_    0.615078 0.914069 0.483950 0.126801
H36   H     H_    0.449630 0.914586 0.324901 0.122977
C61   C     C_3   0.958870 0.603858 0.412996 -0.516801
C62   C     C_3   0.061895 0.603658 0.510426 -0.523515
C63   C     C_3   0.459002 0.103974 0.413732 -0.514355
C64   C     C_3   0.562109 0.103744 0.510997 -0.524335
H37   H     H_    0.940253 0.639795 0.357197 0.193198
H38   H     H_    0.070516 0.596313 0.589245 0.205985
H39   H     H_    0.440250 0.140005 0.358100 0.192782
H40   H     H_    0.570906 0.096147 0.589826 0.208666
H41   H     H_    0.910091 0.596634 0.437820 0.202159
H42   H     H_    0.102782 0.639274 0.510429 0.195195
H43   H     H_    0.410331 0.096571 0.438646 0.202309
H44   H     H_    0.602898 0.139458 0.511138 0.192969
C65   C     C_R   0.146263 0.677644 0.904742 0.295001
C66   C     C_R   0.686646 0.778280 0.087865 0.282642
C67   C     C_R   0.644799 0.180023 0.896252 0.290086
C68   C     C_R   0.187174 0.278782 0.087994 0.282749
C69   C     C_R   0.609239 0.230625 0.902069 -0.287264
C70   C     C_R   0.240984 0.322699 0.090024 -0.279336
C71   C     C_R   0.112056 0.729533 0.907590 -0.280676
C72   C     C_R   0.743086 0.820623 0.090755 -0.278588
H45   H     H_    0.549870 0.248481 0.826203 0.160568
H46   H     H_    0.293818 0.342377 0.167553 0.160925
H47   H     H_    0.050254 0.746113 0.831969 0.160855
H48   H     H_    0.797119 0.839548 0.168654 0.158875
C73   C     C_R   0.652080 0.258240 0.003323 -0.148368
C74   C     C_R   0.228247 0.339706 0.992877 -0.165923
C75   C     C_R   0.159165 0.760091 0.005896 -0.162553
C76   C     C_R   0.730282 0.837440 0.993508 -0.170942
C77   C     C_R   0.719371 0.228801 0.101600 0.438296
C78   C     C_R   0.146396 0.321415 0.892519 0.417817
C79   C     C_R   0.231321 0.733347 0.105432 0.454998
C80   C     C_R   0.646061 0.821609 0.893207 0.425738
C81   C     C_R   0.253517 0.678281 0.102783 0.375794
C82   C     C_R   0.607508 0.770387 0.890039 0.403445
C83   C     C_R   0.744687 0.175197 0.093690 0.367264
C84   C     C_R   0.111046 0.269402 0.891329 0.376224
C85   C     C_R   0.229648 0.657125 0.001855 -0.175727
C86   C     C_R   0.631465 0.746057 0.990495 -0.156130
C87   C     C_R   0.726155 0.158150 0.993341 -0.157754
C88   C     C_R   0.134228 0.245647 0.991476 -0.148996
C89   C     C_R   0.603925 0.550434 0.625105 -0.171059
C90   C     C_R   0.606309 0.550404 0.534157 -0.169506
C91   C     C_R   0.908570 0.051702 0.479308 -0.166099
C92   C     C_R   0.941304 0.051272 0.414842 -0.175393
H49   H     H_    0.600578 0.589899 0.656554 0.111844
H50   H     H_    0.604546 0.589928 0.498995 0.120378
H51   H     H_    0.901896 0.091293 0.507667 0.111238
H52   H     H_    0.954625 0.090633 0.391839 0.135254
C93   C     C_R   0.599003 0.500161 0.482882 0.141936
C94   C     C_R   0.593181 0.500290 0.664167 0.144037
C95   C     C_R   0.960236 0.000644 0.385789 0.136931
C96   C     C_R   0.900865 0.001519 0.520203 0.136685
C97   C     C_R   0.608704 0.450122 0.536294 -0.181256
C98   C     C_R   0.606279 0.450208 0.627278 -0.170876
C99   C     C_R   0.930409 0.951017 0.405649 -0.175239
C100  C     C_R   0.899191 0.951558 0.472059 -0.178267
H53   H     H_    0.609008 0.410592 0.502798 0.112058
H54   H     H_    0.604937 0.410743 0.660600 0.111134
H55   H     H_    0.936082 0.911540 0.375914 0.108615
H56   H     H_    0.885714 0.912366 0.495751 0.111624
C101  C     C_3   0.090271 0.644961 0.799662 -1.020907
H57   H     H_    0.093852 0.665543 0.735650 0.246338
H58   H     H_    0.116393 0.601641 0.812277 0.250119
H59   H     H_    0.014368 0.642842 0.769845 0.255269
C102  C     C_3   0.685729 0.770874 0.187267 -1.012722
H60   H     H_    0.622334 0.747130 0.167224 0.255866
H61   H     H_    0.752888 0.750788 0.254933 0.242353
H62   H     H_    0.680391 0.811998 0.216506 0.255102
C103  C     C_3   0.591157 0.149751 0.788273 -1.027557
H63   H     H_    0.600187 0.171334 0.729217 0.247573
H64   H     H_    0.614502 0.105914 0.798826 0.250048
H65   H     H_    0.513933 0.148921 0.753175 0.255978
C104  C     C_3   0.187265 0.270503 0.187858 -1.007790
H66   H     H_    0.123684 0.246910 0.167621 0.250867
H67   H     H_    0.254420 0.249939 0.254375 0.242824
H68   H     H_    0.182845 0.311313 0.218831 0.251850
O1    O     O_3   0.758279 0.250206 0.205259 -0.661794
C105  C     C_3   0.844666 0.278384 0.243450 0.181829
H69   H     H_    0.847930 0.315271 0.289689 0.113242
H70   H     H_    0.848968 0.294299 0.176172 0.068098
C106  C     C_3   0.931414 0.241978 0.322693 -0.231134
H71   H     H_    0.922025 0.222084 0.382912 0.217524
H72   H     H_    0.938044 0.209135 0.275953 0.200289
C107  C     C_3   0.023356 0.275829 0.384471 -1.073452
H73   H     H_    0.033148 0.296865 0.325499 0.273550
H74   H     H_    0.085261 0.248029 0.437825 0.283423
H75   H     H_    0.021330 0.307368 0.437068 0.274182
O2    O     O_3   0.112149 0.346654 0.792595 -0.667549
C108  C     C_3   0.074598 0.399646 0.787439 0.182947
H76   H     H_    0.079459 0.425131 0.728855 0.133505
H77   H     H_    0.115896 0.422202 0.867384 0.092438
C109  C     C_3   0.969400 0.395047 0.743853 -0.276234
H78   H     H_    0.929547 0.372509 0.664237 0.218287
H79   H     H_    0.963479 0.371213 0.803342 0.193318
C110  C     C_3   0.924390 0.452076 0.726569 -1.008473
H80   H     H_    0.962351 0.475106 0.805502 0.268491
H81   H     H_    0.848422 0.447311 0.695337 0.279365
H82   H     H_    0.927533 0.476239 0.665390 0.269311
O3    O     O_3   0.279447 0.758996 0.206941 -0.652705
C111  C     C_3   0.357072 0.790144 0.224712 0.172975
H83   H     H_    0.371836 0.823569 0.283460 0.119198
H84   H     H_    0.340509 0.810999 0.148689 0.078598
C112  C     C_3   0.447307 0.754547 0.276352 -0.229058
H85   H     H_    0.458945 0.730628 0.346861 0.234600
H86   H     H_    0.438469 0.725122 0.214200 0.191950
C113  C     C_3   0.535078 0.790100 0.316657 -1.077954
H87   H     H_    0.524731 0.814826 0.247676 0.279599
H88   H     H_    0.598451 0.762988 0.350322 0.278951
H89   H     H_    0.548649 0.818431 0.382758 0.270630
O4    O     O_3   0.609100 0.849868 0.795284 -0.678197
C114  C     C_3   0.583463 0.904691 0.801604 0.176923
H90   H     H_    0.582069 0.929592 0.738048 0.135062
H91   H     H_    0.636196 0.925155 0.881779 0.100413
C115  C     C_3   0.483755 0.906042 0.776682 -0.274942
H92   H     H_    0.431880 0.886384 0.695566 0.218574
H93   H     H_    0.484156 0.882266 0.840719 0.192652
C116  C     C_3   0.452025 0.965358 0.774325 -1.013552
H94   H     H_    0.502231 0.985511 0.855308 0.267073
H95   H     H_    0.379741 0.965043 0.756253 0.275253
H96   H     H_    0.449254 0.989733 0.709368 0.269605
O5    O     O_3   0.313906 0.650930 0.202191 -0.665962
C117  C     C_3   0.272882 0.600397 0.203337 0.188967
H97   H     H_    0.332137 0.572984 0.265332 0.132282
H98   H     H_    0.235189 0.577712 0.123669 0.093709
C118  C     C_3   0.205927 0.610313 0.237934 -0.278421
H99   H     H_    0.244987 0.632940 0.317433 0.220064
H100  H     H_    0.144447 0.636170 0.174881 0.190790
C119  C     C_3   0.168484 0.555870 0.251099 -1.012047
H101  H     H_    0.128028 0.532856 0.172112 0.268761
H102  H     H_    0.120109 0.564528 0.275807 0.273314
H103  H     H_    0.228602 0.529809 0.315700 0.269427
O6    O     O_3   0.543340 0.746776 0.787947 -0.651935
C120  C     C_3   0.592552 0.716371 0.753892 0.184193
H104  H     H_    0.547272 0.680225 0.706929 0.116798
H105  H     H_    0.662576 0.699279 0.823750 0.061536
C121  C     C_3   0.605672 0.750436 0.676744 -0.199887
H106  H     H_    0.540121 0.775030 0.619031 0.233690
H107  H     H_    0.666868 0.779073 0.725957 0.200347
C122  C     C_3   0.626143 0.713408 0.610056 -1.102428
H108  H     H_    0.690355 0.687496 0.665765 0.275606
H109  H     H_    0.639256 0.739501 0.558847 0.285786
H110  H     H_    0.564085 0.686156 0.554701 0.275800
O7    O     O_3   0.795123 0.142015 0.186364 -0.677657
C123  C     C_3   0.735618 0.098404 0.176628 0.202988
H111  H     H_    0.779916 0.060506 0.212040 0.138554
H112  H     H_    0.676518 0.087435 0.090067 0.078913
C124  C     C_3   0.694284 0.112856 0.240756 -0.260347
H113  H     H_    0.752606 0.126416 0.325109 0.213232
H114  H     H_    0.642949 0.147709 0.199015 0.200355
C125  C     C_3   0.643263 0.063425 0.248541 -1.019937
H115  H     H_    0.583762 0.049591 0.165005 0.268845
H116  H     H_    0.613561 0.075531 0.294587 0.271724
H117  H     H_    0.693963 0.028555 0.292751 0.278300
O8    O     O_3   0.053729 0.243092 0.791013 -0.657347
C126  C     C_3   0.112274 0.219000 0.763593 0.217226
H118  H     H_    0.152117 0.183104 0.818752 0.090060
H119  H     H_    0.164766 0.249087 0.770819 0.118007
C127  C     C_3   0.049427 0.199047 0.644614 -0.253978
H120  H     H_    0.993338 0.170977 0.633330 0.183852
H121  H     H_    0.013933 0.235351 0.589166 0.214895
C128  C     C_3   0.108063 0.168414 0.613652 -1.043336
H122  H     H_    0.166696 0.195147 0.627764 0.269288
H123  H     H_    0.061647 0.157189 0.525328 0.269608
H124  H     H_    0.138764 0.129882 0.663199 0.276955

loop_
_geom_bond_atom_site_label_1
_geom_bond_atom_site_label_2
_geom_bond_distance
_ccdc_geom_bond_type
N13   Ni6   1.845493 S    
C68   C104  1.504619 S    
C31   H31   1.071956 S    
C128  H123  1.108482 S    
C126  H118  1.113579 S    
C9    C41   1.382472 A    
C79   O3    1.383295 S    
N9    Ni2   1.854252 S    
N6    N26   1.381152 A    
C15   N15   1.329235 A    
C70   H46   1.082672 S    
C6    C38   1.378105 A    
N2    N30   1.381152 A    
C115  H93   1.111450 S    
C108  C109  1.532453 S    
C22   N22   1.340050 A    
C16   N16   1.328636 A    
C101  H58   1.110325 S    
N5    Ni5   1.842850 S    
C8    C40   1.383942 A    
C122  H108  1.110931 S    
C121  H106  1.111751 S    
C113  H88   1.110495 S    
C4    N4    1.327848 A    
N3    Ni3   1.851855 S    
C13   C45   1.377233 A    
C115  C116  1.526254 S    
C15   C47   1.376305 A    
C27   C39   1.385444 A    
C10   C42   1.389690 A    
C58   H34   1.081833 S    
C25   N25   1.340292 A    
C109  H78   1.111726 S    
C9    H9    1.080137 S    
N8    Ni8   1.845440 S    
C113  H89   1.110601 S    
N13   N21   1.372353 A    
C99   C100  1.377166 A    
C76   C80   1.403594 A    
C42   C94   1.462138 S    
C30   H30   1.078727 S    
C91   C96   1.396593 A    
C11   N11   1.328886 A    
C89   C94   1.401271 A    
N14   Ni5   1.842899 S    
C69   C73   1.408817 A    
C106  C107  1.526960 S    
C94   C98   1.402147 A    
C92   C95   1.399105 A    
C8    H8    1.075923 S    
C5    N5    1.331041 A    
N15   N23   1.372353 A    
C90   H50   1.080240 S    
C57   H33   1.081135 S    
C23   N23   1.340119 A    
C120  H105  1.117067 S    
C13   N13   1.329043 A    
C116  H95   1.110344 S    
C82   C86   1.429736 A    
C114  C115  1.531942 S    
N6    Ni6   1.845440 S    
C125  H117  1.110980 S    
C44   C96   1.440974 S    
C50   C61   1.500321 S    
C63   C64   1.504484 S    
C65   C71   1.396084 A    
C125  H116  1.110076 S    
C84   O8    1.381431 S    
C12   C44   1.379343 A    
N28   Ni7   1.850660 S    
C17   H17   1.080114 S    
C36   C75   1.478158 S    
C19   H19   1.077732 S    
N29   Ni2   1.845322 S    
C67   C69   1.392489 A    
C23   C47   1.382463 A    
C55   C59   1.408238 A    
N14   N22   1.372355 A    
C3    N3    1.329010 A    
C53   C57   1.408736 A    
C19   C43   1.375677 A    
N10   N18   1.372116 A    
C25   H25   1.075433 S    
C66   C102  1.505250 S    
C7    C39   1.396862 A    
C27   H27   1.073882 S    
C109  C110  1.526463 S    
C73   C77   1.421176 A    
C92   H52   1.079138 S    
C77   C83   1.393159 A    
C78   C84   1.391500 A    
C52   C63   1.499984 S    
C37   C85   1.484138 S    
C51   C52   1.379127 A    
C40   C88   1.491223 S    
N21   Ni1   1.842899 S    
C24   H24   1.077702 S    
C126  H119  1.115445 S    
C121  C122  1.526967 S    
N7    Ni7   1.842850 S    
C118  H99   1.111697 S    
C105  H70   1.117696 S    
C17   N17   1.334450 A    
C111  H83   1.109453 S    
O5    C117  1.415266 S    
C20   N20   1.322826 A    
C63   H39   1.111967 S    
C119  H101  1.110852 S    
C31   N31   1.342508 A    
C110  H82   1.111091 S    
N31   Ni4   1.845322 S    
C60   H36   1.080568 S    
C124  C125  1.526272 S    
C102  H61   1.110208 S    
N16   N24   1.372355 A    
C12   H12   1.080321 S    
C107  H73   1.111004 S    
N30   Ni1   1.842732 S    
C103  H64   1.110256 S    
C22   H22   1.077913 S    
C71   H47   1.081002 S    
C72   H48   1.082677 S    
C122  H110  1.110823 S    
C29   C33   1.396236 A    
C123  H111  1.108026 S    
C78   O2    1.385583 S    
C71   C75   1.406981 A    
C106  H71   1.111047 S    
C49   C53   1.399156 A    
C21   H21   1.080362 S    
C51   C55   1.399301 A    
C75   C79   1.420693 A    
O7    C123  1.417228 S    
C104  H66   1.109693 S    
C112  H86   1.108990 S    
C67   C103  1.504345 S    
C46   C54   1.461459 S    
C77   O1    1.382829 S    
N15   Ni8   1.845493 S    
C10   H10   1.077395 S    
C57   C58   1.399870 A    
O4    C114  1.416386 S    
C70   C74   1.396900 A    
C28   H28   1.074560 S    
N5    N25   1.381148 A    
C116  H96   1.111102 S    
C93   C97   1.401848 A    
C111  C112  1.533713 S    
C52   C56   1.402675 A    
C96   C100  1.398072 A    
N1    Ni1   1.851855 S    
C6    N6    1.327435 A    
C117  H97   1.111327 S    
C16   C48   1.381550 A    
C62   H42   1.111749 S    
C119  H103  1.110955 S    
C89   H49   1.080026 S    
C25   C37   1.397535 A    
C108  H77   1.115547 S    
C13   H13   1.079591 S    
C101  H57   1.110204 S    
C99   H55   1.081060 S    
C14   N14   1.328251 A    
C3    C35   1.385927 A    
C16   H16   1.073647 S    
C121  H107  1.109425 S    
C124  H113  1.110840 S    
C81   C85   1.409859 A    
C107  H75   1.111057 S    
C84   C88   1.424434 A    
C9    N9    1.336039 A    
N4    Ni4   1.854763 S    
C28   C40   1.397473 A    
C32   N32   1.339721 A    
C112  H85   1.111501 S    
C123  C124  1.531166 S    
O2    C108  1.415580 S    
C28   N28   1.342514 A    
C109  H79   1.111431 S    
O1    C105  1.420357 S    
N10   Ni1   1.851352 S    
C7    H7    1.067619 S    
C18   H18   1.075547 S    
N7    N27   1.381148 A    
C1    H1    1.073196 S    
C100  H56   1.081216 S    
C61   H41   1.112357 S    
C3    H3    1.074535 S    
C127  H120  1.110287 S    
C54   C58   1.407824 A    
N3    N31   1.381151 A    
C104  H68   1.111192 S    
N11   N19   1.372114 A    
O8    C126  1.416667 S    
C102  H60   1.109796 S    
C74   C78   1.405354 A    
O3    C111  1.418710 S    
C14   C46   1.381968 A    
N2    Ni2   1.854763 S    
C26   C38   1.398404 A    
C80   C82   1.391796 A    
C120  H104  1.108543 S    
C26   N26   1.343150 A    
N16   Ni7   1.842899 S    
C114  H91   1.114176 S    
C67   C87   1.406519 A    
C82   O6    1.384394 S    
C18   N18   1.333366 A    
C91   H51   1.079745 S    
C1    N1    1.327254 A    
C127  C128  1.525989 S    
C79   C81   1.390756 A    
C62   H38   1.112059 S    
C29   H29   1.078602 S    
C17   C41   1.379886 A    
C115  H92   1.111612 S    
C11   H11   1.077618 S    
N25   Ni6   1.853564 S    
N27   Ni8   1.853564 S    
C101  H59   1.110641 S    
C118  C119  1.526351 S    
C11   C43   1.377041 A    
C39   C87   1.480328 S    
C113  H87   1.110972 S    
N11   Ni4   1.854252 S    
C110  H81   1.110729 S    
C49   C50   1.378999 A    
C32   C36   1.397257 A    
C38   C86   1.489030 S    
C59   C60   1.400537 A    
C34   C73   1.478155 S    
N17   Ni5   1.852069 S    
C61   H37   1.111973 S    
N19   Ni7   1.852069 S    
C64   H40   1.111719 S    
C5    H5    1.072000 S    
N24   Ni4   1.845496 S    
C27   N27   1.334290 A    
C116  H94   1.111068 S    
C111  H84   1.116209 S    
N20   Ni8   1.854968 S    
C69   H45   1.079605 S    
C97   C98   1.384709 A    
C30   C34   1.393280 A    
C48   C56   1.462612 S    
C24   C48   1.393108 A    
C91   C92   1.370968 A    
O6    C120  1.421961 S    
C12   N12   1.327754 A    
C119  H102  1.110753 S    
C89   C90   1.383766 A    
C26   H26   1.074927 S    
C120  C121  1.534975 S    
C18   C42   1.389727 A    
N4    N32   1.381152 A    
C20   C44   1.376512 A    
N26   Ni5   1.850660 S    
C80   O4    1.386875 S    
C124  H114  1.111362 S    
C128  H122  1.111084 S    
C6    H6    1.075373 S    
C4    H4    1.076654 S    
C21   C45   1.382126 A    
C64   H44   1.111756 S    
C107  H74   1.109813 S    
C103  H63   1.110205 S    
N22   Ni2   1.845496 S    
C63   H43   1.112326 S    
C122  H109  1.110324 S    
C123  H112  1.117670 S    
C14   H14   1.073850 S    
C59   H35   1.081044 S    
C125  H115  1.110735 S    
C43   C95   1.440207 S    
N18   Ni6   1.854968 S    
C41   C93   1.461806 S    
C30   N30   1.337245 A    
C90   C93   1.402780 A    
C10   N10   1.334691 A    
C32   H32   1.080014 S    
N32   Ni3   1.842732 S    
C95   C99   1.401470 A    
C7    N7    1.340262 A    
C8    N8    1.326416 A    
C66   C72   1.394411 A    
C81   O5    1.386387 S    
C2    H2    1.074776 S    
C29   N29   1.343227 A    
C56   C60   1.407624 A    
C31   C35   1.389848 A    
C23   H23   1.080435 S    
C126  C127  1.526453 S    
C1    C33   1.388670 A    
C118  H100  1.111442 S    
C105  H69   1.110090 S    
C15   H15   1.079634 S    
C128  H124  1.111155 S    
C83   C87   1.402457 A    
C51   C64   1.496309 S    
C49   C62   1.496505 S    
C50   C54   1.402818 A    
C117  H98   1.114874 S    
C97   H53   1.080493 S    
C22   C46   1.392547 A    
C108  H76   1.111377 S    
N23   Ni3   1.842899 S    
C72   C76   1.396475 A    
C45   C53   1.460656 S    
C66   C86   1.422174 A    
C68   C70   1.397362 A    
C4    C36   1.383874 A    
C47   C55   1.460893 S    
C102  H62   1.111187 S    
C117  C118  1.533356 S    
C19   N19   1.325427 A    
C5    C37   1.393934 A    
C2    N2    1.330331 A    
N1    N29   1.381151 A    
C83   O7    1.381739 S    
C103  H65   1.110773 S    
C21   N21   1.339351 A    
N9    N17   1.372114 A    
N12   N20   1.372116 A    
C105  C106  1.531067 S    
C114  H90   1.111347 S    
C106  H72   1.107227 S    
C61   C62   1.504298 S    
N8    N28   1.381152 A    
C127  H121  1.111683 S    
C104  H67   1.110189 S    
C112  C113  1.526191 S    
C65   C85   1.409136 A    
C24   N24   1.341132 A    
C98   H54   1.080648 S    
C35   C76   1.468043 S    
C68   C88   1.423933 A    
C2    C34   1.383739 A    
C33   C74   1.472093 S    
C110  H80   1.110903 S    
N12   Ni3   1.851352 S    
C20   H20   1.079218 S    
C65   C101  1.504313 S    
