data_mof_unit_65209.cif
_audit_creation_date              2012-12-10T21:10:00-0500
_audit_creation_method            fapswitch 2.2
_symmetry_space_group_name_H-M    P1
_symmetry_Int_Tables_number       1
_space_group_crystal_system       triclinic
_cell_length_a                    12.825462
_cell_length_b                    17.400716
_cell_length_c                    16.756537
_cell_angle_alpha                 88.881688
_cell_angle_beta                  97.631856
_cell_angle_gamma                 91.160662
_cell_volume                      3705.17295675

loop_
_atom_site_label
_atom_site_type_symbol
_atom_type_description
_atom_site_fract_x
_atom_site_fract_y
_atom_site_fract_z
_atom_type_partial_charge
C1    C     C_R   0.501377 0.352328 0.501472 0.877708
C2    C     C_R   0.428641 0.113646 0.504574 0.033013
C3    C     C_1   0.407761 0.964919 0.499167 0.039759
C4    C     C_1   0.411034 0.033205 0.501600 0.036555
C5    C     C_R   0.426989 0.452498 0.825028 0.065916
C6    C     C_R   0.574048 0.547221 0.175277 0.058684
C7    C     C_R   0.429902 0.454146 0.741117 -0.082060
C8    C     C_R   0.572939 0.543749 0.259402 -0.018373
C9    C     C_R   0.570301 0.545210 0.755942 0.231146
C10   C     C_R   0.425804 0.458437 0.243442 0.198129
C11   C     C_R   0.574102 0.541992 0.840589 0.347411
C12   C     C_R   0.496290 0.647603 0.498387 0.919866
C13   C     C_R   0.421930 0.462434 0.158840 0.357786
C14   C     C_R   0.499467 0.497384 0.875950 -0.087359
C15   C     C_R   0.499000 0.504777 0.123938 -0.099952
C16   C     C_R   0.297306 0.499669 0.483809 0.981504
C17   C     C_R   0.701557 0.490458 0.515787 0.973915
C18   C     C_1   0.498347 0.499736 0.963456 0.097876
C19   C     C_1   0.499498 0.502903 0.036352 0.099298
C20   C     C_R   0.812620 0.470615 0.523930 -0.339802
C21   C     C_R   0.184638 0.490600 0.472303 -0.323894
C22   C     C_R   0.016345 0.497417 0.389437 0.484984
C23   C     C_R   0.475016 0.730543 0.494071 -0.147966
C24   C     C_R   0.982305 0.449276 0.602930 0.525421
C25   C     C_R   0.123387 0.516985 0.401535 0.020559
C26   C     C_R   0.872922 0.454363 0.598918 0.005183
C27   C     C_R   0.137235 0.452798 0.533065 0.442673
C28   C     C_R   0.859641 0.466348 0.452558 0.475666
C29   C     C_R   0.029322 0.458595 0.531845 -0.228576
C30   C     C_R   0.967958 0.473482 0.457068 -0.224041
C31   C     C_R   0.436350 0.842896 0.567211 -0.163856
C32   C     C_R   0.423964 0.154432 0.432052 -0.167279
C33   C     C_R   0.464291 0.766697 0.566702 -0.200797
C34   C     C_R   0.488767 0.268330 0.504170 -0.148201
C35   C     C_R   0.453900 0.231161 0.431803 -0.218323
C36   C     C_3   0.776994 0.372381 0.374917 0.114062
C37   C     C_3   0.709347 0.354230 0.295744 -0.765039
C38   C     C_3   0.194875 0.333273 0.568347 0.102521
C39   C     C_3   0.246222 0.282767 0.636944 -0.708573
C40   C     C_3   0.735612 0.538483 0.915619 0.129598
C41   C     C_3   0.832954 0.588935 0.938090 -0.726921
C42   C     C_3   0.258431 0.473126 0.088493 0.138118
C43   C     C_3   0.158870 0.426090 0.062416 -0.744035
C44   C     C_3   0.975710 0.458803 0.259975 0.153495
C45   C     C_R   0.456191 0.773090 0.419905 0.151451
C46   C     C_3   0.916424 0.479607 0.177992 -0.763563
C47   C     C_3   0.055039 0.506005 0.720993 0.150733
C48   C     C_3   0.154911 0.550250 0.706819 -0.780952
C49   C     C_R   0.500093 0.225476 0.578038 0.121498
C50   C     C_R   0.426673 0.850519 0.421321 0.154124
C51   C     C_R   0.466975 0.147951 0.577858 0.145031
C52   C     C_R   0.417843 0.884338 0.495241 0.037114
H1    H     H_    0.431679 0.870164 0.624236 0.182255
H2    H     H_    0.632796 0.383224 0.292418 0.259025
H3    H     H_    0.749699 0.373525 0.244136 0.245345
H4    H     H_    0.239426 0.327935 0.516035 0.130079
H5    H     H_    0.112839 0.311054 0.551536 0.144223
H6    H     H_    0.205916 0.289188 0.691076 0.290121
H7    H     H_    0.240823 0.221636 0.618746 0.211305
H8    H     H_    0.330356 0.299018 0.651749 0.251560
H9    H     H_    0.754281 0.497646 0.869190 0.155527
H10   H     H_    0.719303 0.505011 0.969926 0.156000
H11   H     H_    0.818191 0.631484 0.983565 0.285924
H12   H     H_    0.398219 0.126532 0.375348 0.184703
H13   H     H_    0.900075 0.552723 0.963526 0.191291
H14   H     H_    0.853892 0.620048 0.883775 0.261889
H15   H     H_    0.275393 0.510757 0.037194 0.155687
H16   H     H_    0.242232 0.510025 0.139094 0.153130
H17   H     H_    0.138351 0.389992 0.113665 0.258368
H18   H     H_    0.092682 0.465138 0.042406 0.192426
H19   H     H_    0.170593 0.388299 0.011918 0.286988
H20   H     H_    0.948038 0.401003 0.278490 0.132983
H21   H     H_    0.060643 0.455444 0.253205 0.152650
H22   H     H_    0.944140 0.536556 0.157292 0.274152
H23   H     H_    0.477488 0.736070 0.623928 0.198629
H24   H     H_    0.930138 0.435705 0.133497 0.192485
H25   H     H_    0.830871 0.481738 0.181773 0.273988
H26   H     H_    0.061702 0.490055 0.785950 0.184830
H27   H     H_    0.986428 0.544870 0.708645 0.133954
H28   H     H_    0.147893 0.572993 0.644048 0.242445
H29   H     H_    0.167541 0.599442 0.748424 0.209747
H30   H     H_    0.223706 0.512208 0.718288 0.288825
H31   H     H_    0.448427 0.261543 0.374598 0.205732
H32   H     H_    0.374542 0.419446 0.702623 0.210214
H33   H     H_    0.630384 0.576869 0.298297 0.208125
H34   H     H_    0.732483 0.352872 0.424633 0.134322
H35   H     H_    0.850653 0.338882 0.378539 0.115247
H36   H     H_    0.694351 0.291262 0.291782 0.213323
I1    I     I_    0.675685 0.625082 0.709214 -0.268865
I2    I     I_    0.685938 0.620998 0.129583 -0.292284
I3    I     I_    0.313308 0.383773 0.288761 -0.358818
I4    I     I_    0.805793 0.423542 0.705462 -0.301977
I5    I     I_    0.183416 0.594213 0.316598 -0.270618
I6    I     I_    0.472630 0.726532 0.304463 -0.214218
I7    I     I_    0.574629 0.271945 0.689523 -0.238692
I8    I     I_    0.397020 0.919681 0.313294 -0.253801
I9    I     I_    0.474865 0.080251 0.686869 -0.269283
I10   I     I_    0.312326 0.381113 0.870570 -0.316049
N1    N     N_R   0.500030 0.500030 0.707230 -0.139802
N2    N     N_R   0.499970 0.499970 0.292770 -0.150222
O1    O     O_R   0.500000 0.389130 0.566570 -0.591548
O2    O     O_3   0.196210 0.410535 0.593211 -0.560448
O3    O     O_3   0.648970 0.585488 0.887954 -0.570177
O4    O     O_3   0.343287 0.422950 0.110777 -0.566553
O5    O     O_3   0.956957 0.514753 0.316364 -0.528296
O6    O     O_3   0.043790 0.437013 0.676529 -0.550249
O7    O     O_R   0.500000 0.610870 0.433430 -0.588061
O8    O     O_R   0.499990 0.389100 0.433480 -0.616702
O9    O     O_R   0.500010 0.610900 0.566520 -0.608955
O10   O     O_R   0.346360 0.500000 0.555540 -0.592515
O11   O     O_R   0.653640 0.500000 0.444460 -0.580626
O12   O     O_R   0.346350 0.499970 0.422460 -0.577591
O13   O     O_R   0.653650 0.500030 0.577540 -0.569333
O14   O     O_3   0.800240 0.452264 0.378744 -0.544511
Zn1   Zn    Zn3+2 0.500000 0.500020 0.588860 1.011893
Zn2   Zn    Zn3+2 0.500000 0.499980 0.411140 1.009570

loop_
_geom_bond_atom_site_label_1
_geom_bond_atom_site_label_2
_ccdc_geom_bond_type
C51   I9    S    
C25   I5    S    
C16   C21   S    
C23   C45   A    
C27   C29   A    
C14   C18   S    
C37   H36   S    
N2    Zn2   S    
C47   H27   S    
C31   C52   A    
C36   O14   S    
C49   C51   A    
C46   H24   S    
C17   O13   A    
C44   O5    S    
C15   C19   S    
C12   C23   S    
C7    N1    A    
C36   C37   S    
C24   C26   A    
C34   C35   A    
N1    Zn1   S    
C38   C39   S    
C11   C14   A    
O12   Zn2   S    
C26   I4    S    
C17   C20   S    
C40   H10   S    
C48   H29   S    
C2    C32   A    
C8    H33   S    
C24   C29   A    
C6    C15   A    
C33   H23   S    
C23   C33   A    
C22   C25   A    
C50   C52   A    
C31   C33   A    
O11   Zn2   S    
C7    H32   S    
C21   C27   A    
C9    N1    A    
C42   H16   S    
C45   I6    S    
C17   O11   A    
C12   O9    A    
C44   C46   S    
C1    C34   S    
C36   H35   S    
C16   O10   A    
C32   C35   A    
C32   H12   S    
C9    I1    S    
C5    C7    A    
C35   H31   S    
C18   C19   T    
C6    C8    A    
C20   C28   A    
C36   H34   S    
C6    I2    S    
C39   H6    S    
C31   H1    S    
C40   H9    S    
C2    C4    S    
C29   C30   A    
C46   H25   S    
C38   H5    S    
C47   C48   S    
C47   O6    S    
C39   H7    S    
C49   I7    S    
C13   O4    S    
C10   N2    A    
C9    C11   A    
C5    C14   A    
C28   O14   S    
C37   H2    S    
C40   C41   S    
C10   I3    S    
C43   H18   S    
C13   C15   A    
C42   H15   S    
O1    Zn1   S    
C24   O6    S    
C42   C43   S    
C41   H11   S    
C3    C4    T    
C1    O1    A    
C46   H22   S    
C16   O12   A    
C21   C25   A    
C34   C49   A    
C43   H19   S    
C22   C30   A    
C10   C13   A    
C42   O4    S    
C12   O7    A    
C41   H13   S    
C3    C52   S    
C41   H14   S    
C22   O5    S    
C27   O2    S    
O8    Zn2   S    
C28   C30   A    
C8    N2    A    
C38   O2    S    
C48   H28   S    
C40   O3    S    
C50   I8    S    
C20   C26   A    
C45   C50   A    
C39   H8    S    
C48   H30   S    
C44   H20   S    
C44   H21   S    
O7    Zn2   S    
C2    C51   A    
O9    Zn1   S    
C1    O8    A    
C37   H3    S    
C38   H4    S    
C5    I10   S    
C43   H17   S    
C11   O3    S    
C47   H26   S    
O10   Zn1   S    
O13   Zn1   S    
