data_mof_unit_15151.cif
_audit_creation_date              2012-12-10T17:51:29-0500
_audit_creation_method            fapswitch 2.2
_symmetry_space_group_name_H-M    P1
_symmetry_Int_Tables_number       1
_space_group_crystal_system       triclinic
_cell_length_a                    14.878731
_cell_length_b                    15.006906
_cell_length_c                    17.307446
_cell_angle_alpha                 109.515107
_cell_angle_beta                  73.612074
_cell_angle_gamma                 116.61973
_cell_volume                      3215.88340494

loop_
_atom_site_label
_atom_site_type_symbol
_atom_type_description
_atom_site_fract_x
_atom_site_fract_y
_atom_site_fract_z
_atom_type_partial_charge
C1    C     C_R   0.118257 0.688375 0.518915 0.790469
C2    C     C_R   0.881657 0.311574 0.482555 0.783800
C3    C     C_R   0.184784 0.798109 0.542428 -0.074306
C4    C     C_R   0.815242 0.201316 0.467529 -0.074697
C5    C     C_R   0.226505 0.971378 0.630371 -0.225215
C6    C     C_R   0.775348 0.021357 0.397706 -0.224016
C7    C     C_R   0.153583 0.872108 0.606366 0.157084
C8    C     C_R   0.845741 0.123293 0.409384 0.159304
C9    C     C_R   0.286669 0.826181 0.505185 -0.295301
C10   C     C_R   0.716088 0.174748 0.511225 -0.290058
C11   C     C_R   0.361489 0.921810 0.535246 0.085055
C12   C     C_R   0.642926 0.073689 0.495213 0.084338
C13   C     C_R   0.329388 0.996041 0.596491 0.127165
C14   C     C_R   0.674743 0.996592 0.438059 0.126191
C15   C     C_R   0.467036 0.945641 0.505691 0.074084
C16   C     C_R   0.538515 0.047716 0.531601 0.079387
C17   C     C_R   0.502729 0.120195 0.592051 -0.219936
C18   C     C_R   0.503522 0.869937 0.452887 -0.226810
C19   C     C_R   0.400286 0.094145 0.624324 -0.216374
C20   C     C_R   0.605517 0.895241 0.419974 -0.215311
C21   C     C_R   0.314210 0.368460 0.334397 -0.323020
C22   C     C_R   0.678414 0.619633 0.666724 -0.321784
C23   C     C_R   0.987916 0.501133 0.651954 0.815034
C24   C     C_R   0.012005 0.498756 0.348018 0.812758
C25   C     C_R   0.219932 0.374835 0.369716 0.041323
C26   C     C_R   0.774647 0.617771 0.632641 0.037097
C27   C     C_R   0.288215 0.490768 0.492453 0.260303
C28   C     C_R   0.715787 0.513462 0.503818 0.300157
C29   C     C_R   0.373388 0.462249 0.467018 0.001028
C30   C     C_R   0.624691 0.533158 0.531199 -0.014654
C31   C     C_R   0.392932 0.416913 0.382008 0.123677
C32   C     C_R   0.601599 0.572467 0.617246 0.135587
C33   C     C_R   0.447498 0.490204 0.517791 0.087174
C34   C     C_R   0.548963 0.501347 0.480125 0.064475
C35   C     C_R   0.571295 0.484876 0.392964 -0.230884
C36   C     C_R   0.423173 0.507499 0.604600 -0.208334
C37   C     C_R   0.493375 0.431897 0.344698 -0.201589
C38   C     C_R   0.500316 0.556208 0.653591 -0.211488
C39   C     C_R   0.977888 0.496464 0.737068 -0.058282
C40   C     C_R   0.021425 0.502630 0.262765 -0.058243
C41   C     C_R   0.012881 0.432522 0.753639 0.398801
C42   C     C_R   0.985229 0.565410 0.245893 0.394942
C43   C     C_R   0.004993 0.432528 0.836121 -0.253133
C44   C     C_R   0.992243 0.564370 0.163303 -0.252748
C45   C     C_R   0.963784 0.495843 0.901236 0.145989
C46   C     C_R   0.033656 0.501081 0.098346 0.146199
C47   C     C_R   0.924844 0.555049 0.883974 -0.171099
C48   C     C_R   0.073698 0.442995 0.115868 -0.171862
C49   C     C_R   0.932056 0.555631 0.802356 -0.287493
C50   C     C_R   0.067438 0.443504 0.197607 -0.287480
C51   C     C_2   0.961497 0.502059 0.987909 -0.205361
C52   C     C_2   0.035455 0.494113 0.011583 -0.204908
Cu1   Cu    Cu3+1 0.916740 0.524770 0.521640 0.939099
Cu2   Cu    Cu3+1 0.083260 0.475230 0.478360 0.934260
H1    H     H_    0.551685 0.197616 0.617615 0.140268
H2    H     H_    0.455388 0.789564 0.436642 0.146481
H3    H     H_    0.512614 0.410694 0.277743 0.143044
H4    H     H_    0.480176 0.578392 0.720394 0.141220
H5    H     H_    0.832348 0.651679 0.672009 0.128568
H6    H     H_    0.159783 0.338805 0.332489 0.130466
H7    H     H_    0.326504 0.329094 0.269759 0.142427
H8    H     H_    0.663038 0.654348 0.732201 0.142044
H9    H     H_    0.648342 0.514586 0.361523 0.147701
H10   H     H_    0.345072 0.492035 0.634833 0.167152
H11   H     H_    0.096458 0.395753 0.209791 0.157958
H12   H     H_    0.903891 0.604215 0.790373 0.156493
H13   H     H_    0.097575 0.479207 0.966208 0.143746
H14   H     H_    0.899361 0.516967 0.033247 0.143237
H15   H     H_    0.891495 0.603103 0.933833 0.132654
H16   H     H_    0.107265 0.395022 0.066139 0.132717
H17   H     H_    0.966151 0.613684 0.150068 0.117926
H18   H     H_    0.030310 0.382482 0.849175 0.118272
H19   H     H_    0.376363 0.151637 0.671341 0.141224
H20   H     H_    0.629932 0.835142 0.378361 0.141989
H21   H     H_    0.697581 0.235971 0.556095 0.162001
H22   H     H_    0.305766 0.771083 0.452342 0.153630
H23   H     H_    0.203307 0.029033 0.677966 0.131364
H24   H     H_    0.798178 0.961200 0.353866 0.133139
N1    N     N_R   0.208390 0.438070 0.445820 -0.196470
N2    N     N_R   0.791610 0.561930 0.554180 -0.190529
O1    O     O_R   0.020090 0.662480 0.528530 -0.561284
O2    O     O_R   0.979910 0.337520 0.471470 -0.562896
O3    O     O_R   0.160710 0.620650 0.491980 -0.616720
O4    O     O_R   0.839290 0.379350 0.508020 -0.595810
O5    O     O_R   0.921540 0.523360 0.633990 -0.606825
O6    O     O_R   0.078460 0.476640 0.366010 -0.603718
O7    O     O_R   0.062170 0.481520 0.597440 -0.539727
O8    O     O_R   0.937830 0.518480 0.402560 -0.553117
O9    O     O_3   0.052388 0.369603 0.688874 -0.725620
H25   H     H_    0.073386 0.330502 0.711559 0.310464
O10   O     O_3   0.945379 0.628220 0.310462 -0.729616
H26   H     H_    0.923350 0.666309 0.287576 0.309083
C53   C     C_3   0.713561 0.418492 0.432347 -0.338474
C54   C     C_3   0.625310 0.319922 0.450811 -0.843209
H27   H     H_    0.618699 0.317230 0.515533 0.254451
H28   H     H_    0.552007 0.314842 0.442180 0.261455
H29   H     H_    0.638739 0.251606 0.407831 0.241812
H30   H     H_    0.713837 0.426187 0.371470 0.167360
H31   H     H_    0.781069 0.403048 0.417639 0.251573
C55   C     C_3   0.303503 0.601242 0.542036 -0.350664
C56   C     C_3   0.396309 0.677943 0.584455 -0.917487
H32   H     H_    0.399390 0.756757 0.596513 0.250499
H33   H     H_    0.469091 0.677830 0.544448 0.273482
H34   H     H_    0.388354 0.667393 0.646703 0.264746
H35   H     H_    0.235447 0.601992 0.588665 0.242489
H36   H     H_    0.315444 0.638973 0.493040 0.227491
C57   C     C_3   0.949035 0.143970 0.355077 -0.413234
C58   C     C_3   0.022998 0.135269 0.395245 -0.765977
H37   H     H_    0.097666 0.149756 0.353911 0.225076
H38   H     H_    0.034447 0.191910 0.455999 0.281321
H39   H     H_    0.993269 0.056787 0.404937 0.241335
H40   H     H_    0.941394 0.086954 0.294056 0.184467
H41   H     H_    0.980609 0.219367 0.339631 0.195514
C59   C     C_3   0.046099 0.849072 0.653193 -0.411006
C60   C     C_3   0.980693 0.863664 0.608210 -0.764088
H42   H     H_    0.012566 0.944859 0.604229 0.240588
H43   H     H_    0.977372 0.813310 0.544481 0.278983
H44   H     H_    0.902109 0.844824 0.643210 0.226553
H45   H     H_    0.011011 0.771198 0.664665 0.197830
H46   H     H_    0.047060 0.901877 0.716150 0.183787

loop_
_geom_bond_atom_site_label_1
_geom_bond_atom_site_label_2
_ccdc_geom_bond_type
C15   C18   A    
C41   O9    S    
C53   C54   S    
C29   C33   A    
C27   C29   A    
C57   H40   S    
C2    O4    A    
C4    C8    A    
C59   C60   S    
C39   C41   A    
Cu1   Cu2   S    
C21   C31   A    
C55   H35   S    
C56   H32   S    
C22   C32   A    
Cu1   O4    S    
C7    C59   S    
C35   C37   A    
C34   C35   A    
C3    C7    A    
Cu2   O7    S    
C23   C39   S    
C6    H24   S    
C22   H8    S    
C45   C51   S    
C1    O1    A    
C60   H42   S    
C46   C52   S    
C33   C36   A    
C58   H37   S    
C44   H17   S    
Cu1   O1    S    
C42   O10   S    
C47   H15   S    
C17   C19   A    
C38   H4    S    
C11   C15   A    
C57   H41   S    
C12   C16   A    
C16   C17   A    
C60   H43   S    
C57   C58   S    
C25   H6    S    
C32   C38   A    
C26   H5    S    
C53   H31   S    
C21   H7    S    
C59   H45   S    
C18   H2    S    
C40   C42   A    
C56   H33   S    
C23   O7    A    
C41   C43   A    
C42   C44   A    
Cu2   O3    S    
C44   C46   A    
C45   C47   A    
C46   C48   A    
C27   C55   S    
C49   H12   S    
C30   C34   A    
C51   C52   D    
C14   C20   A    
C19   H19   S    
Cu1   N2    S    
C47   C49   A    
O10   H26   S    
C5    C7    A    
C13   C19   A    
C6    C8    A    
C54   H29   S    
C26   N2    A    
C31   C37   A    
C28   C53   S    
C1    C3    S    
C2    C4    S    
C3    C9    A    
C6    C14   A    
C9    C11   A    
C10   H21   S    
C60   H44   S    
C33   C34   A    
C20   H20   S    
C54   H28   S    
C48   C50   A    
C43   C45   A    
C52   H13   S    
C10   C12   A    
C9    H22   S    
C12   C14   A    
C56   H34   S    
C23   O5    A    
C2    O2    A    
C5    H23   S    
C8    C57   S    
Cu2   O2    S    
Cu2   O6    S    
Cu2   N1    S    
C43   H18   S    
C21   C25   A    
C39   C49   A    
C25   N1    A    
C5    C13   A    
C24   O8    A    
C48   H16   S    
C35   H9    S    
C55   H36   S    
C1    O3    A    
C27   N1    A    
C58   H39   S    
C36   C38   A    
C29   C31   A    
C30   C32   A    
C11   C13   A    
C24   O6    A    
C40   C50   A    
C17   H1    S    
C28   C30   A    
C55   C56   S    
C24   C40   S    
C58   H38   S    
Cu1   O8    S    
C18   C20   A    
C51   H14   S    
C54   H27   S    
C28   N2    A    
C50   H11   S    
C37   H3    S    
C22   C26   A    
Cu1   O5    S    
O9    H25   S    
C36   H10   S    
C4    C10   A    
C53   H30   S    
C59   H46   S    
C15   C16   A    
