data_mof_unit_20276.cif
_audit_creation_date              2012-12-10T17:02:18-0500
_audit_creation_method            fapswitch 2.2
_symmetry_space_group_name_H-M    P1
_symmetry_Int_Tables_number       1
_space_group_crystal_system       triclinic
_cell_length_a                    10.634826
_cell_length_b                    10.704821
_cell_length_c                    10.043074
_cell_angle_alpha                 89.594917
_cell_angle_beta                  90.01202
_cell_angle_gamma                 90.093792
_cell_volume                      1143.31267008

loop_
_atom_site_label
_atom_site_type_symbol
_atom_type_description
_atom_site_fract_x
_atom_site_fract_y
_atom_site_fract_z
_atom_type_partial_charge
C1    C     C_R   0.506303 0.262780 0.500420 0.938964
C2    C     C_2   0.527671 0.131782 0.502610 -0.347959
C3    C     C_2   0.574022 0.570061 0.924485 -0.119384
C4    C     C_R   0.260630 0.502072 0.499962 0.916699
C5    C     C_2   0.569120 0.574865 0.074385 -0.125047
C6    C     C_R   0.499267 0.737403 0.499471 0.891835
C7    C     C_R   0.739292 0.502892 0.499983 0.888021
C8    C     C_R   0.131963 0.718236 0.602331 -0.144394
C9    C     C_R   0.066905 0.820770 0.652268 -0.143291
C10   C     C_R   0.936089 0.821114 0.652743 -0.138129
C11   C     C_R   0.869891 0.718863 0.603415 -0.165052
C12   C     C_R   0.066254 0.613065 0.553054 0.038549
C13   C     C_R   0.934508 0.613636 0.553470 0.097183
C14   C     C_3   0.140487 0.211567 0.483731 0.072526
C15   C     C_3   0.189695 0.095128 0.415373 -0.781588
C16   C     C_R   0.128169 0.508001 0.499918 -0.228150
C17   C     C_R   0.063124 0.406521 0.445853 0.463010
C18   C     C_R   0.934211 0.409390 0.443905 -0.298319
C19   C     C_R   0.871427 0.509750 0.499883 -0.168427
C20   C     C_2   0.539247 0.932866 0.392781 -0.147164
C21   C     C_2   0.495015 0.869595 0.497873 -0.335763
C22   C     C_2   0.534172 0.067496 0.389535 -0.175127
H1    H     H_    0.540682 0.088911 0.599799 0.153678
H2    H     H_    0.531728 0.113184 0.292618 0.176453
H3    H     H_    0.049721 0.186890 0.533054 0.133296
H4    H     H_    0.209812 0.240456 0.560719 0.138888
H5    H     H_    0.275089 0.118260 0.356726 0.268994
H6    H     H_    0.213713 0.022738 0.490836 0.201104
H7    H     H_    0.116946 0.057340 0.347224 0.251728
H8    H     H_    0.233481 0.723000 0.601503 0.137978
H9    H     H_    0.118151 0.900545 0.689860 0.127558
H10   H     H_    0.452886 0.913467 0.583926 0.142938
H11   H     H_    0.641914 0.629877 0.874541 0.160727
H12   H     H_    0.432737 0.449246 0.898178 0.165667
H13   H     H_    0.628017 0.643460 0.123342 0.157159
H14   H     H_    0.450240 0.432222 0.102709 0.169302
H15   H     H_    0.885730 0.901217 0.690475 0.134096
H16   H     H_    0.768358 0.723877 0.603263 0.138429
H17   H     H_    0.882864 0.331693 0.401128 0.167826
H18   H     H_    0.575521 0.885448 0.305509 0.167386
N1    N     N_2   0.501340 0.501330 0.852150 -0.191445
N2    N     N_2   0.501380 0.501360 0.147810 -0.190680
O1    O     O_R   0.499980 0.319060 0.613040 -0.621839
O2    O     O_R   0.500020 0.319100 0.386900 -0.606988
O3    O     O_R   0.316750 0.499980 0.613090 -0.633301
O4    O     O_R   0.316790 0.500020 0.386950 -0.572814
O5    O     O_R   0.499980 0.680900 0.613100 -0.627771
O6    O     O_R   0.500020 0.680940 0.386960 -0.611524
O7    O     O_R   0.683210 0.499980 0.613050 -0.616077
O8    O     O_R   0.683250 0.500020 0.386910 -0.610726
O9    O     O_3   0.125437 0.307460 0.387780 -0.595483
Zn1   Zn    Zn3+2 0.499970 0.499970 0.650990 0.933643
Zn2   Zn    Zn3+2 0.500030 0.500030 0.349010 0.962804

loop_
_geom_bond_atom_site_label_1
_geom_bond_atom_site_label_2
_ccdc_geom_bond_type
C4    C16   S    
C11   H16   S    
C5    N2    D    
C2    C22   D    
O5    Zn1   S    
C9    C10   A    
C1    C2    S    
N1    Zn1   S    
C15   H5    S    
C14   O9    S    
C8    C12   A    
O7    Zn1   S    
C8    H8    S    
C17   O9    S    
C17   C18   A    
C14   H3    S    
C4    O4    A    
C14   H4    S    
C12   C13   A    
C11   C13   A    
C15   H6    S    
C16   C17   A    
H12   N1    S    
C6    O6    A    
C10   H15   S    
C5    H13   S    
O4    Zn2   S    
C20   C22   S    
C15   H7    S    
C9    H9    S    
C7    C19   S    
C4    O3    A    
N2    Zn2   S    
O6    Zn2   S    
C20   H18   S    
C21   H10   S    
C22   H2    S    
O1    Zn1   S    
O8    Zn2   S    
C6    O5    A    
C3    H11   S    
C20   C21   D    
C7    O7    A    
C18   C19   A    
C10   C11   A    
C2    H1    S    
C18   H17   S    
C13   C19   A    
C14   C15   S    
C3    N1    D    
C1    O2    A    
O3    Zn1   S    
C6    C21   S    
H14   N2    S    
O2    Zn2   S    
C1    O1    A    
C12   C16   A    
C7    O8    A    
C8    C9    A    
C3    C5    S    
