data_mof_unit_41079.cif
_audit_creation_date              2012-12-10T19:52:21-0500
_audit_creation_method            fapswitch 2.2
_symmetry_space_group_name_H-M    P1
_symmetry_Int_Tables_number       1
_space_group_crystal_system       triclinic
_cell_length_a                    14.948326
_cell_length_b                    14.142893
_cell_length_c                    10.610914
_cell_angle_alpha                 90.101126
_cell_angle_beta                  89.473813
_cell_angle_gamma                 90.017583
_cell_volume                      2243.18246591

loop_
_atom_site_label
_atom_site_type_symbol
_atom_type_description
_atom_site_fract_x
_atom_site_fract_y
_atom_site_fract_z
_atom_type_partial_charge
C1    C     C_R   0.327428 0.500062 0.501957 0.873328
C2    C     C_R   0.908314 0.577932 0.479478 -0.170274
C3    C     C_R   0.809400 0.428185 0.581526 -0.172215
C4    C     C_R   0.816699 0.576363 0.465616 -0.225387
C5    C     C_R   0.767626 0.500680 0.514602 -0.034085
C6    C     C_R   0.950782 0.504586 0.544305 0.112239
C7    C     C_R   0.471343 0.106261 0.389893 0.451283
C8    C     C_R   0.422031 0.893785 0.460188 0.456448
C9    C     C_R   0.497084 0.499813 0.257658 0.923211
C10   C     C_R   0.469725 0.205733 0.396433 -0.119980
C11   C     C_R   0.425944 0.794306 0.459461 -0.127506
C12   C     C_3   0.594755 0.518257 0.925759 0.770188
C13   C     C_R   0.530778 0.203288 0.600960 -0.025613
C14   C     C_R   0.572510 0.796759 0.540881 -0.006568
C15   C     C_R   0.530314 0.103975 0.601165 -0.377363
C16   C     C_R   0.572908 0.896109 0.540066 -0.373632
C17   C     C_R   0.499473 0.053375 0.495720 0.024388
C18   C     C_R   0.497879 0.946717 0.497758 0.026898
C19   C     C_R   0.672260 0.500044 0.501780 0.870503
C20   C     C_R   0.496605 0.499979 0.742346 0.975531
C21   C     C_3   0.434973 0.580320 0.074042 -0.453151
C22   C     C_3   0.458014 0.404054 0.072422 -0.478548
C23   C     C_R   0.095881 0.584968 0.564218 -0.187680
C24   C     C_3   0.433124 0.581183 0.929349 0.348839
C25   C     C_3   0.458010 0.402722 0.928292 0.328538
C26   C     C_3   0.593225 0.514800 0.072684 -0.523301
C27   C     C_3   0.496086 0.499419 0.121397 -0.032594
C28   C     C_3   0.495733 0.499641 0.878904 -0.117990
C29   C     C_3   0.514108 0.041705 0.200451 0.110981
C30   C     C_3   0.527846 0.122093 0.105365 -0.392193
C31   C     C_3   0.590622 0.092892 0.998011 -0.986296
C32   C     C_3   0.293554 0.971384 0.520073 0.097436
C33   C     C_3   0.216682 0.902832 0.548067 -0.376794
C34   C     C_R   0.091382 0.417022 0.514774 -0.170984
C35   C     C_3   0.148447 0.946422 0.638892 -0.965084
C36   C     C_3   0.305913 0.652424 0.839697 0.086920
C37   C     C_3   0.279707 0.721402 0.945596 -0.393856
C38   C     C_3   0.233392 0.808611 0.893022 -0.952689
C39   C     C_3   0.353182 0.291533 0.858742 0.096004
C40   C     C_3   0.257978 0.280388 0.810010 -0.277157
C41   C     C_3   0.239436 0.178634 0.769738 -1.010976
C42   C     C_3   0.699060 0.631357 0.833800 0.207307
C43   C     C_3   0.775687 0.631077 0.928726 -0.371997
C44   C     C_3   0.865869 0.644425 0.862564 -0.960453
C45   C     C_R   0.187449 0.584817 0.546785 -0.208081
C46   C     C_3   0.672212 0.364043 0.915381 0.012522
C47   C     C_3   0.769914 0.354387 0.954765 -0.322766
C48   C     C_3   0.791235 0.253440 0.995094 -0.967574
C49   C     C_R   0.183262 0.416443 0.499853 -0.216410
C50   C     C_R   0.231338 0.500560 0.514607 -0.012027
C51   C     C_R   0.047483 0.501523 0.545677 0.125376
C52   C     C_R   0.901047 0.430514 0.597252 -0.210814
H1    H     H_    0.459978 0.650051 0.107672 0.162489
H2    H     H_    0.632204 0.933226 0.570871 0.167506
H3    H     H_    0.366159 0.571338 0.113432 0.199740
H4    H     H_    0.388795 0.393853 0.109811 0.211078
H5    H     H_    0.461151 0.650628 0.898243 0.117830
H6    H     H_    0.502999 0.345227 0.895115 0.040742
H7    H     H_    0.618112 0.583324 0.110804 0.194951
H8    H     H_    0.639332 0.462434 0.114205 0.149346
H9    H     H_    0.062620 0.650496 0.589364 0.130201
H10   H     H_    0.054475 0.352395 0.497748 0.133513
H11   H     H_    0.223757 0.650409 0.559352 0.135711
H12   H     H_    0.498113 0.343412 0.106911 0.141283
H13   H     H_    0.216348 0.350760 0.475034 0.157737
H14   H     H_    0.933217 0.374200 0.648993 0.133263
H15   H     H_    0.946147 0.634664 0.435933 0.132351
H16   H     H_    0.497013 0.976051 0.148274 0.177580
H17   H     H_    0.577768 0.026654 0.250961 0.111851
H18   H     H_    0.462317 0.142665 0.065181 0.228214
H19   H     H_    0.556768 0.184439 0.154013 0.201765
H20   H     H_    0.657078 0.072890 0.035565 0.273052
H21   H     H_    0.599328 0.152951 0.931776 0.252781
H22   H     H_    0.562160 0.032151 0.945325 0.266444
H23   H     H_    0.771152 0.370673 0.622567 0.159817
H24   H     H_    0.265182 0.040683 0.491682 0.179572
H25   H     H_    0.332504 0.984604 0.607750 0.109880
H26   H     H_    0.182433 0.884101 0.458881 0.240537
H27   H     H_    0.243910 0.836947 0.589799 0.199974
H28   H     H_    0.181220 0.968441 0.727701 0.277846
H29   H     H_    0.095657 0.893690 0.661435 0.263560
H30   H     H_    0.116537 0.009122 0.595264 0.266640
H31   H     H_    0.244068 0.632223 0.789423 0.177637
H32   H     H_    0.350575 0.686713 0.768595 0.135269
H33   H     H_    0.233918 0.685355 0.013223 0.237438
H34   H     H_    0.784448 0.632903 0.414329 0.147814
H35   H     H_    0.340083 0.744904 0.997124 0.213354
H36   H     H_    0.279619 0.847095 0.828576 0.265369
H37   H     H_    0.213974 0.856620 0.971522 0.275102
H38   H     H_    0.172184 0.787952 0.841140 0.268571
H39   H     H_    0.360652 0.248948 0.946138 0.119241
H40   H     H_    0.400218 0.265025 0.784871 0.148050
H41   H     H_    0.209528 0.301335 0.885097 0.222016
H42   H     H_    0.248477 0.327740 0.727776 0.239303
H43   H     H_    0.285806 0.157436 0.692264 0.263094
H44   H     H_    0.169712 0.172771 0.735376 0.269432
H45   H     H_    0.444989 0.245737 0.317325 0.143899
H46   H     H_    0.247874 0.129806 0.850678 0.271533
H47   H     H_    0.696053 0.702984 0.791307 0.122542
H48   H     H_    0.711765 0.582912 0.753162 0.179075
H49   H     H_    0.765231 0.689142 0.998017 0.211438
H50   H     H_    0.776829 0.563444 0.981061 0.234802
H51   H     H_    0.878627 0.585236 0.795879 0.280686
H52   H     H_    0.919989 0.645432 0.933524 0.266892
H53   H     H_    0.867121 0.712306 0.810072 0.259267
H54   H     H_    0.659382 0.312120 0.839046 0.158014
H55   H     H_    0.628463 0.343860 0.995034 0.127734
H56   H     H_    0.368870 0.754383 0.427080 0.149927
H57   H     H_    0.814458 0.374337 0.874651 0.232121
H58   H     H_    0.783532 0.402652 0.034934 0.209237
H59   H     H_    0.748684 0.232866 0.076955 0.272084
H60   H     H_    0.862503 0.248772 0.022972 0.266811
H61   H     H_    0.779654 0.203467 0.916011 0.263717
H62   H     H_    0.555158 0.241019 0.682372 0.123670
H63   H     H_    0.630736 0.759034 0.573566 0.134374
H64   H     H_    0.553105 0.066900 0.684096 0.171618
N1    N     N_R   0.499980 0.252470 0.500000 -0.109116
N2    N     N_R   0.499980 0.747530 0.500000 -0.113771
O1    O     O_R   0.369070 0.579480 0.500010 -0.644788
O2    O     O_3   0.345374 0.937369 0.417334 -0.614277
O3    O     O_3   0.343597 0.568249 0.887930 -0.584741
O4    O     O_3   0.369499 0.388139 0.883817 -0.570347
O5    O     O_3   0.615310 0.614700 0.893594 -0.702066
O6    O     O_3   0.657709 0.455323 0.864611 -0.690692
O7    O     O_R   0.369070 0.420520 0.500010 -0.619069
O8    O     O_R   0.499990 0.579480 0.314790 -0.620935
O9    O     O_R   0.499990 0.420520 0.314790 -0.636584
O10   O     O_R   0.630940 0.579480 0.499990 -0.638045
O11   O     O_R   0.630940 0.420520 0.499990 -0.610661
O12   O     O_R   0.500020 0.579480 0.685200 -0.627593
O13   O     O_R   0.500020 0.420520 0.685200 -0.628658
O14   O     O_3   0.441154 0.062156 0.281970 -0.617064
Zn1   Zn    Zn3+2 0.500010 0.606140 0.500000 0.931500
Zn2   Zn    Zn3+2 0.500010 0.393860 0.500000 0.942625

loop_
_geom_bond_atom_site_label_1
_geom_bond_atom_site_label_2
_ccdc_geom_bond_type
O7    Zn2   S    
C19   O11   A    
C7    C10   A    
C23   C45   A    
C19   O10   A    
O9    Zn2   S    
C40   H41   S    
O13   Zn2   S    
C30   H19   S    
C35   H29   S    
C44   H53   S    
C25   C28   S    
C38   H37   S    
C9    C27   S    
C34   C51   A    
C9    O9    A    
C39   O4    S    
C49   H13   S    
C12   C28   S    
C37   H33   S    
C36   C37   S    
C1    O7    A    
C30   C31   S    
C33   H26   S    
C31   H21   S    
C41   H44   S    
C4    H34   S    
C36   H31   S    
C14   H63   S    
C35   H28   S    
C34   H10   S    
C1    O1    A    
C32   H25   S    
C44   H51   S    
O8    Zn1   S    
C24   H5    S    
C14   N2    A    
C22   C25   S    
C6    C51   S    
C29   C30   S    
C3    H23   S    
C1    C50   S    
C13   H62   S    
C21   C27   S    
C46   O6    S    
C2    C6    A    
C32   O2    S    
N1    Zn2   S    
C39   H39   S    
C30   H18   S    
C35   H30   S    
C42   O5    S    
C29   H17   S    
C44   H52   S    
C2    H15   S    
C20   O12   A    
C39   C40   S    
C21   H3    S    
C33   H27   S    
C31   H22   S    
C22   H4    S    
C20   C28   S    
C7    C17   A    
C47   H57   S    
C45   H11   S    
C8    C18   A    
C12   C26   S    
C10   H45   S    
C2    C4    A    
C43   C44   S    
C43   H49   S    
C37   C38   S    
C42   H48   S    
C29   H16   S    
C23   C51   A    
C47   C48   S    
C12   O6    S    
C46   H55   S    
C17   C18   S    
C26   C27   S    
O1    Zn1   S    
C7    O14   S    
N2    Zn1   S    
C31   H20   S    
C48   H60   S    
C22   C27   S    
C13   C15   A    
C14   C16   A    
O12   Zn1   S    
C25   H6    S    
C20   O13   A    
C39   H40   S    
C52   H14   S    
C8    O2    S    
C25   O4    S    
C15   C17   A    
C46   C47   S    
C40   C41   S    
C34   C49   A    
C15   H64   S    
C37   H35   S    
C24   C28   S    
C40   H42   S    
C4    C5    A    
C3    C5    A    
C32   H24   S    
C13   N1    A    
C3    C52   A    
C5    C19   S    
C47   H58   S    
C38   H38   S    
C9    O8    A    
C32   C33   S    
C36   O3    S    
C43   H50   S    
C10   N1    A    
C42   H47   S    
C21   H1    S    
C41   H43   S    
C12   O5    S    
C45   C50   A    
C36   H32   S    
C8    C11   A    
C46   H54   S    
C24   O3    S    
C33   C35   S    
C16   H2    S    
C22   H12   S    
O11   Zn2   S    
C29   O14   S    
C23   H9    S    
C48   H59   S    
C16   C18   A    
C49   C50   A    
C42   C43   S    
C21   C24   S    
C38   H36   S    
C11   H56   S    
C41   H46   S    
C26   H7    S    
C6    C52   A    
O10   Zn1   S    
C11   N2    A    
C26   H8    S    
C48   H61   S    
