data_mof_unit_8907.cif
_audit_creation_date              2012-12-11T14:13:20-0500
_audit_creation_method            fapswitch 2.2
_symmetry_space_group_name_H-M    P1
_symmetry_Int_Tables_number       1
_space_group_crystal_system       triclinic
_cell_length_a                    11.463615
_cell_length_b                    18.590085
_cell_length_c                    10.041017
_cell_angle_alpha                 89.310474
_cell_angle_beta                  109.348444
_cell_angle_gamma                 90.665037
_cell_volume                      2018.76934076

loop_
_atom_site_label
_atom_site_type_symbol
_atom_type_description
_atom_site_fract_x
_atom_site_fract_y
_atom_site_fract_z
_atom_type_partial_charge
C1    C     C_R   0.070309 0.647267 0.139952 0.549913
C2    C     C_R   0.923297 0.355246 0.857888 0.562105
C3    C     C_R   0.931206 0.148538 0.861747 0.553070
C4    C     C_R   0.068735 0.851420 0.138227 0.549551
C5    C     C_R   0.420232 0.467775 0.561951 0.005303
C6    C     C_R   0.619493 0.560133 0.583243 0.011629
C7    C     C_R   0.597095 0.962815 0.471667 0.033099
C8    C     C_R   0.403374 0.036903 0.531397 0.029220
C9    C     C_2   0.417276 0.920586 0.915790 -0.079928
C10   C     C_2   0.582863 0.079350 0.084144 -0.082532
C11   C     C_2   0.591294 0.423386 0.078245 -0.094437
C12   C     C_2   0.418601 0.579931 0.917120 -0.098326
C13   C     C_2   0.467549 0.969202 0.014751 -0.113255
C14   C     C_2   0.532832 0.030669 0.985237 -0.112000
C15   C     C_2   0.540526 0.471700 0.977304 -0.140638
C16   C     C_2   0.504296 0.540950 0.012797 -0.143951
C17   C     C_2   0.998212 0.917554 0.101549 -0.105875
C18   C     C_2   0.002566 0.082667 0.898660 -0.110645
C19   C     C_2   0.979784 0.426365 0.883538 -0.096743
C20   C     C_2   0.994559 0.581984 0.106121 -0.117692
C21   C     C_2   0.028032 0.964552 0.014619 -0.175755
C22   C     C_2   0.975357 0.036315 0.988526 -0.177135
C23   C     C_2   0.949095 0.470040 0.972074 -0.164203
C24   C     C_2   0.998449 0.542864 0.995737 -0.157822
C25   C     C_R   0.470061 0.648872 0.443123 0.575259
C26   C     C_R   0.563768 0.361790 0.626757 0.558542
C27   C     C_R   0.560614 0.137294 0.626285 0.549430
C28   C     C_R   0.439744 0.862791 0.374568 0.551639
C29   C     C_R   0.377975 0.645762 0.963858 0.551839
C30   C     C_R   0.623058 0.354356 0.036103 0.551320
C31   C     C_R   0.621820 0.146183 0.037594 0.546634
C32   C     C_R   0.378211 0.853793 0.962369 0.547968
C33   C     C_R   0.542865 0.438506 0.593838 -0.033664
C34   C     C_R   0.496788 0.581046 0.513098 -0.009367
C35   C     C_R   0.471026 0.938734 0.416054 -0.036520
C36   C     C_R   0.529456 0.061154 0.586317 -0.039809
C37   C     C_R   0.310258 0.431538 0.567115 0.136967
C38   C     C_R   0.721449 0.608882 0.621376 0.116931
C39   C     C_R   0.701097 0.933273 0.440721 0.137845
C40   C     C_R   0.299434 0.066102 0.563254 0.132187
C41   C     C_R   0.202374 0.436348 0.451597 -0.088932
C42   C     C_R   0.837760 0.584360 0.628072 -0.085259
C43   C     C_R   0.819384 0.940886 0.536730 -0.081906
C44   C     C_R   0.180630 0.057217 0.469037 -0.091725
C45   C     C_R   0.198894 0.482450 0.341627 -0.138632
C46   C     C_R   0.852529 0.512900 0.598342 -0.153346
C47   C     C_R   0.839013 0.981580 0.655281 -0.111328
C48   C     C_R   0.160500 0.016157 0.350933 -0.116198
C49   C     C_R   0.293550 0.532946 0.359212 -0.075523
C50   C     C_R   0.756435 0.463492 0.583431 -0.113342
C51   C     C_R   0.743419 0.022482 0.671282 -0.078889
C52   C     C_R   0.256546 0.976333 0.333420 -0.079603
C53   C     C_R   0.400830 0.529693 0.480545 -0.022035
C54   C     C_R   0.641442 0.485739 0.590561 -0.038299
C55   C     C_R   0.623665 0.016968 0.574303 -0.028207
C56   C     C_R   0.376746 0.982628 0.428955 -0.029333
Cr1   Cr    Cr6+3 0.187610 0.750000 0.979860 1.033022
Cr2   Cr    Cr6+3 0.812390 0.250000 0.020140 1.023320
Cr3   Cr    Cr6+3 0.245810 0.750000 0.341640 1.049794
Cr4   Cr    Cr6+3 0.754190 0.250000 0.658360 1.035248
Cr5   Cr    Cr6+3 0.485760 0.750000 0.219910 1.072145
Cr6   Cr    Cr6+3 0.514240 0.250000 0.780090 1.087349
H1    H     H_    0.121039 0.405045 0.447576 0.136040
H2    H     H_    0.915777 0.621108 0.651947 0.138460
H3    H     H_    0.897776 0.915763 0.519093 0.143212
H4    H     H_    0.102164 0.081774 0.487549 0.142499
H5    H     H_    0.120361 0.480472 0.247334 0.129703
H6    H     H_    0.939974 0.495148 0.591563 0.124210
H7    H     H_    0.930566 0.981964 0.729736 0.129177
H8    H     H_    0.068322 0.014715 0.277932 0.127987
H9    H     H_    0.285982 0.571244 0.275010 0.138763
H10   H     H_    0.771391 0.409974 0.555325 0.182974
H11   H     H_    0.758905 0.054918 0.763628 0.109446
H12   H     H_    0.240913 0.943899 0.241135 0.109729
H13   H     H_    0.535673 0.038225 0.878668 0.141995
H14   H     H_    0.464719 0.961647 0.121338 0.141285
H15   H     H_    0.542684 0.557956 0.122214 0.162378
H16   H     H_    0.523449 0.459418 0.867079 0.157954
H17   H     H_    0.589185 0.071319 0.193737 0.116494
H18   H     H_    0.410850 0.928632 0.806168 0.118860
H19   H     H_    0.373286 0.560619 0.810465 0.125937
H20   H     H_    0.616224 0.436453 0.189530 0.104468
H21   H     H_    0.906812 0.049814 0.037439 0.165280
H22   H     H_    0.097908 0.951327 0.967459 0.163919
H23   H     H_    0.049646 0.561944 0.928169 0.171188
H24   H     H_    0.888000 0.451717 0.028734 0.160842
H25   H     H_    0.065719 0.068487 0.843393 0.130342
H26   H     H_    0.933083 0.931197 0.154524 0.130285
H27   H     H_    0.949408 0.561489 0.178619 0.104651
H28   H     H_    0.037972 0.445003 0.823898 0.123042
O1    O     O_R   0.267710 0.668200 0.902110 -0.513773
O2    O     O_R   0.732290 0.331800 0.097890 -0.522266
O3    O     O_R   0.732290 0.168200 0.097890 -0.512634
O4    O     O_R   0.267710 0.831800 0.902110 -0.511960
O5    O     O_R   0.099480 0.674460 0.038850 -0.494933
O6    O     O_R   0.900520 0.325540 0.961150 -0.494889
O7    O     O_R   0.900520 0.174460 0.961150 -0.497604
O8    O     O_R   0.099480 0.825540 0.038850 -0.494234
O9    O     O_R   0.116720 0.669210 0.267660 -0.509932
O10   O     O_R   0.883280 0.330790 0.732340 -0.530544
O11   O     O_R   0.883280 0.169210 0.732340 -0.505694
O12   O     O_R   0.116720 0.830790 0.267660 -0.510686
O13   O     O_R   0.366710 0.675440 0.427590 -0.497451
O14   O     O_R   0.633290 0.324560 0.572410 -0.506094
O15   O     O_R   0.633290 0.175440 0.572410 -0.474440
O16   O     O_R   0.366710 0.824560 0.427590 -0.474861
O17   O     O_R   0.534870 0.669390 0.371760 -0.495032
O18   O     O_R   0.465130 0.330610 0.628240 -0.468557
O19   O     O_R   0.465130 0.169390 0.628240 -0.469031
O20   O     O_R   0.534870 0.830610 0.371760 -0.465339
O21   O     O_R   0.453080 0.674480 0.075160 -0.497203
O22   O     O_R   0.546920 0.325520 0.924840 -0.481492
O23   O     O_R   0.546920 0.174480 0.924840 -0.482313
O24   O     O_R   0.453080 0.825520 0.075160 -0.485766
O25   O     O_3   0.306390 0.750000 0.180470 -0.295060
O26   O     O_3   0.693610 0.250000 0.819530 -0.310661
I1    I     I_    0.280301 0.386113 0.749297 -0.375454
I2    I     I_    0.712095 0.716928 0.685443 -0.315545
I3    I     I_    0.711233 0.891110 0.248351 -0.388426
I4    I     I_    0.289707 0.110179 0.754367 -0.377722

loop_
_geom_bond_atom_site_label_1
_geom_bond_atom_site_label_2
_ccdc_geom_bond_type
C32   O4    A    
C4    O8    A    
C12   C29   S    
C17   H26   S    
Cr3   O9    S    
C44   H4    S    
C7    C55   A    
C1    O9    A    
Cr1   O25   S    
Cr6   O26   S    
C50   C54   A    
C5    C53   A    
Cr2   O3    S    
C38   C42   A    
C5    C37   A    
C42   C46   A    
C49   C53   A    
C15   H16   S    
Cr6   O18   S    
C27   O15   A    
C15   C16   S    
C3    C18   S    
C16   H15   S    
C8    C36   A    
Cr2   O6    S    
C47   H7    S    
C9    C13   D    
C9    C32   S    
C26   O14   A    
C11   C15   D    
C10   C31   S    
C20   C24   D    
C11   C30   S    
C28   O16   A    
C23   H24   S    
C4    O12   A    
Cr5   O25   S    
C23   C24   S    
C6    C38   A    
C24   H23   S    
C40   C44   A    
C43   H3    S    
C25   C34   S    
C50   H10   S    
C3    O11   A    
C35   C56   A    
C2    O10   A    
C13   C14   S    
Cr2   O26   S    
C8    C56   A    
Cr2   O7    S    
C6    C54   A    
Cr5   O20   S    
C11   H20   S    
Cr3   O16   S    
C12   C16   D    
C28   C35   S    
Cr6   O23   S    
C30   O2    A    
C10   C14   D    
C26   O18   A    
C25   O13   A    
C39   C43   A    
C28   O20   A    
C31   O3    A    
C17   C21   D    
C6    C34   A    
C30   O22   A    
C9    H18   S    
C19   C23   D    
C46   H6    S    
C3    O7    A    
C26   C33   S    
C21   H22   S    
C45   C49   A    
C1    O5    A    
C37   I1    S    
C4    C17   S    
C40   I4    S    
Cr1   O4    S    
Cr1   O5    S    
Cr4   O26   S    
C41   H1    S    
Cr4   O11   S    
Cr5   O21   S    
C42   H2    S    
C29   O1    A    
C25   O17   A    
C33   C54   A    
C1    C20   S    
C7    C39   A    
Cr1   O1    S    
C2    C19   S    
C18   C22   D    
Cr3   O12   S    
C7    C35   A    
C29   O21   A    
C51   H11   S    
C48   H8    S    
Cr4   O10   S    
C47   C51   A    
C10   H17   S    
C45   H5    S    
C27   C36   S    
C13   H14   S    
C20   H27   S    
C46   C50   A    
C52   H12   S    
C18   H25   S    
Cr3   O13   S    
C14   H13   S    
C2    O6    A    
C19   H28   S    
Cr4   O14   S    
C22   H21   S    
Cr6   O19   S    
Cr2   O2    S    
C39   I3    S    
Cr1   O8    S    
C12   H19   S    
C51   C55   A    
C5    C33   A    
C37   C41   A    
Cr5   O17   S    
C38   I2    S    
C44   C48   A    
C48   C52   A    
Cr6   O22   S    
C27   O19   A    
C34   C53   A    
Cr3   O25   S    
C49   H9    S    
Cr5   O24   S    
C36   C55   A    
C41   C45   A    
C8    C40   A    
C32   O24   A    
C21   C22   S    
C43   C47   A    
C31   O23   A    
Cr4   O15   S    
C52   C56   A    
