data_mof_unit_5584.cif
_audit_creation_date              2012-12-10T19:00:12-0500
_audit_creation_method            fapswitch 2.2
_symmetry_space_group_name_H-M    P1
_symmetry_Int_Tables_number       1
_space_group_crystal_system       triclinic
_cell_length_a                    9.614511
_cell_length_b                    10.861648
_cell_length_c                    13.359187
_cell_angle_alpha                 90.306317
_cell_angle_beta                  72.691082
_cell_angle_gamma                 91.043055
_cell_volume                      1331.69418386

loop_
_atom_site_label
_atom_site_type_symbol
_atom_type_description
_atom_site_fract_x
_atom_site_fract_y
_atom_site_fract_z
_atom_type_partial_charge
C1    C     C_R   0.500346 0.737201 0.501953 0.803808
C2    C     C_R   0.440191 0.431812 0.976659 0.074548
C3    C     C_R   0.483358 0.428388 0.865823 0.026711
C4    C     C_R   0.548409 0.445857 0.028274 0.024129
C5    C     C_R   0.697055 0.440280 0.969191 0.088541
C6    C     C_R   0.734565 0.403193 0.863949 0.305030
C7    C     C_R   0.628023 0.396527 0.813396 -0.239397
C8    C     C_R   0.513256 0.472103 0.135685 -0.245822
C9    C     C_R   0.767906 0.494215 0.124029 -0.203659
C10   C     C_R   0.378930 0.452700 0.812447 -0.096780
C11   C     C_R   0.371833 0.932400 0.514659 0.042897
C12   C     C_R   0.422519 0.485436 0.699315 0.787801
C13   C     C_R   0.498129 0.869920 0.511393 -0.081940
C14   C     C_R   0.619844 0.937731 0.520046 -0.216545
C15   C     C_R   0.618820 0.066334 0.518675 -0.229288
C16   C     C_R   0.496395 0.128591 0.508134 -0.090082
C17   C     C_R   0.370821 0.059271 0.512660 0.061658
C18   C     C_3   0.270445 0.056314 0.445415 0.276164
C19   C     C_3   0.271583 0.915860 0.448947 -0.533963
C20   C     C_R   0.961093 0.461963 0.413730 0.237981
C21   C     C_R   0.893809 0.550354 0.580336 -0.059832
C22   C     C_R   0.042120 0.550275 0.580359 0.001457
C23   C     C_R   0.499107 0.262273 0.500366 0.806100
C24   C     C_R   0.108157 0.462499 0.413804 0.151856
C25   C     C_3   0.129914 0.337897 0.367091 -0.485624
C26   C     C_3   0.972850 0.337251 0.365325 0.239494
C27   C     C_R   0.578112 0.499955 0.299679 0.786424
C28   C     C_R   0.804205 0.472299 0.016443 -0.173892
C29   C     C_R   0.621745 0.489877 0.184842 -0.056774
C30   C     C_R   0.230846 0.446966 0.869772 -0.161447
C31   C     C_R   0.188646 0.421559 0.976939 -0.129829
C32   C     C_R   0.290938 0.420357 0.030870 -0.183782
Cu1   Cu    Cu3+1 0.359330 0.500020 0.500010 0.968886
Cu2   Cu    Cu3+1 0.640670 0.499980 0.499990 0.948005
H1    H     H_    0.853474 0.515198 0.159198 0.190020
H2    H     H_    0.715985 0.116190 0.521720 0.163004
H3    H     H_    0.161388 0.090776 0.489704 0.102312
H4    H     H_    0.165014 0.875181 0.495148 0.178702
H5    H     H_    0.322485 0.866566 0.374526 0.186027
H6    H     H_    0.812714 0.589654 0.646442 0.156316
H7    H     H_    0.070525 0.589213 0.646485 0.151532
H8    H     H_    0.212472 0.336984 0.288792 0.208450
H9    H     H_    0.147072 0.272579 0.424649 0.210996
H10   H     H_    0.901043 0.267923 0.418464 0.092793
H11   H     H_    0.914719 0.485182 0.968440 0.166284
H12   H     H_    0.401501 0.480562 0.182488 0.153280
H13   H     H_    0.148415 0.460461 0.831330 0.205909
H14   H     H_    0.250396 0.405806 0.114243 0.142503
H15   H     H_    0.076758 0.405105 0.020927 0.160346
H16   H     H_    0.659666 0.361629 0.734142 0.209746
H17   H     H_    0.717682 0.892089 0.523183 0.165547
N1    N     N_R   0.852320 0.499070 0.499340 -0.223310
N2    N     N_R   0.148230 0.499110 0.499340 -0.183026
O1    O     O_R   0.381190 0.680360 0.500000 -0.577037
O2    O     O_R   0.618780 0.680320 0.499990 -0.585667
O3    O     O_R   0.323230 0.500000 0.650990 -0.570468
O4    O     O_R   0.560820 0.499960 0.650980 -0.595426
O5    O     O_R   0.381220 0.319680 0.500010 -0.551494
O6    O     O_R   0.618810 0.319640 0.500000 -0.605601
O7    O     O_R   0.439180 0.500040 0.349020 -0.582828
O8    O     O_R   0.676770 0.500000 0.349010 -0.559303
O9    O     O_3   0.326371 0.117221 0.346805 -0.618108
C33   C     C_3   0.445102 0.060251 0.273540 0.066155
H18   H     H_    0.402876 0.987190 0.231122 0.154411
H19   H     H_    0.523362 0.020352 0.310700 0.148075
C34   C     C_3   0.526142 0.157245 0.194156 -0.333057
H20   H     H_    0.447681 0.204645 0.161528 0.229852
H21   H     H_    0.576835 0.226614 0.234513 0.210387
C35   C     C_3   0.644213 0.100067 0.104222 -0.918096
H22   H     H_    0.721451 0.048896 0.135076 0.250923
H23   H     H_    0.705164 0.173762 0.050831 0.277288
H24   H     H_    0.594564 0.035980 0.058942 0.264072
O10   O     O_3   0.962782 0.343553 0.261987 -0.611203
C36   C     C_3   0.924922 0.227057 0.228805 0.051577
H25   H     H_    0.893138 0.242205 0.156479 0.184695
H26   H     H_    0.827700 0.185121 0.287095 0.134728
C37   C     C_3   0.054190 0.139004 0.202649 -0.363460
H27   H     H_    0.151319 0.184894 0.148045 0.232375
H28   H     H_    0.080468 0.114336 0.275443 0.239040
C38   C     C_3   0.020005 0.020576 0.152198 -0.907403
H29   H     H_    0.923772 0.972486 0.205843 0.250092
H30   H     H_    0.114775 0.958623 0.135929 0.260821
H31   H     H_    0.998158 0.041278 0.076991 0.266851
Cl1   Cl    Cl    0.911174 0.356936 0.793679 -0.722457

loop_
_geom_bond_atom_site_label_1
_geom_bond_atom_site_label_2
_ccdc_geom_bond_type
C23   O5    A    
C34   H21   S    
C33   H19   S    
Cu1   O5    S    
C27   C29   S    
O10   C36   S    
C4    C8    A    
C25   H9    S    
C26   H10   S    
C37   H27   S    
C23   O6    A    
C11   C19   S    
C36   H26   S    
C8    C29   A    
C19   H5    S    
C18   H3    S    
C3    C7    A    
C27   O7    A    
C5    C6    A    
C22   H7    S    
C15   C16   A    
C26   O10   S    
C2    C32   A    
C18   C19   S    
C35   H23   S    
C27   O8    A    
C14   H17   S    
C16   C17   A    
C36   C37   S    
Cu2   O4    S    
C9    C29   A    
Cu1   O3    S    
C34   H20   S    
C33   C34   S    
Cu2   O2    S    
C13   C14   A    
C32   H14   S    
C31   H15   S    
C38   H31   S    
Cu1   Cu2   S    
C22   N2    A    
C37   H28   S    
Cu1   N2    S    
C28   H11   S    
C6    Cl1   S    
C36   H25   S    
C20   C24   A    
C30   H13   S    
C24   C25   S    
C38   H30   S    
C18   O9    S    
C25   C26   S    
Cu2   O8    S    
C35   H24   S    
C2    C4    A    
C1    O1    A    
O9    C33   S    
C19   H4    S    
C5    C28   A    
C10   C30   A    
C31   C32   A    
C17   C18   S    
C12   O3    A    
C10   C12   S    
C12   O4    A    
C16   C23   S    
Cu2   O6    S    
C1    C13   S    
C15   H2    S    
C37   C38   S    
Cu1   O1    S    
C11   C17   A    
C7    H16   S    
C38   H29   S    
C25   H8    S    
C6    C7    A    
Cu1   O7    S    
Cu2   N1    S    
C2    C3    A    
C24   N2    A    
C20   N1    A    
C3    C10   A    
C11   C13   A    
C30   C31   A    
C21   H6    S    
C20   C26   S    
C1    O2    A    
C35   H22   S    
C8    H12   S    
C33   H18   S    
C34   C35   S    
C4    C5    A    
C9    H1    S    
C14   C15   A    
C21   C22   A    
C21   N1    A    
C9    C28   A    
