data_mof_unit_23594.cif
_audit_creation_date              2012-12-10T19:09:34-0500
_audit_creation_method            fapswitch 2.2
_symmetry_space_group_name_H-M    P1
_symmetry_Int_Tables_number       1
_space_group_crystal_system       triclinic
_cell_length_a                    9.576073
_cell_length_b                    10.880519
_cell_length_c                    17.094343
_cell_angle_alpha                 88.235596
_cell_angle_beta                  94.519701
_cell_angle_gamma                 90.759097
_cell_volume                      1774.61958639

loop_
_atom_site_label
_atom_site_type_symbol
_atom_type_description
_atom_site_fract_x
_atom_site_fract_y
_atom_site_fract_z
_atom_type_partial_charge
C1    C     C_R   0.499095 0.262996 0.500886 0.844220
C2    C     C_R   0.650804 0.538690 0.778913 -0.211619
C3    C     C_R   0.570826 0.541985 0.140823 -0.145516
C4    C     C_R   0.577058 0.543315 0.222110 -0.247898
C5    C     C_R   0.455318 0.487627 0.098549 0.357941
C6    C     C_R   0.469521 0.490129 0.263322 -0.109638
C7    C     C_R   0.353214 0.433773 0.221248 -0.056865
C8    C     C_R   0.346732 0.436022 0.139025 -0.244669
C9    C     C_R   0.615375 0.066046 0.488444 0.016574
C10   C     C_R   0.496392 0.130773 0.500985 -0.106661
C11   C     C_R   0.372909 0.062528 0.511870 -0.183888
C12   C     C_R   0.517918 0.498636 0.650797 0.810007
C13   C     C_R   0.374236 0.933458 0.510938 -0.205630
C14   C     C_R   0.498778 0.870647 0.498487 -0.067474
C15   C     C_R   0.617036 0.942126 0.486508 0.035786
C16   C     C_3   0.767850 0.939344 0.469663 -0.554013
C17   C     C_3   0.767022 0.080411 0.474217 0.323671
C18   C     C_R   0.065017 0.535079 0.434170 0.292941
C19   C     C_R   0.084101 0.450935 0.561228 -0.117035
C20   C     C_R   0.936110 0.448367 0.561424 0.053845
C21   C     C_R   0.917863 0.534944 0.434064 0.263646
C22   C     C_3   0.910019 0.657144 0.392814 -0.522145
C23   C     C_R   0.500351 0.737496 0.498992 0.796435
C24   C     C_3   0.068230 0.656553 0.392134 -0.486344
C25   C     C_R   0.481591 0.496942 0.349306 0.822758
C26   C     C_R   0.527789 0.499076 0.736690 -0.029698
C27   C     C_R   0.411526 0.462575 0.777036 -0.220815
C28   C     C_R   0.417783 0.465806 0.858385 -0.146557
C29   C     C_R   0.541176 0.506296 0.901045 0.375727
C30   C     C_R   0.657198 0.541993 0.860585 -0.192124
Cu1   Cu    Cu3+1 0.640670 0.499980 0.500000 0.986796
Cu2   Cu    Cu3+1 0.359330 0.500020 0.500000 0.963685
H1    H     H_    0.666154 0.587334 0.252825 0.156876
H2    H     H_    0.278151 0.883568 0.520466 0.161724
H3    H     H_    0.834572 0.893944 0.518024 0.181311
H4    H     H_    0.781088 0.907490 0.409728 0.200672
H5    H     H_    0.830219 0.113859 0.526743 0.150171
H6    H     H_    0.147971 0.411375 0.610445 0.162250
H7    H     H_    0.855234 0.653737 0.333322 0.195956
H8    H     H_    0.872518 0.726512 0.431448 0.214917
H9    H     H_    0.104659 0.649285 0.332308 0.209105
H10   H     H_    0.656246 0.584014 0.111396 0.160129
H11   H     H_    0.121098 0.729328 0.428293 0.210182
H12   H     H_    0.752455 0.573575 0.892533 0.150201
H13   H     H_    0.740773 0.569504 0.748800 0.188195
H14   H     H_    0.325797 0.437085 0.887421 0.160549
H15   H     H_    0.259264 0.392553 0.105982 0.169839
H16   H     H_    0.315459 0.431312 0.745732 0.169327
H17   H     H_    0.276144 0.108057 0.521591 0.165970
N1    N     N_2   0.552742 0.513316 0.984045 -0.261126
N2    N     N_2   0.444494 0.481130 0.015596 -0.256601
N3    N     N_R   0.147870 0.500930 0.499500 -0.202913
N4    N     N_R   0.851960 0.500890 0.499500 -0.227843
O1    O     O_R   0.618810 0.319640 0.500000 -0.537957
O2    O     O_R   0.381230 0.319680 0.499990 -0.575602
O3    O     O_R   0.631790 0.498830 0.613930 -0.570028
O4    O     O_R   0.394210 0.498870 0.613920 -0.595011
O5    O     O_R   0.618770 0.680320 0.500010 -0.582055
O6    O     O_R   0.381190 0.680360 0.500000 -0.591418
O7    O     O_R   0.605790 0.501130 0.386080 -0.589546
O8    O     O_R   0.368210 0.501170 0.386070 -0.561042
O9    O     O_3   0.803527 0.144481 0.404393 -0.592415
C31   C     C_3   0.698088 0.144133 0.341451 0.093898
H18   H     H_    0.606173 0.197795 0.356034 0.157622
H19   H     H_    0.664345 0.048790 0.326957 0.140161
C32   C     C_3   0.756531 0.206028 0.269323 -0.308354
H20   H     H_    0.781858 0.303936 0.281671 0.241164
H21   H     H_    0.854533 0.159690 0.256386 0.238781
C33   C     C_3   0.651582 0.200108 0.197549 -0.887725
H22   H     H_    0.632658 0.103093 0.180875 0.252073
H23   H     H_    0.693651 0.251902 0.147414 0.271453
H24   H     H_    0.550731 0.241335 0.210090 0.265739
C34   C     C_2   0.880990 0.385157 0.630219 0.852200
O10   O     O_2   0.796941 0.300431 0.621869 -0.597328
O11   O     O_R   0.935366 0.415685 0.705527 -0.805955
H25   H     H_    0.893567 0.363602 0.748204 0.331767
C35   C     C_2   0.242647 0.364102 0.260367 0.843274
O12   O     O_2   0.120335 0.371617 0.234210 -0.615780
O13   O     O_R   0.278712 0.285798 0.325007 -0.769725
H26   H     H_    0.194209 0.243055 0.346191 0.337479

loop_
_geom_bond_atom_site_label_1
_geom_bond_atom_site_label_2
_ccdc_geom_bond_type
C27   H16   S    
Cu1   O7    S    
C23   O5    A    
C32   H21   S    
C31   H19   S    
C3    H10   S    
C18   C21   A    
C34   O10   D    
C19   C20   A    
C1    O1    A    
C18   N3    A    
C7    C8    A    
C35   O12   D    
C23   O6    A    
C28   H14   S    
C26   C27   A    
O9    C31   S    
C18   C24   S    
Cu1   O5    S    
C28   C29   A    
Cu2   O8    S    
C16   H3    S    
C32   C33   S    
C15   C16   S    
C33   H23   S    
Cu2   N3    S    
C19   N3    A    
C16   C17   S    
C25   O7    A    
Cu1   O3    S    
C9    C10   A    
Cu2   O2    S    
C7    C35   S    
C32   H20   S    
C31   C32   S    
C13   C14   A    
C24   H9    S    
C34   O11   S    
C30   H12   S    
Cu2   O4    S    
C29   N1    S    
C35   O13   S    
C2    H13   S    
C4    C6    A    
C17   H5    S    
O13   H26   S    
C12   C26   S    
C14   C23   S    
C33   H24   S    
O11   H25   S    
C29   C30   A    
C11   H17   S    
C19   H6    S    
C17   O9    S    
Cu1   Cu2   S    
C22   H8    S    
N1    N2    D    
C2    C26   A    
C25   O8    A    
Cu1   N4    S    
C12   O3    A    
C12   O4    A    
C9    C17   S    
C22   C24   S    
C3    C4    A    
C4    H1    S    
C1    C10   S    
C20   N4    A    
C3    C5    A    
C5    C8    A    
C6    C7    A    
C2    C30   A    
C9    C15   A    
C8    H15   S    
C13   H2    S    
C16   H4    S    
C21   N4    A    
C11   C13   A    
C22   H7    S    
C20   C34   S    
Cu1   O1    S    
C1    O2    A    
C33   H22   S    
C10   C11   A    
C31   H18   S    
C6    C25   S    
C27   C28   A    
C24   H11   S    
C14   C15   A    
C5    N2    S    
Cu2   O6    S    
C21   C22   S    
