data_mof_unit_17565.cif
_audit_creation_date              2012-12-10T18:04:01-0500
_audit_creation_method            fapswitch 2.2
_symmetry_space_group_name_H-M    P1
_symmetry_Int_Tables_number       1
_space_group_crystal_system       triclinic
_cell_length_a                    10.922187
_cell_length_b                    9.492136
_cell_length_c                    10.895406
_cell_angle_alpha                 89.99139
_cell_angle_beta                  90.363662
_cell_angle_gamma                 90.010349
_cell_volume                      1129.55717392

loop_
_atom_site_label
_atom_site_type_symbol
_atom_type_description
_atom_site_fract_x
_atom_site_fract_y
_atom_site_fract_z
_atom_type_partial_charge
C1    C     C_R   0.262051 0.500759 0.503151 0.799536
C2    C     C_R   0.737959 0.500784 0.496952 0.799632
C3    C     C_R   0.420744 0.074472 0.426616 0.005412
C4    C     C_R   0.579205 0.074484 0.573438 0.005540
C5    C     C_R   0.420710 0.925492 0.426974 0.027641
C6    C     C_R   0.579210 0.925508 0.573113 0.028063
C7    C     C_R   0.497557 0.500012 0.262516 0.808794
C8    C     C_R   0.502376 0.499988 0.737482 0.808750
C9    C     C_R   0.495758 0.622991 0.062012 0.029163
C10   C     C_R   0.504736 0.622918 0.937934 0.029450
C11   C     C_R   0.495565 0.498956 0.129929 -0.092884
C12   C     C_R   0.504056 0.498888 0.870064 -0.092803
C13   C     C_R   0.497718 0.370657 0.064389 -0.184501
C14   C     C_R   0.500719 0.370630 0.935632 -0.184586
C15   C     C_3   0.510029 0.780212 0.928646 -0.145152
C16   C     C_3   0.492532 0.780382 0.071201 -0.144962
C17   C     C_R   0.063358 0.377523 0.500943 -0.173574
C18   C     C_R   0.936610 0.377542 0.498829 -0.173651
C19   C     C_R   0.871888 0.504842 0.494868 -0.085672
C20   C     C_R   0.128135 0.504785 0.505447 -0.085608
C21   C     C_R   0.936580 0.634432 0.493064 -0.064577
C22   C     C_R   0.063514 0.634366 0.507949 -0.064836
Cu1   Cu    Cu3+1 0.500000 0.640660 0.500000 0.988409
Cu2   Cu    Cu3+1 0.500000 0.359340 0.500000 0.966159
H1    H     H_    0.356319 0.868779 0.370214 0.144750
H2    H     H_    0.643469 0.868825 0.630040 0.144382
N1    N     N_R   0.500000 0.852070 0.500000 -0.172039
N2    N     N_R   0.500000 0.147940 0.500000 -0.171984
O1    O     O_R   0.319640 0.618740 0.499990 -0.580836
O2    O     O_R   0.680360 0.618740 0.500010 -0.580665
O3    O     O_R   0.319620 0.381170 0.499990 -0.587393
O4    O     O_R   0.680380 0.381170 0.500010 -0.587401
O5    O     O_R   0.499990 0.618810 0.319660 -0.583905
O6    O     O_R   0.500010 0.618810 0.680340 -0.583853
O7    O     O_R   0.499960 0.381240 0.319650 -0.588614
O8    O     O_R   0.500040 0.381240 0.680350 -0.588626
H3    H     H_    0.497059 0.270423 0.111926 0.169250
H4    H     H_    0.500541 0.270390 0.888123 0.169404
C23   C     C_1   0.631037 0.828631 0.886419 0.226854
N3    N     N_1   0.726528 0.866495 0.854840 -0.289436
C24   C     C_1   0.372164 0.830950 0.113302 0.227657
N4    N     N_1   0.277153 0.870537 0.144684 -0.290604
C25   C     C_1   0.409007 0.839665 0.854541 0.273372
N5    N     N_1   0.329860 0.886474 0.796404 -0.242970
C26   C     C_1   0.594310 0.838152 0.145285 0.273859
N6    N     N_1   0.674050 0.883633 0.203417 -0.242976
H5    H     H_    0.110601 0.277177 0.500339 0.173721
H6    H     H_    0.889325 0.277198 0.498929 0.173838
C27   C     C_1   0.876836 0.769177 0.471081 0.296526
N7    N     N_1   0.831341 0.877293 0.452745 -0.269994
C28   C     C_1   0.123376 0.768935 0.530577 0.295727
N8    N     N_1   0.169011 0.876879 0.549406 -0.269127
H7    H     H_    0.357077 0.130674 0.368027 0.128783
H8    H     H_    0.642828 0.130694 0.632074 0.128550

loop_
_geom_bond_atom_site_label_1
_geom_bond_atom_site_label_2
_ccdc_geom_bond_type
C16   C26   S    
C25   N5    T    
Cu2   O4    S    
Cu1   N1    S    
C14   H4    S    
C3    H7    S    
C24   N4    T    
C13   H3    S    
C6    N1    A    
C2    O2    A    
C8    C12   S    
Cu1   O6    S    
C21   C27   S    
C17   C18   A    
Cu2   O3    S    
C15   C25   S    
C6    H2    S    
C21   C22   A    
C7    C11   S    
C11   C13   A    
C15   C23   S    
Cu2   O8    S    
C10   C12   A    
C5    H1    S    
Cu1   O1    S    
C1    O1    A    
C3    N2    A    
C19   C21   A    
C9    C16   S    
C12   C14   A    
C27   N7    T    
C10   C15   S    
C9    C11   A    
C8    O8    A    
Cu2   O7    S    
C7    O5    A    
Cu1   Cu2   S    
C4    C6    A    
C28   N8    T    
Cu1   O2    S    
C26   N6    T    
C1    O3    A    
C17   C20   A    
Cu1   O5    S    
Cu2   N2    S    
C2    O4    A    
C18   C19   A    
C9    C10   A    
C23   N3    T    
C4    N2    A    
C1    C20   S    
C8    O6    A    
C13   C14   A    
C4    H8    S    
C2    C19   S    
C5    N1    A    
C7    O7    A    
C16   C24   S    
C15   C16   S    
C17   H5    S    
C20   C22   A    
C22   C28   S    
C3    C5    A    
C18   H6    S    
