data_mof_unit_16774.cif
_audit_creation_date              2012-12-11T14:21:20-0500
_audit_creation_method            fapswitch 2.2
_symmetry_space_group_name_H-M    P1
_symmetry_Int_Tables_number       1
_space_group_crystal_system       triclinic
_cell_length_a                    11.697368
_cell_length_b                    11.527649
_cell_length_c                    19.495182
_cell_angle_alpha                 90.51645
_cell_angle_beta                  89.724734
_cell_angle_gamma                 59.832271
_cell_volume                      2272.5181484

loop_
_atom_site_label
_atom_site_type_symbol
_atom_type_description
_atom_site_fract_x
_atom_site_fract_y
_atom_site_fract_z
_atom_type_partial_charge
C1    C     C_R   0.639803 0.117980 0.599071 0.561169
C2    C     C_1   0.651622 0.151093 0.668474 0.010865
C3    C     C_R   0.668652 0.654123 0.199408 0.016157
C4    C     C_R   0.611540 0.746775 0.598506 0.552276
C5    C     C_R   0.548724 0.689528 0.234706 0.020609
C6    C     C_R   0.559479 0.646714 0.302496 -0.046648
C7    C     C_R   0.779225 0.608947 0.310335 0.166460
C8    C     C_R   0.785683 0.608598 0.238504 -0.136352
C9    C     C_R   0.419889 0.762935 0.206728 0.274230
C10   C     C_R   0.310570 0.782421 0.246154 -0.107063
C11   C     C_R   0.327949 0.721063 0.309813 0.040926
C12   C     C_1   0.639985 0.704118 0.667824 0.013792
C13   C     C_R   0.455829 0.635937 0.332545 0.123748
C14   C     C_R   0.660334 0.645358 0.342216 0.066748
C15   C     C_R   0.139822 0.202245 0.192732 0.063981
C16   C     C_R   0.240506 0.145784 0.597956 0.550076
C17   C     C_R   0.185737 0.281778 0.223447 0.075561
C18   C     C_R   0.187888 0.288490 0.295467 0.102312
C19   C     C_R   0.135940 0.107655 0.302437 -0.124390
C20   C     C_R   0.111580 0.119696 0.232946 -0.111475
C21   C     C_R   0.231045 0.353832 0.183738 -0.064518
C22   C     C_R   0.255625 0.448298 0.213532 -0.164802
C23   C     C_1   0.127317 0.197695 0.859467 0.011235
C24   C     C_R   0.247168 0.464155 0.283634 -0.138204
C25   C     C_R   0.210346 0.389867 0.323983 -0.010646
C26   C     C_R   0.178586 0.186560 0.334498 0.068251
C27   C     C_R   0.691780 0.159209 0.194387 -0.018755
C28   C     C_R   0.620508 0.075194 0.394804 0.567650
C29   C     C_R   0.794350 0.035940 0.225629 0.043347
C30   C     C_R   0.761599 0.995050 0.286990 0.030359
C31   C     C_R   0.537740 0.156798 0.276708 0.189388
C32   C     C_R   0.562678 0.212392 0.218865 -0.100525
C33   C     C_R   0.923374 0.944928 0.197260 -0.085704
C34   C     C_1   0.171145 0.170461 0.727616 -0.026211
C35   C     C_R   0.996343 0.813174 0.218095 -0.140593
C36   C     C_R   0.952002 0.770398 0.271874 -0.093190
C37   C     C_R   0.839679 0.860819 0.307934 -0.038185
C38   C     C_R   0.641927 0.085866 0.320708 0.026323
C39   C     C_R   0.082324 0.230454 0.928816 0.558633
C40   C     C_R   0.619896 0.729846 0.405300 0.596515
C41   C     C_R   0.684344 0.603762 0.929611 0.560577
C42   C     C_R   0.709239 0.206159 0.930215 0.551455
C43   C     C_R   0.083920 0.235414 0.124608 0.557618
C44   C     C_R   0.683788 0.609522 0.127225 0.594428
C45   C     C_1   0.150440 0.181549 0.798961 -0.027393
C46   C     C_R   0.715112 0.210009 0.129379 0.539870
C47   C     C_R   0.241054 0.145290 0.402151 0.578151
C48   C     C_1   0.670991 0.646143 0.860215 0.010463
C49   C     C_1   0.653992 0.683642 0.728312 -0.026226
C50   C     C_1   0.663532 0.666504 0.799673 -0.027597
C51   C     C_1   0.194645 0.161646 0.667162 0.013297
C52   C     C_1   0.680065 0.189910 0.860913 0.008332
C53   C     C_1   0.657875 0.167977 0.728994 -0.026183
C54   C     C_1   0.666381 0.180245 0.800419 -0.027145
Cl1   Cl    Cl    0.918804 0.541052 0.362168 -0.691660
Cl2   Cl    Cl    0.462150 0.062196 0.257825 -0.641228
Cl3   Cl    Cl    0.387113 0.856847 0.131073 -0.565639
Cr1   Cr    Cr6+3 0.404720 0.198220 0.499960 1.080077
Cr2   Cr    Cr6+3 0.698290 0.897110 0.500380 1.085680
Cr3   Cr    Cr6+3 0.396970 0.904720 0.499610 1.095848
Cr4   Cr    Cr6+3 0.926180 0.151990 0.028120 1.047645
Cr5   Cr    Cr6+3 0.921330 0.451820 0.027470 1.036990
Cr6   Cr    Cr6+3 0.626260 0.446870 0.028710 1.059910
H1    H     H_    0.287607 0.504386 0.182469 0.119486
H2    H     H_    0.212205 0.847278 0.227929 0.133201
H3    H     H_    0.120640 0.037416 0.331358 0.161202
H4    H     H_    0.252779 0.334532 0.129465 0.151358
H5    H     H_    0.068149 0.065757 0.210651 0.125539
H6    H     H_    0.269382 0.534265 0.307256 0.163928
H7    H     H_    0.192715 0.421919 0.376976 0.208621
H8    H     H_    0.975485 0.964317 0.157930 0.162135
H9    H     H_    0.485352 0.271757 0.183740 0.143571
H10   H     H_    0.088342 0.743843 0.192363 0.117459
H11   H     H_    0.008448 0.667982 0.287450 0.190351
H12   H     H_    0.811122 0.821132 0.349436 0.203388
H13   H     H_    0.881601 0.568246 0.213814 0.162430
I1    I     I_    0.166404 0.782866 0.379613 -0.370779
I2    I     I_    0.495232 0.501799 0.415997 -0.279686
O1    O     O_R   0.267740 0.231960 0.575440 -0.498176
O2    O     O_R   0.596130 0.579390 0.952730 -0.487079
O3    O     O_R   0.639060 0.321160 0.958670 -0.494412
O4    O     O_R   0.527280 0.186640 0.570530 -0.484830
O5    O     O_R   0.821240 0.124200 0.104370 -0.538181
O6    O     O_R   0.036890 0.167040 0.097840 -0.495735
O7    O     O_R   0.056180 0.349610 0.102880 -0.542561
O8    O     O_R   0.797660 0.564870 0.097950 -0.509836
O9    O     O_R   0.595880 0.584250 0.104270 -0.470705
O10   O     O_R   0.638830 0.325670 0.099150 -0.501202
O11   O     O_3   0.824590 0.350230 0.028100 -0.274859
O12   O     O_R   0.685970 0.784660 0.430010 -0.496239
O13   O     O_R   0.728090 0.003450 0.576380 -0.491154
O14   O     O_R   0.682970 0.789190 0.570490 -0.489298
O15   O     O_R   0.499290 0.771880 0.575530 -0.489319
O16   O     O_R   0.285330 0.030870 0.569730 -0.490416
O17   O     O_R   0.270980 0.227080 0.423890 -0.534636
O18   O     O_R   0.530280 0.182120 0.430050 -0.464055
O19   O     O_R   0.731330 0.998570 0.424830 -0.509615
O20   O     O_R   0.502530 0.767000 0.423990 -0.482007
O21   O     O_R   0.288330 0.026350 0.429250 -0.469921
O22   O     O_3   0.499990 0.000020 0.499980 -0.303941
O23   O     O_R   0.821500 0.119340 0.952830 -0.500791
O24   O     O_R   0.037130 0.162530 0.957360 -0.484784
O25   O     O_R   0.056440 0.344740 0.951340 -0.505698
O26   O     O_R   0.797900 0.560360 0.957470 -0.493375

loop_
_geom_bond_atom_site_label_1
_geom_bond_atom_site_label_2
_ccdc_geom_bond_type
C28   O19   A    
C23   C45   T    
Cr6   O10   S    
C27   C29   A    
C19   C20   A    
C18   C26   A    
C16   C51   S    
C7    Cl1   S    
Cr3   O21   S    
C41   O2    A    
C12   C49   T    
C7    C8    A    
C32   H9    S    
C53   C54   S    
Cr5   O8    S    
C34   C51   T    
Cr6   O3    S    
C36   C37   A    
Cr3   O20   S    
Cr1   O4    S    
C40   O20   A    
C5    C6    A    
Cr5   O11   S    
C29   C33   A    
C8    H13   S    
C47   O21   A    
C30   C38   A    
C19   H3    S    
C1    C2    S    
C19   C26   A    
Cr1   O18   S    
C11   I1    S    
C7    C14   A    
C35   C36   A    
Cr4   O11   S    
C31   Cl2   S    
C4    C12   S    
C44   O9    A    
C9    C10   A    
Cr5   O26   S    
Cr3   O15   S    
C48   C50   T    
C37   H12   S    
C1    O13   A    
C21   C22   A    
C21   H4    S    
Cr2   O22   S    
C18   C25   A    
C44   O8    A    
C52   C54   T    
C24   H6    S    
C46   O10   A    
Cr6   O2    S    
C15   C20   A    
Cr5   O7    S    
C3    C44   S    
C42   O3    A    
C43   O7    A    
Cr1   O22   S    
C24   C25   A    
C3    C8    A    
Cr4   O5    S    
C43   O6    A    
C3    C5    A    
C1    O4    A    
C22   H1    S    
Cr4   O6    S    
C17   C21   A    
C46   O5    A    
C30   C37   A    
Cr2   O12   S    
Cr4   O23   S    
Cr1   O17   S    
C5    C9    A    
C29   C30   A    
C6    C14   A    
C31   C32   A    
C28   C38   S    
Cr6   O11   S    
C17   C18   A    
C34   C45   S    
Cr2   O13   S    
C36   H11   S    
Cr1   O1    S    
C26   C47   S    
C27   C46   S    
Cr2   O19   S    
C22   C24   A    
C42   O23   A    
C39   O24   A    
Cr5   O25   S    
C10   H2    S    
C15   C17   A    
C13   I2    S    
C35   H10   S    
Cr6   O9    S    
C27   C32   A    
C20   H5    S    
Cr3   O22   S    
C2    C53   T    
C31   C38   A    
C39   O25   A    
C16   O16   A    
C41   O26   A    
C28   O18   A    
C16   O1    A    
Cr4   O24   S    
C15   C43   S    
C6    C13   A    
C11   C13   A    
C23   C39   S    
C33   C35   A    
C41   C48   S    
C9    Cl3   S    
Cr2   O14   S    
C10   C11   A    
C33   H8    S    
C14   C40   S    
C4    O15   A    
C49   C50   S    
C47   O17   A    
C25   H7    S    
C40   O12   A    
C42   C52   S    
C4    O14   A    
Cr3   O16   S    
