data_mof_unit_46678.cif
_audit_creation_date              2012-10-26T20:07:48-0400
_audit_creation_method            fapswitch 2.2
_symmetry_space_group_name_H-M    P1
_symmetry_Int_Tables_number       1
_space_group_crystal_system       triclinic
_cell_length_a                    9.594122
_cell_length_b                    10.811539
_cell_length_c                    17.140928
_cell_angle_alpha                 88.831104
_cell_angle_beta                  94.290662
_cell_angle_gamma                 91.052842
_cell_volume                      1772.37572048

loop_
_atom_site_label
_atom_site_type_symbol
_atom_type_description
_atom_site_fract_x
_atom_site_fract_y
_atom_site_fract_z
_atom_type_partial_charge
C1    C     C_R   0.498440 0.262605 0.498848 0.577032
C2    C     C_R   0.070769 0.591360 0.462129 0.015446
C3    C     C_R   0.519109 0.498122 0.651023 0.577795
C4    C     C_R   0.481947 0.506561 0.348890 0.571268
C5    C     C_R   0.534552 0.499767 0.737639 -0.081532
C6    C     C_R   0.471461 0.517607 0.262093 -0.087053
C7    C     C_R   0.420542 0.535290 0.777944 0.194493
C8    C     C_R   0.594611 0.530921 0.222950 0.185627
C9    C     C_R   0.414263 0.498783 0.855769 0.241412
C10   C     C_R   0.591242 0.510480 0.142717 0.242444
C11   C     C_R   0.539602 0.473905 0.901225 0.121814
C12   C     C_R   0.501627 0.737660 0.502934 0.543354
C13   C     C_R   0.462194 0.515697 0.097446 0.127667
C14   C     C_R   0.666249 0.473890 0.864193 0.230743
C15   C     C_R   0.338622 0.537121 0.135033 0.234478
C16   C     C_R   0.661188 0.468480 0.781189 0.204069
C17   C     C_R   0.341662 0.526711 0.217587 0.214214
C18   C     C_R   0.381546 0.061667 0.466933 0.229725
C19   C     C_R   0.614463 0.939534 0.543693 0.241207
C20   C     C_3   0.683451 0.717474 0.261254 0.027329
C21   C     C_3   0.818621 0.793113 0.259221 -0.254640
C22   C     C_3   0.788992 0.931350 0.252634 -0.493650
C23   C     C_R   0.387064 0.933109 0.469253 -0.192049
C24   C     C_3   0.362161 0.726247 0.727056 0.018221
C25   C     C_3   0.360603 0.805664 0.800131 -0.275543
C26   C     C_3   0.404811 0.939107 0.782795 -0.492963
C27   C     C_3   0.776906 0.389292 0.119958 0.022256
C28   C     C_3   0.916499 0.402087 0.168525 -0.235418
C29   C     C_3   0.995835 0.280822 0.173085 -0.473497
C30   C     C_3   0.226577 0.375377 0.876767 0.016631
C31   C     C_3   0.122125 0.350725 0.938472 -0.241773
C32   C     C_3   0.032944 0.235012 0.920448 -0.475849
C33   C     C_3   0.812947 0.588257 0.949471 0.010469
C34   C     C_R   0.609842 0.068789 0.538738 -0.185218
C35   C     C_3   0.868238 0.693428 0.898377 -0.317560
C36   C     C_3   0.864298 0.818385 0.938225 -0.493176
C37   C     C_3   0.212195 0.663943 0.041986 0.004150
C38   C     C_3   0.278317 0.783599 0.077009 -0.296457
C39   C     C_3   0.283957 0.886087 0.014690 -0.487143
C40   C     C_3   0.892330 0.478741 0.745478 0.027897
C41   C     C_3   0.881883 0.599991 0.697443 -0.273125
C42   C     C_3   0.021952 0.665917 0.697892 -0.474784
C43   C     C_3   0.157261 0.644246 0.254292 0.032878
C44   C     C_3   0.256603 0.749668 0.284611 -0.301762
C45   C     C_R   0.502710 0.872080 0.505634 -0.014325
C46   C     C_3   0.179878 0.871565 0.288328 -0.500270
C47   C     C_3   0.146181 0.100731 0.447782 0.016730
C48   C     C_3   0.037535 0.162486 0.390675 -0.253640
C49   C     C_3   0.889020 0.136942 0.413534 -0.476808
C50   C     C_3   0.787979 0.936427 0.648496 0.007204
C51   C     C_3   0.928379 0.000074 0.633044 -0.264026
C52   C     C_3   0.007714 0.039894 0.709190 -0.495169
C53   C     C_R   0.495904 0.128817 0.500869 -0.008426
C54   C     C_R   0.077581 0.409975 0.539294 -0.000014
C55   C     C_R   0.922574 0.591225 0.461958 0.026910
C56   C     C_R   0.929354 0.409617 0.538929 -0.017312
Cu1   Cu    Cu3+1 0.640660 0.500020 0.500000 0.959818
Cu2   Cu    Cu3+1 0.359340 0.499980 0.500000 0.962901
H1    H     H_    0.135644 0.338448 0.571678 0.102316
H2    H     H_    0.729573 0.953397 0.196092 0.145163
H3    H     H_    0.888899 0.984739 0.255147 0.140245
H4    H     H_    0.291070 0.767813 0.679959 0.151452
H5    H     H_    0.468098 0.730130 0.704327 0.117575
H6    H     H_    0.253889 0.804485 0.821248 0.164868
H7    H     H_    0.433921 0.767197 0.847344 0.156110
H8    H     H_    0.513733 0.942653 0.764868 0.143520
H9    H     H_    0.399775 0.994953 0.836138 0.144020
H10   H     H_    0.334084 0.980027 0.735291 0.144814
H11   H     H_    0.796690 0.352748 0.061750 0.178789
H12   H     H_    0.864595 0.664882 0.431890 0.123810
H13   H     H_    0.709503 0.318653 0.148349 0.108346
H14   H     H_    0.981173 0.474820 0.141504 0.224185
H15   H     H_    0.898175 0.430237 0.228780 0.213969
H16   H     H_    0.932059 0.206338 0.199301 0.127235
H17   H     H_    0.094930 0.292623 0.210180 0.197805
H18   H     H_    0.021361 0.253359 0.113809 0.144128
H19   H     H_    0.305224 0.300059 0.882697 0.116954
H20   H     H_    0.171887 0.372070 0.817278 0.137740
H21   H     H_    0.179677 0.339090 0.996821 0.192669
H22   H     H_    0.053260 0.431419 0.940873 0.215739
H23   H     H_    0.877075 0.337896 0.571249 0.119448
H24   H     H_    0.971343 0.246624 0.863360 0.178279
H25   H     H_    0.959142 0.219422 0.966696 0.155118
H26   H     H_    0.100226 0.152735 0.918557 0.129345
H27   H     H_    0.890627 0.572129 0.999673 0.176969
H28   H     H_    0.717466 0.620643 0.974940 0.198163
H29   H     H_    0.977261 0.674144 0.885352 0.157909
H30   H     H_    0.801203 0.700583 0.843292 0.153541
H31   H     H_    0.754229 0.845217 0.943597 0.150817
H32   H     H_    0.915517 0.890267 0.902415 0.142901
H33   H     H_    0.919140 0.814950 0.997498 0.144296
H34   H     H_    0.123195 0.665623 0.432356 0.097498
H35   H     H_    0.101819 0.683958 0.024309 0.130241
H36   H     H_    0.257599 0.643565 0.986752 0.223315
H37   H     H_    0.214104 0.816379 0.122975 0.152879
H38   H     H_    0.386542 0.768279 0.102490 0.147393
H39   H     H_    0.354354 0.859815 0.969510 0.150649
H40   H     H_    0.325283 0.972788 0.042108 0.149146
H41   H     H_    0.177949 0.903612 0.986490 0.142442
H42   H     H_    0.969401 0.419779 0.719255 0.129254
H43   H     H_    0.936875 0.495050 0.805622 0.189285
H44   H     H_    0.851471 0.581953 0.635841 0.231919
H45   H     H_    0.634313 0.736674 0.316437 0.134691
H46   H     H_    0.802584 0.660598 0.719168 0.140471
H47   H     H_    0.063831 0.683876 0.758657 0.180579
H48   H     H_    0.011665 0.754527 0.665340 0.143906
H49   H     H_    0.093564 0.608241 0.666831 0.214922
H50   H     H_    0.069544 0.637107 0.292736 0.144431
H51   H     H_    0.107930 0.667108 0.195537 0.163326
H52   H     H_    0.303680 0.725136 0.343691 0.180803
H53   H     H_    0.343062 0.763986 0.245719 0.125812
H54   H     H_    0.256702 0.947972 0.300579 0.190707
H55   H     H_    0.107392 0.866736 0.335757 0.134471
H56   H     H_    0.611671 0.750648 0.210936 0.103854
H57   H     H_    0.119752 0.893028 0.232058 0.138122
H58   H     H_    0.142043 0.141249 0.506694 0.127388
H59   H     H_    0.119308 0.000446 0.451624 0.110016
H60   H     H_    0.057604 0.264074 0.388805 0.200593
H61   H     H_    0.047510 0.126532 0.331154 0.163455
H62   H     H_    0.868143 0.035804 0.418449 0.155376
H63   H     H_    0.813099 0.177472 0.368465 0.163037
H64   H     H_    0.873733 0.179701 0.470249 0.151524
H65   H     H_    0.807389 0.864289 0.694419 0.139508
H66   H     H_    0.716810 0.001627 0.674758 0.112799
H67   H     H_    0.885092 0.774385 0.313641 0.136190
H68   H     H_    0.994046 0.936985 0.601739 0.161591
H69   H     H_    0.912204 0.083190 0.595073 0.133907
H70   H     H_    0.943586 0.103943 0.740867 0.158427
H71   H     H_    0.106194 0.088750 0.695874 0.132158
H72   H     H_    0.034052 0.957983 0.747285 0.143475
H73   H     H_    0.303264 0.880210 0.439799 0.123064
H74   H     H_    0.694411 0.124578 0.564692 0.125488
H75   H     H_    0.875197 0.765892 0.208161 0.170920
H76   H     H_    0.727447 0.959889 0.301385 0.151723
N1    N     N_2   0.543893 0.456348 0.983968 -0.189774
N2    N     N_2   0.455069 0.518297 0.014516 -0.194116
N3    N     N_R   0.852070 0.500030 0.499980 -0.238222
N4    N     N_R   0.147930 0.499970 0.500020 -0.221093
O1    O     O_R   0.618740 0.319660 0.500000 -0.525567
O2    O     O_3   0.313285 0.603679 0.742031 -0.558565
O3    O     O_3   0.715987 0.507358 0.107598 -0.555411
O4    O     O_3   0.286950 0.494463 0.888103 -0.551647
O5    O     O_3   0.793230 0.474779 0.908512 -0.586312
O6    O     O_3   0.211192 0.558256 0.093232 -0.584842
O7    O     O_3   0.764737 0.410706 0.743165 -0.554128
O8    O     O_3   0.219150 0.525859 0.255800 -0.536836
O9    O     O_3   0.279441 0.121860 0.419683 -0.552748
O10   O     O_3   0.728493 0.877159 0.580194 -0.560550
O11   O     O_R   0.381260 0.680340 0.500000 -0.544786
O12   O     O_R   0.381170 0.319630 0.500010 -0.472146
O13   O     O_R   0.618830 0.680370 0.499990 -0.473110
O14   O     O_R   0.631780 0.498870 0.613920 -0.485926
O15   O     O_R   0.368220 0.501130 0.386080 -0.451717
O16   O     O_R   0.394210 0.498840 0.613930 -0.476435
O17   O     O_R   0.605790 0.501160 0.386070 -0.466520
O18   O     O_3   0.711884 0.589103 0.258250 -0.541540

loop_
_geom_bond_atom_site_label_1
_geom_bond_atom_site_label_2
_ccdc_geom_bond_type
C36   H31   S    
C23   C45   A    
C37   O6    S    
C46   H54   S    
C41   C42   S    
C35   C36   S    
C43   C44   S    
C52   H70   S    
C56   H23   S    
C20   H45   S    
C24   O2    S    
Cu1   O17   S    
C3    O14   A    
C46   H57   S    
C22   H76   S    
C26   H9    S    
C28   C29   S    
C2    C55   A    
C22   H2    S    
C30   C31   S    
C11   C14   A    
C39   H39   S    
C49   H62   S    
C36   H32   S    
Cu1   O14   S    
C41   H44   S    
Cu1   O1    S    
C15   C17   A    
C6    C17   A    
C33   H27   S    
C30   O4    S    
C5    C16   A    
C1    C53   S    
Cu2   O16   S    
C18   C53   A    
C33   C35   S    
C40   H43   S    
C30   H19   S    
C35   H29   S    
C47   C48   S    
C38   H37   S    
C56   N3    A    
C42   H49   S    
C1    O1    A    
Cu2   O11   S    
Cu2   N4    S    
N1    N2    D    
C4    O15   A    
C34   H74   S    
C21   C22   S    
C12   O13   A    
C28   H14   S    
C28   H15   S    
Cu1   N3    S    
C21   H75   S    
C44   C46   S    
C48   H61   S    
C47   O9    S    
C54   H1    S    
C47   H58   S    
C32   H26   S    
C54   C56   A    
C23   H73   S    
C18   C23   A    
C2    N4    A    
C31   H22   S    
C50   H66   S    
C24   C25   S    
C4    C6    S    
C18   O9    S    
C5    C7    A    
C39   H40   S    
C48   H60   S    
C29   H16   S    
C25   C26   S    
C10   C13   A    
C3    O16   A    
C33   O5    S    
C51   C52   S    
C16   O7    S    
C25   H6    S    
C26   H8    S    
C33   H28   S    
C37   C38   S    
Cu2   O15   S    
C11   N1    S    
C9    C11   A    
C35   H30   S    
C39   H41   S    
C31   C32   S    
C49   H63   S    
C50   C51   S    
C37   H35   S    
C1    O12   A    
C2    H34   S    
C42   H48   S    
C40   O7    S    
C36   H33   S    
C48   C49   S    
C24   H5    S    
C13   C15   A    
C13   N2    S    
C14   C16   A    
C52   H71   S    
C21   H67   S    
C27   H13   S    
C50   O10   S    
C7    C9    A    
C32   H25   S    
C14   O5    S    
C40   C41   S    
C24   H4    S    
C20   O18   S    
C46   H55   S    
C38   C39   S    
C51   H68   S    
C12   O11   A    
C50   H65   S    
C12   C45   S    
C3    C5    S    
C19   C34   A    
C27   H11   S    
C40   H42   S    
C6    C8    A    
C9    O4    S    
C19   C45   A    
C31   H21   S    
C29   H17   S    
C32   H24   S    
C19   O10   S    
C55   N3    A    
C41   H46   S    
C26   H10   S    
C17   O8    S    
C51   H69   S    
C43   O8    S    
C22   H3    S    
C20   H56   S    
C52   H72   S    
Cu1   Cu2   S    
C54   N4    A    
C49   H64   S    
Cu1   O13   S    
C27   O3    S    
C37   H36   S    
C43   H50   S    
C8    O18   S    
C42   H47   S    
C55   H12   S    
C15   O6    S    
C30   H20   S    
C44   H53   S    
C7    O2    S    
C47   H59   S    
C4    O17   A    
C29   H18   S    
C20   C21   S    
C34   C53   A    
C8    C10   A    
C38   H38   S    
C27   C28   S    
C25   H7    S    
C43   H51   S    
C10   O3    S    
Cu2   O12   S    
C44   H52   S    
