data_mof_unit_57573.cif
_audit_creation_date              2012-12-10T17:30:16-0500
_audit_creation_method            fapswitch 2.2
_symmetry_space_group_name_H-M    P1
_symmetry_Int_Tables_number       1
_space_group_crystal_system       triclinic
_cell_length_a                    12.078604
_cell_length_b                    12.907059
_cell_length_c                    14.844832
_cell_angle_alpha                 90.856411
_cell_angle_beta                  87.435034
_cell_angle_gamma                 93.272111
_cell_volume                      2308.03223789

loop_
_atom_site_label
_atom_site_type_symbol
_atom_type_description
_atom_site_fract_x
_atom_site_fract_y
_atom_site_fract_z
_atom_type_partial_charge
C1    C     C_R   0.522299 0.700198 0.500769 0.979404
C2    C     C_R   0.383134 0.143648 0.566272 0.391245
C3    C     C_R   0.456862 0.869737 0.545621 0.332003
C4    C     C_R   0.540696 0.130311 0.457952 0.323214
C5    C     C_R   0.459440 0.976912 0.533555 -0.032996
C6    C     C_R   0.541205 0.024302 0.473710 -0.019192
C7    C     C_R   0.951343 0.398079 0.420839 -0.417682
C8    C     C_R   0.048551 0.600444 0.582138 -0.418229
C9    C     C_R   0.836255 0.410909 0.424338 0.498211
C10   C     C_R   0.163931 0.587398 0.577571 0.526090
C11   C     C_R   0.858519 0.538526 0.540704 0.533363
C12   C     C_R   0.477775 0.300077 0.500687 0.989638
C13   C     C_R   0.139939 0.463320 0.458683 0.544081
C14   C     C_R   0.976354 0.535349 0.531661 -0.121299
C15   C     C_R   0.022756 0.464572 0.470367 -0.090476
C16   C     C_R   0.500538 0.497261 0.672530 0.938743
C17   C     C_R   0.499109 0.500096 0.327343 0.941833
C18   C     C_R   0.484595 0.404754 0.187464 -0.319758
C19   C     C_R   0.487552 0.588260 0.813793 -0.275160
C20   C     C_R   0.496960 0.499767 0.232008 -0.189409
C21   C     C_R   0.500622 0.495090 0.767784 -0.177851
C22   C     C_R   0.508920 0.593548 0.186287 0.445676
C23   C     C_R   0.479349 0.684996 0.954470 0.480684
C24   C     C_R   0.503140 0.400356 0.811986 0.427270
C25   C     C_R   0.490593 0.592506 0.094142 -0.036571
C26   C     C_R   0.489877 0.399772 0.905925 -0.022510
C27   C     C_R   0.484232 0.496386 0.047261 -0.042962
C28   C     C_R   0.484477 0.495336 0.953429 -0.047225
C29   C     C_R   0.481779 0.401666 0.094169 0.033582
C30   C     C_R   0.483049 0.590179 0.906995 0.042432
C31   C     C_R   0.480592 0.685088 0.048199 -0.324713
C32   C     C_R   0.483532 0.306105 0.953066 -0.314857
C33   C     C_3   0.649863 0.719338 0.205436 0.075247
C34   C     C_R   0.475713 0.306261 0.047174 0.488565
C35   C     C_3   0.738229 0.649228 0.238575 -0.310650
C36   C     C_3   0.855275 0.693034 0.213134 -0.957700
C37   C     C_3   0.621438 0.282923 0.753709 0.035059
C38   C     C_3   0.627204 0.172113 0.717163 -0.293316
C39   C     C_3   0.746971 0.142021 0.701978 -0.976294
C40   C     C_3   0.572596 0.837944 0.912551 0.063975
C41   C     C_3   0.547373 0.952195 0.923551 -0.310414
C42   C     C_3   0.653612 0.020903 0.931801 -0.956130
C43   C     C_3   0.369557 0.159908 0.088384 0.068484
C44   C     C_3   0.289507 0.196693 0.163806 -0.354253
C45   C     C_R   0.463150 0.189094 0.505245 -0.181601
C46   C     C_3   0.178344 0.134389 0.163855 -0.931746
C47   C     C_3   0.199424 0.463020 0.308924 0.127133
C48   C     C_3   0.102662 0.447113 0.245801 -0.450684
C49   C     C_3   0.132987 0.493308 0.153161 -0.921167
C50   C     C_3   0.817518 0.564950 0.691334 0.083683
C51   C     C_3   0.777193 0.645114 0.760163 -0.316400
C52   C     C_3   0.776503 0.604055 0.856149 -0.980916
C53   C     C_R   0.537210 0.811860 0.500276 -0.151656
C54   C     C_R   0.623039 0.965471 0.431772 -0.300926
C55   C     C_R   0.382258 0.037296 0.580244 -0.321668
C56   C     C_R   0.624539 0.859954 0.447802 0.389426
H1    H     H_    0.479701 0.333840 0.226072 0.214380
H2    H     H_    0.661180 0.728309 0.131231 0.118985
H3    H     H_    0.729559 0.641856 0.312856 0.291146
H4    H     H_    0.727432 0.570506 0.207827 0.219084
H5    H     H_    0.867472 0.697601 0.138650 0.262690
H6    H     H_    0.916932 0.641497 0.238857 0.270385
H7    H     H_    0.869839 0.771627 0.243247 0.265468
H8    H     H_    0.662949 0.287983 0.819419 0.134028
H9    H     H_    0.667119 0.335778 0.704969 0.154648
H10   H     H_    0.582577 0.117584 0.765142 0.228426
H11   H     H_    0.586108 0.165393 0.652120 0.227590
H12   H     H_    0.483859 0.659347 0.776154 0.208576
H13   H     H_    0.790870 0.192832 0.650497 0.268246
H14   H     H_    0.747881 0.060313 0.677530 0.271190
H15   H     H_    0.791365 0.149248 0.765865 0.265769
H16   H     H_    0.620708 0.826842 0.847863 0.155304
H17   H     H_    0.626257 0.817612 0.968349 0.114457
H18   H     H_    0.502236 0.976561 0.864506 0.225222
H19   H     H_    0.493294 0.962404 0.985218 0.223230
H20   H     H_    0.696567 0.001162 0.993375 0.270018
H21   H     H_    0.633068 0.103568 0.936716 0.275888
H22   H     H_    0.710222 0.010263 0.871804 0.265564
H23   H     H_    0.984648 0.338153 0.377633 0.191976
H24   H     H_    0.381556 0.076183 0.098058 0.172683
H25   H     H_    0.332280 0.165991 0.021385 0.129606
H26   H     H_    0.326955 0.188177 0.230159 0.243395
H27   H     H_    0.274630 0.279845 0.154483 0.213670
H28   H     H_    0.138173 0.143744 0.098828 0.262934
H29   H     H_    0.122708 0.162779 0.219310 0.265984
H30   H     H_    0.190345 0.050833 0.174467 0.265875
H31   H     H_    0.690156 0.164139 0.414531 0.342114
H32   H     H_    0.304750 0.843239 0.587522 0.340459
H33   H     H_    0.261591 0.161023 0.655418 0.333680
H34   H     H_    0.016027 0.659827 0.626498 0.183976
H35   H     H_    0.765024 0.848953 0.379142 0.322368
H36   H     H_    0.272634 0.434052 0.270996 0.187006
H37   H     H_    0.216684 0.547767 0.321862 0.136103
H38   H     H_    0.080772 0.362883 0.237194 0.239554
H39   H     H_    0.029664 0.486766 0.274101 0.230620
H40   H     H_    0.154586 0.577839 0.159666 0.269162
H41   H     H_    0.061073 0.481923 0.109311 0.271514
H42   H     H_    0.204587 0.454722 0.120592 0.262591
H43   H     H_    0.903329 0.547449 0.707363 0.124147
H44   H     H_    0.766522 0.491470 0.699465 0.142875
H45   H     H_    0.476861 0.758351 0.084557 0.189106
H46   H     H_    0.832653 0.716735 0.755307 0.215038
H47   H     H_    0.692290 0.665760 0.744566 0.228146
H48   H     H_    0.722883 0.531499 0.862425 0.265384
H49   H     H_    0.743807 0.662777 0.904210 0.255021
H50   H     H_    0.862064 0.588099 0.874256 0.268941
H51   H     H_    0.189957 0.687036 0.674763 0.320152
H52   H     H_    0.811165 0.309768 0.328182 0.316863
H53   H     H_    0.485437 0.232370 0.917388 0.188804
H54   H     H_    0.686262 0.000130 0.385995 0.158972
H55   H     H_    0.323002 0.003521 0.629747 0.166720
H56   H     H_    0.664827 0.798367 0.234469 0.188760
N1    N     N_R   0.207800 0.519350 0.516680 -0.159748
N2    N     N_R   0.792200 0.480650 0.483320 -0.155296
O1    O     O_R   0.421700 0.658830 0.504450 -0.567596
O2    O     O_3   0.509149 0.308359 0.763035 -0.635493
O3    O     O_3   0.471205 0.777366 0.909594 -0.636700
O4    O     O_3   0.474790 0.213537 0.093193 -0.639456
O5    O     O_3   0.614633 0.178267 0.396183 -0.716533
O6    O     O_3   0.378348 0.819834 0.602576 -0.721070
O7    O     O_3   0.311236 0.205183 0.615011 -0.716768
O8    O     O_3   0.708277 0.802259 0.410569 -0.756130
O9    O     O_3   0.185342 0.403855 0.389319 -0.630145
O10   O     O_3   0.809705 0.604408 0.603244 -0.606236
O11   O     O_3   0.234255 0.642970 0.633298 -0.687823
O12   O     O_R   0.578300 0.341170 0.495550 -0.576790
O13   O     O_3   0.766465 0.354451 0.368793 -0.697788
O14   O     O_R   0.609310 0.646410 0.493750 -0.558798
O15   O     O_R   0.390690 0.353590 0.506250 -0.559681
O16   O     O_R   0.406180 0.506230 0.637500 -0.545540
O17   O     O_R   0.593820 0.493770 0.362500 -0.579489
O18   O     O_R   0.593800 0.493820 0.626800 -0.654294
O19   O     O_R   0.406200 0.506180 0.373200 -0.654235
O20   O     O_3   0.539851 0.684070 0.232875 -0.658440
Zn1   Zn    Zn3+2 0.374730 0.508290 0.507150 1.061577
Zn2   Zn    Zn3+2 0.625270 0.491710 0.492850 1.035349

loop_
_geom_bond_atom_site_label_1
_geom_bond_atom_site_label_2
_ccdc_geom_bond_type
C25   C31   A    
C34   O4    S    
C33   H2    S    
C48   H39   S    
C17   O17   A    
C41   C42   S    
C11   O10   S    
C1    O14   A    
C44   H27   S    
O1    Zn1   S    
C37   O2    S    
C51   H46   S    
C26   C32   A    
C50   H43   S    
C9    O13   S    
C48   H38   S    
C22   O20   S    
C9    N2    A    
C31   H45   S    
C19   C21   A    
C24   C26   A    
C44   H26   S    
C2    C55   A    
O14   Zn2   S    
C38   C39   S    
C13   O9    S    
C11   C14   A    
C53   C56   A    
C27   C29   A    
C51   H47   S    
C17   C20   S    
C40   H17   S    
C54   H54   S    
C35   H3    S    
C47   H36   S    
C11   N2    A    
C1    C53   S    
C41   H18   S    
O15   Zn1   S    
C33   O20   S    
C35   C36   S    
C22   C25   A    
C37   H9    S    
C4    O5    S    
H32   O6    S    
C36   H7    S    
C16   O16   A    
C46   H29   S    
C7    C15   A    
C40   O3    S    
C49   H42   S    
C52   H50   S    
H52   O13   S    
N2    Zn2   S    
C6    C54   A    
C36   H6    S    
C44   C46   S    
C4    C45   A    
C2    C45   A    
C39   H13   S    
C54   C56   A    
C12   O15   A    
C51   C52   S    
C23   C30   A    
C38   H10   S    
C50   O10   S    
H51   O11   S    
C4    C6    A    
O17   Zn2   S    
C32   H53   S    
C18   C29   A    
C43   H24   S    
C29   C34   A    
H35   O8    S    
C35   H4    S    
C32   C34   A    
C43   C44   S    
H31   O5    S    
C37   C38   S    
C41   H19   S    
C18   H1    S    
C47   O9    S    
C47   C48   S    
O18   Zn2   S    
C50   C51   S    
C47   H37   S    
C19   H12   S    
C33   H56   S    
C10   N1    A    
C46   H28   S    
C40   C41   S    
O16   Zn1   S    
C20   C22   A    
C52   H49   S    
C42   H22   S    
C13   C15   A    
C17   O19   A    
C43   H25   S    
C8    H34   S    
C36   H5    S    
C10   O11   S    
C37   H8    S    
C7    H23   S    
C2    O7    S    
C7    C9    A    
C52   H48   S    
C8    C14   A    
C40   H16   S    
C55   H55   S    
C26   C28   A    
C5    C55   A    
C12   C45   S    
C3    C5    A    
C56   O8    S    
C23   O3    S    
C16   C21   S    
C24   O2    S    
C25   C27   A    
C42   H20   S    
C28   C30   A    
O12   Zn2   S    
C3    C53   A    
C5    C6    A    
H33   O7    S    
C48   C49   S    
C33   C35   S    
C39   H14   S    
C18   C20   A    
C49   H40   S    
C16   O18   A    
C50   H44   S    
C3    O6    S    
C43   O4    S    
C49   H41   S    
C12   O12   A    
C38   H11   S    
C42   H21   S    
C8    C10   A    
N1    Zn1   S    
C21   C24   A    
C27   C28   A    
O19   Zn1   S    
C39   H15   S    
C14   C15   A    
C1    O1    A    
C19   C30   A    
C13   N1    A    
C23   C31   A    
C46   H30   S    
