data_mof_unit_5890.cif
_audit_creation_date              2012-12-10T18:42:31-0500
_audit_creation_method            fapswitch 2.2
_symmetry_space_group_name_H-M    P1
_symmetry_Int_Tables_number       1
_space_group_crystal_system       triclinic
_cell_length_a                    8.590657
_cell_length_b                    10.712767
_cell_length_c                    9.879727
_cell_angle_alpha                 90.317411
_cell_angle_beta                  98.942475
_cell_angle_gamma                 90.548295
_cell_volume                      898.112766643

loop_
_atom_site_label
_atom_site_type_symbol
_atom_type_description
_atom_site_fract_x
_atom_site_fract_y
_atom_site_fract_z
_atom_type_partial_charge
C1    C     C_R   0.499569 0.259995 0.499665 0.878116
C2    C     C_R   0.500431 0.740005 0.500335 0.878116
C3    C     C_R   0.201120 0.499921 0.463957 0.980961
C4    C     C_R   0.798880 0.500079 0.536043 0.980961
C5    C     C_2   0.035734 0.499932 0.444763 -0.363406
C6    C     C_2   0.964266 0.500067 0.555237 -0.363406
C7    C     C_R   0.531657 0.063561 0.383711 -0.145882
C8    C     C_R   0.468343 0.936439 0.616289 -0.145882
C9    C     C_R   0.532515 0.935692 0.384220 -0.176615
C10   C     C_R   0.467485 0.064308 0.615780 -0.176615
C11   C     C_R   0.500725 0.872517 0.500478 -0.022389
C12   C     C_R   0.499275 0.127483 0.499522 -0.022389
C13   C     C_R   0.599036 0.577060 0.086572 -0.163122
C14   C     C_R   0.400964 0.422940 0.913428 -0.163122
C15   C     C_R   0.599461 0.577374 0.943372 0.333388
C16   C     C_R   0.400539 0.422626 0.056628 0.333388
H1    H     H_    0.973292 0.499851 0.340140 0.199704
H2    H     H_    0.026708 0.500148 0.659860 0.199704
H3    H     H_    0.557425 0.111960 0.293612 0.181704
H4    H     H_    0.442575 0.888040 0.706388 0.181704
H5    H     H_    0.558829 0.886718 0.294336 0.169258
H6    H     H_    0.441171 0.113282 0.705664 0.169258
N1    N     N_R   0.499960 0.499970 0.857200 -0.122048
N2    N     N_R   0.500040 0.500030 0.142800 -0.122048
O1    O     O_R   0.499990 0.316750 0.614620 -0.634508
O2    O     O_R   0.500010 0.683250 0.385380 -0.634508
O3    O     O_R   0.499990 0.316780 0.385290 -0.590900
O4    O     O_R   0.500010 0.683220 0.614710 -0.590900
O5    O     O_R   0.271750 0.499990 0.587840 -0.626010
O6    O     O_R   0.728250 0.500010 0.412160 -0.626010
O7    O     O_R   0.271750 0.500010 0.358510 -0.576465
O8    O     O_R   0.728250 0.499990 0.641490 -0.576465
Zn1   Zn    Zn3+2 0.500000 0.499980 0.653120 0.999354
Zn2   Zn    Zn3+2 0.500000 0.500020 0.346880 0.999354
H7    H     H_    0.678074 0.638565 0.152715 0.171925
H8    H     H_    0.321926 0.361435 0.847285 0.171925
Br1   Br    Br    0.743342 0.689147 0.875389 -0.493066
Br2   Br    Br    0.256658 0.310853 0.124611 -0.493066

loop_
_geom_bond_atom_site_label_1
_geom_bond_atom_site_label_2
_ccdc_geom_bond_type
C14   N1    A    
C1    O1    A    
C7    C9    A    
O8    Zn1   S    
C2    O2    A    
O7    Zn2   S    
C16   N2    A    
C4    O8    A    
C10   H6    S    
C3    O7    A    
C9    C11   A    
C9    H5    S    
C8    H4    S    
C1    C12   S    
C10   C12   A    
C8    C11   A    
C5    C6    D    
C2    C11   S    
C15   N1    A    
O4    Zn1   S    
C13   H7    S    
C7    H3    S    
C13   C15   A    
O3    Zn2   S    
C14   H8    S    
C7    C12   A    
C6    H2    S    
C14   C16   A    
C5    H1    S    
O6    Zn2   S    
O5    Zn1   S    
C3    O5    A    
C4    C6    S    
O1    Zn1   S    
C1    O3    A    
C15   Br1   S    
C2    O4    A    
N1    Zn1   S    
O2    Zn2   S    
C8    C10   A    
C4    O6    A    
C13   N2    A    
C16   Br2   S    
C3    C5    S    
N2    Zn2   S    
