data_mof_unit_13417.cif
_audit_creation_date              2012-12-11T15:50:38-0500
_audit_creation_method            fapswitch 2.2
_symmetry_space_group_name_H-M    P1
_symmetry_Int_Tables_number       1
_space_group_crystal_system       triclinic
_cell_length_a                    19.020374
_cell_length_b                    10.967916
_cell_length_c                    18.815922
_cell_angle_alpha                 90.05909
_cell_angle_beta                  91.057144
_cell_angle_gamma                 89.958819
_cell_volume                      3924.5910388

loop_
_atom_site_label
_atom_site_type_symbol
_atom_type_description
_atom_site_fract_x
_atom_site_fract_y
_atom_site_fract_z
_atom_type_partial_charge
C1    C     C_R   0.272527 0.042140 0.853536 0.534869
C2    C     C_R   0.754058 0.585543 0.923888 0.009466
C3    C     C_R   0.227811 0.542540 0.355027 0.556711
C4    C     C_R   0.470879 0.823120 0.647772 0.584687
C5    C     C_R   0.534630 0.823916 0.355610 0.594193
C6    C     C_R   0.968024 0.323087 0.645974 0.615193
C7    C     C_R   0.030872 0.324702 0.353342 0.585590
C8    C     C_R   0.259276 0.635873 0.644512 0.553860
C9    C     C_R   0.737889 0.643761 0.358987 0.549788
C10   C     C_R   0.758925 0.135593 0.644789 0.551353
C11   C     C_R   0.238190 0.143317 0.358777 0.554879
C12   C     C_3   0.469451 0.914812 0.040210 -0.045844
C13   C     C_R   0.742706 0.081796 0.073997 0.023909
C14   C     C_3   0.510336 0.938077 0.971487 -0.016539
C15   C     C_3   0.969425 0.414796 0.040222 -0.045735
C16   C     C_3   0.010310 0.438084 0.971502 -0.016240
C17   C     C_3   0.430446 0.809264 0.004155 0.194076
C18   C     C_3   0.567368 0.848141 0.997206 0.186267
C19   C     C_3   0.930430 0.309245 0.004159 0.193676
C20   C     C_3   0.067348 0.348157 0.997215 0.186610
C21   C     C_3   0.471213 0.829834 0.935692 -0.009013
C22   C     C_3   0.526672 0.824759 0.065178 -0.022009
C23   C     C_3   0.971197 0.329837 0.935697 -0.008924
C24   C     C_R   0.254055 0.085544 0.923887 0.009884
C25   C     C_3   0.026653 0.324754 0.065185 -0.021724
C26   C     C_1   0.442084 0.999912 0.093126 0.240479
C27   C     C_1   0.514316 0.060204 0.940122 0.227078
C28   C     C_1   0.942043 0.499851 0.093155 0.239847
C29   C     C_1   0.014291 0.560222 0.940152 0.227608
C30   C     C_R   0.306206 0.557105 0.040551 0.040142
C31   C     C_R   0.692098 0.553080 0.958496 -0.019610
C32   C     C_R   0.806205 0.057088 0.040551 0.040079
C33   C     C_R   0.192097 0.053074 0.958496 -0.018986
C34   C     C_R   0.311390 0.564697 0.966882 0.125279
C35   C     C_R   0.687362 0.563425 0.032207 0.045501
C36   C     C_R   0.811388 0.064679 0.966882 0.125144
C37   C     C_R   0.726812 0.041309 0.145827 0.535596
C38   C     C_R   0.187361 0.063421 0.032208 0.045200
C39   C     C_R   0.190457 0.626081 0.958451 -0.112579
C40   C     C_R   0.804537 0.643980 0.037151 -0.165994
C41   C     C_R   0.690459 0.126089 0.958453 -0.112516
C42   C     C_R   0.304531 0.143995 0.037149 -0.166055
C43   C     C_R   0.186138 0.624542 0.031711 -0.116569
C44   C     C_R   0.808262 0.638867 0.964402 -0.176479
C45   C     C_R   0.686141 0.124549 0.031713 -0.116511
C46   C     C_R   0.308257 0.138881 0.964400 -0.176729
C47   C     C_3   0.351243 0.447268 0.045036 -0.190088
C48   C     C_R   0.772527 0.542141 0.853535 0.533780
C49   C     C_3   0.652793 0.435950 0.956680 -0.179026
C50   C     C_3   0.851236 0.947245 0.045036 -0.189942
C51   C     C_3   0.152796 0.935938 0.956683 -0.178657
C52   C     C_3   0.356561 0.453619 0.964672 0.089653
C53   C     C_3   0.648347 0.445627 0.036905 0.095823
C54   C     C_3   0.856553 0.953594 0.964673 0.089428
C55   C     C_3   0.148351 0.945620 0.036909 0.095562
C56   C     C_R   0.252514 0.593827 0.924454 0.007594
C57   C     C_R   0.745550 0.601953 0.073119 -0.009455
C58   C     C_R   0.752513 0.093822 0.924453 0.007488
C59   C     C_R   0.226812 0.541309 0.145826 0.535856
C60   C     C_R   0.245548 0.101958 0.073117 -0.009270
C61   C     C_R   0.520878 0.833190 0.431382 0.038678
C62   C     C_R   0.505302 0.828646 0.579405 0.007147
C63   C     C_R   0.000605 0.340228 0.423203 -0.000546
C64   C     C_R   0.984668 0.330458 0.571232 0.050470
C65   C     C_R   0.442188 0.818378 0.863013 0.567817
C66   C     C_R   0.557084 0.817449 0.137107 0.552007
C67   C     C_R   0.942181 0.318378 0.863013 0.566532
C68   C     C_R   0.057075 0.317449 0.137107 0.551091
C69   C     C_R   0.518021 0.724064 0.468285 -0.034603
C70   C     C_3   0.529112 0.739893 0.961448 -0.075948
C71   C     C_R   0.511064 0.720821 0.540223 -0.019358
C72   C     C_R   0.965874 0.243804 0.454592 -0.038332
C73   C     C_R   0.957101 0.240172 0.526393 -0.019003
C74   C     C_R   0.522301 0.940023 0.546595 0.181698
C75   C     C_R   0.527736 0.943629 0.470736 0.191947
C76   C     C_R   0.011026 0.437801 0.540843 0.176922
C77   C     C_R   0.015836 0.445438 0.465281 0.188786
C78   C     C_3   0.472824 0.614827 0.455356 0.148155
C79   C     C_3   0.464495 0.610237 0.535153 0.161321
C80   C     C_3   0.972365 0.108371 0.448427 0.122369
C81   C     C_3   0.486484 0.717495 0.029970 -0.050833
C82   C     C_3   0.961522 0.104010 0.528282 0.166191
C83   C     C_R   0.242025 0.567663 0.428297 0.053763
C84   C     C_R   0.749267 0.606309 0.581652 0.011568
C85   C     C_R   0.740179 0.064453 0.429158 0.049033
C86   C     C_R   0.249952 0.105138 0.581238 0.015513
C87   C     C_R   0.192112 0.636288 0.462362 0.075745
C88   C     C_R   0.799709 0.671857 0.544164 0.015376
C89   C     C_R   0.693118 0.140485 0.462087 0.063011
C90   C     C_R   0.299817 0.172926 0.544203 0.013654
C91   C     C_R   0.193227 0.645971 0.534146 0.029014
C92   C     C_3   0.029102 0.239905 0.961452 -0.075574
C93   C     C_R   0.795529 0.677250 0.472039 0.012941
C94   C     C_R   0.694425 0.152140 0.533711 0.020387
C95   C     C_R   0.295472 0.180206 0.471953 0.019473
C96   C     C_R   0.289553 0.503006 0.542954 -0.161680
C97   C     C_R   0.681962 0.582115 0.472326 -0.157522
C98   C     C_R   0.782322 0.994513 0.544937 -0.175491
C99   C     C_R   0.184406 0.076001 0.471534 -0.152936
C100  C     C_R   0.288263 0.493694 0.468972 -0.103546
C101  C     C_R   0.686020 0.574914 0.546645 -0.162581
C102  C     C_R   0.781088 0.983479 0.471020 -0.110868
C103  C     C_3   0.986474 0.217485 0.029971 -0.051295
C104  C     C_R   0.188124 0.069289 0.545659 -0.140568
C105  C     C_3   0.172808 0.765931 0.449938 -0.279961
C106  C     C_3   0.878573 0.661443 0.541742 -0.257040
C107  C     C_3   0.678626 0.271695 0.448542 -0.276919
C108  C     C_3   0.378682 0.162680 0.541827 -0.250590
C109  C     C_3   0.174866 0.778708 0.529673 -0.268966
C110  C     C_3   0.872598 0.667907 0.461795 -0.286189
C111  C     C_3   0.680852 0.286418 0.528283 -0.261007
C112  C     C_3   0.372727 0.171686 0.462045 -0.279775
C113  C     C_R   0.261133 0.636581 0.851832 0.542194
C114  C     C_R   0.242705 0.581799 0.073996 0.024127
C115  C     C_R   0.738308 0.638779 0.147210 0.547470
C116  C     C_R   0.761133 0.136579 0.851832 0.540065
C117  C     C_R   0.238307 0.138781 0.147210 0.548082
C118  C     C_R   0.244764 0.586794 0.575274 0.023551
C119  C     C_R   0.740780 0.622638 0.434403 0.012181
C120  C     C_R   0.743039 0.087351 0.575717 0.024227
C121  C     C_R   0.241856 0.122080 0.434087 0.015395
C122  C     C_R   0.271124 0.048315 0.647211 0.538695
C123  C     C_R   0.727299 0.041481 0.355467 0.558560
C124  C     C_R   0.770848 0.548756 0.647419 0.535137
Cr1   Cr    Cr6+3 0.229640 0.835880 0.747370 1.031852
Cr2   Cr    Cr6+3 0.614230 0.677220 0.250660 1.002100
Cr3   Cr    Cr6+3 0.885770 0.177220 0.749340 1.031547
Cr4   Cr    Cr6+3 0.114230 0.177220 0.250660 1.003878
Cr5   Cr    Cr6+3 0.770360 0.835880 0.252630 1.031528
Cr6   Cr    Cr6+3 0.729640 0.335880 0.747370 1.027220
Cr7   Cr    Cr6+3 0.270360 0.335880 0.252630 1.025243
Cr8   Cr    Cr6+3 0.387390 0.989720 0.750850 1.069016
Cr9   Cr    Cr6+3 0.612610 0.989720 0.249150 1.077753
Cr10  Cr    Cr6+3 0.887390 0.489720 0.750850 1.063251
Cr11  Cr    Cr6+3 0.112610 0.489720 0.249150 1.079463
Cr12  Cr    Cr6+3 0.385770 0.677220 0.749340 1.007260
H1    H     H_    0.024330 0.074373 0.431475 0.152428
H2    H     H_    0.643714 0.532294 0.575161 0.174459
H3    H     H_    0.813239 0.914791 0.446619 0.182916
H4    H     H_    0.147770 0.021307 0.573802 0.180103
H5    H     H_    0.119123 0.776186 0.426383 0.159165
H6    H     H_    0.898020 0.571558 0.560130 0.195469
H7    H     H_    0.625442 0.286950 0.424699 0.163130
H8    H     H_    0.398351 0.071988 0.559002 0.202920
H9    H     H_    0.214767 0.818167 0.423033 0.141080
H10   H     H_    0.905634 0.741689 0.565847 0.142694
H11   H     H_    0.722463 0.318645 0.421421 0.134782
H12   H     H_    0.912340 0.060961 0.545675 0.157420
H13   H     H_    0.405703 0.242182 0.566817 0.166574
H14   H     H_    0.219251 0.836322 0.548814 0.164856
H15   H     H_    0.895695 0.752303 0.439482 0.161243
H16   H     H_    0.726895 0.340398 0.547218 0.160489
H17   H     H_    0.395780 0.256797 0.440669 0.150944
H18   H     H_    0.122694 0.799225 0.552558 0.134404
H19   H     H_    0.887526 0.581815 0.434704 0.157825
H20   H     H_    0.629277 0.312436 0.550688 0.166518
H21   H     H_    0.388154 0.086586 0.434138 0.168562
H22   H     H_    0.554631 0.668483 0.929006 0.171750
H23   H     H_    0.501099 0.535410 0.432290 0.144759
H24   H     H_    0.476033 0.628134 0.054838 0.204136
H25   H     H_    0.054629 0.168504 0.929008 0.172618
H26   H     H_    0.976031 0.128118 0.054835 0.204151
H27   H     H_    0.145494 0.657447 0.928152 0.173513
H28   H     H_    0.848639 0.684117 0.064722 0.173682
H29   H     H_    0.645500 0.157470 0.928156 0.173474
H30   H     H_    0.348631 0.184139 0.064718 0.173578
H31   H     H_    0.135753 0.647392 0.054139 0.163735
H32   H     H_    0.857299 0.667210 0.941203 0.168260
H33   H     H_    0.635758 0.147409 0.054141 0.163714
H34   H     H_    0.409993 0.626531 0.553221 0.168608
H35   H     H_    0.357292 0.167230 0.941199 0.168135
H36   H     H_    0.819700 0.870955 0.064452 0.122332
H37   H     H_    0.186743 0.860486 0.938971 0.128786
H38   H     H_    0.319711 0.370974 0.064452 0.122428
H39   H     H_    0.686737 0.360495 0.938966 0.129186
H40   H     H_    0.401305 0.463779 0.074748 0.176765
H41   H     H_    0.601346 0.444099 0.928041 0.192269
H42   H     H_    0.901299 0.963750 0.074748 0.176844
H43   H     H_    0.101349 0.944081 0.928045 0.193029
H44   H     H_    0.331726 0.376740 0.935133 0.120095
H45   H     H_    0.328716 0.453171 0.573728 0.131328
H46   H     H_    0.677366 0.373244 0.066772 0.126802
H47   H     H_    0.831714 0.876719 0.935134 0.119891
H48   H     H_    0.177372 0.873241 0.066777 0.126953
H49   H     H_    0.337579 0.867283 0.981324 0.312112
H50   H     H_    0.661926 0.817157 0.030396 0.314255
H51   H     H_    0.837561 0.367252 0.981326 0.312259
H52   H     H_    0.161909 0.317134 0.030383 0.314247
H53   H     H_    0.560969 0.101083 0.565433 0.332170
H54   H     H_    0.518859 0.120396 0.462812 0.318072
H55   H     H_    0.062371 0.588667 0.560376 0.334878
H56   H     H_    0.634864 0.550724 0.444879 0.144636
H57   H     H_    0.020225 0.621580 0.458651 0.307025
H58   H     H_    0.416117 0.625512 0.369363 0.336274
H59   H     H_    0.481228 0.501384 0.614295 0.339209
H60   H     H_    0.927065 0.067942 0.359148 0.342735
H61   H     H_    0.019296 0.973032 0.563587 0.303038
H62   H     H_    0.423901 0.478842 0.890838 0.343695
H63   H     H_    0.581239 0.466149 0.111397 0.337512
H64   H     H_    0.923894 0.978817 0.890839 0.344187
H65   H     H_    0.081241 0.966140 0.111401 0.337616
H66   H     H_    0.817451 0.938267 0.576826 0.121299
H67   H     H_    0.139296 0.038508 0.443675 0.132338
H68   H     H_    0.324244 0.431795 0.443695 0.157630
N1    N     N_1   0.423410 0.063384 0.138144 -0.279911
N2    N     N_1   0.515293 0.156647 0.915279 -0.299162
N3    N     N_1   0.923353 0.563282 0.138186 -0.281456
N4    N     N_1   0.015272 0.656676 0.915323 -0.298531
O1    O     O_R   0.214300 0.709080 0.827500 -0.520373
O2    O     O_R   0.543340 0.717710 0.330180 -0.546059
O3    O     O_R   0.956660 0.217710 0.669820 -0.487389
O4    O     O_R   0.043340 0.217710 0.330180 -0.550943
O5    O     O_R   0.320590 0.625770 0.672930 -0.524952
O6    O     O_R   0.679410 0.625770 0.327070 -0.516377
O7    O     O_R   0.820590 0.125770 0.672930 -0.518397
O8    O     O_R   0.179410 0.125770 0.327070 -0.513684
O9    O     O_3   0.334270 0.834280 0.749190 -0.283595
O10   O     O_3   0.665730 0.834280 0.250810 -0.290162
O11   O     O_3   0.834270 0.334280 0.749190 -0.289458
O12   O     O_R   0.785700 0.709080 0.172500 -0.505834
O13   O     O_3   0.165730 0.334280 0.250810 -0.285156
O14   O     O_R   0.236190 0.958390 0.823150 -0.506933
O15   O     O_R   0.763810 0.958390 0.176850 -0.513607
O16   O     O_R   0.736190 0.458390 0.823150 -0.508037
O17   O     O_R   0.263810 0.458390 0.176850 -0.514284
O18   O     O_R   0.332090 0.075280 0.831290 -0.525692
O19   O     O_R   0.667910 0.075280 0.168710 -0.529640
O20   O     O_R   0.832090 0.575280 0.831290 -0.525233
O21   O     O_R   0.167910 0.575280 0.168710 -0.529651
O22   O     O_R   0.446280 0.918040 0.826620 -0.490216
O23   O     O_R   0.714300 0.209080 0.827500 -0.520885
O24   O     O_R   0.553720 0.918040 0.173380 -0.481045
O25   O     O_R   0.946280 0.418040 0.826620 -0.489746
O26   O     O_R   0.053720 0.418040 0.173380 -0.483132
O27   O     O_R   0.457080 0.716270 0.831760 -0.510030
O28   O     O_R   0.542920 0.716270 0.168240 -0.520020
O29   O     O_R   0.957080 0.216270 0.831760 -0.508402
O30   O     O_R   0.042920 0.216270 0.168240 -0.521395
O31   O     O_R   0.320980 0.624440 0.823040 -0.514583
O32   O     O_R   0.679020 0.624440 0.176960 -0.520619
O33   O     O_R   0.820980 0.124440 0.823040 -0.516054
O34   O     O_R   0.285700 0.209080 0.172500 -0.506031
O35   O     O_R   0.179020 0.124440 0.176960 -0.520648
O36   O     O_R   0.213880 0.710510 0.665560 -0.504589
O37   O     O_R   0.786120 0.710510 0.334440 -0.506941
O38   O     O_R   0.713880 0.210510 0.665560 -0.505559
O39   O     O_R   0.286120 0.210510 0.334440 -0.509009
O40   O     O_R   0.235800 0.959720 0.673040 -0.511885
O41   O     O_R   0.764200 0.959720 0.326960 -0.503598
O42   O     O_R   0.735800 0.459720 0.673040 -0.511757
O43   O     O_R   0.264200 0.459720 0.326960 -0.516487
O44   O     O_R   0.331670 0.076720 0.669350 -0.516867
O45   O     O_R   0.445900 0.919370 0.676500 -0.443076
O46   O     O_R   0.668330 0.076720 0.330650 -0.489753
O47   O     O_R   0.831670 0.576720 0.669350 -0.518815
O48   O     O_R   0.168330 0.576720 0.330650 -0.484431
O49   O     O_3   0.357623 0.796943 0.007800 -0.709613
O50   O     O_3   0.639700 0.868559 0.993060 -0.705228
O51   O     O_3   0.857608 0.296914 0.007801 -0.709791
O52   O     O_3   0.139679 0.368590 0.993074 -0.704765
O53   O     O_3   0.530246 0.041909 0.589172 -0.700072
O54   O     O_3   0.536164 0.051582 0.434076 -0.689799
O55   O     O_3   0.033681 0.529436 0.586283 -0.700219
O56   O     O_R   0.554100 0.919370 0.323500 -0.430765
O57   O     O_3   0.038364 0.550374 0.432357 -0.684008
O58   O     O_3   0.409611 0.645534 0.420229 -0.742842
O59   O     O_3   0.497168 0.506821 0.564528 -0.754236
O60   O     O_3   0.915715 0.058308 0.410078 -0.746971
O61   O     O_3   0.021240 0.063382 0.565618 -0.725431
O62   O     O_3   0.424994 0.481015 0.943543 -0.670518
O63   O     O_3   0.579070 0.462982 0.058719 -0.686001
O64   O     O_3   0.924987 0.980980 0.943544 -0.670388
O65   O     O_3   0.079073 0.962970 0.058722 -0.685965
O66   O     O_R   0.945900 0.419370 0.676500 -0.461632
O67   O     O_R   0.054100 0.419370 0.323500 -0.424999
O68   O     O_R   0.456660 0.717710 0.669820 -0.547591

loop_
_geom_bond_atom_site_label_1
_geom_bond_atom_site_label_2
_ccdc_geom_bond_type
C1    O18   A    
C18   C70   S    
Cr9   O56   S    
C83   C87   A    
H65   O65   S    
C34   C56   A    
C4    C62   S    
C35   C53   S    
C100  H68   S    
C14   C18   S    
C13   C32   A    
C98   H66   S    
H58   O58   S    
C49   H39   S    
C96   H45   S    
Cr5   O15   S    
C86   C104  A    
C111  H16   S    
C71   C79   S    
C7    O4    A    
Cr6   O38   S    
C8    C118  S    
C90   C95   A    
C57   C115  S    
C11   C121  S    
Cr1   O14   S    
C61   C75   A    
C15   C19   S    
C5    O2    A    
C20   C92   S    
H51   O51   S    
C50   C54   S    
C29   N4    T    
C65   O22   A    
C82   O61   S    
C78   O58   S    
C79   H34   S    
C96   C118  A    
C50   H42   S    
C3    O43   A    
C41   C58   A    
C40   H28   S    
Cr5   O12   S    
C36   C58   A    
C95   C112  S    
C43   C114  A    
C30   C114  A    
C115  O32   A    
C48   O20   A    
C49   C53   S    
C10   O7    A    
C15   C25   S    
C20   C25   S    
C8    O36   A    
Cr4   O30   S    
C80   H1    S    
Cr12  O27   S    
C66   O24   A    
C94   C111  S    
C88   C106  S    
C46   H35   S    
Cr1   O36   S    
C51   H37   S    
Cr8   O9    S    
C44   H32   S    
C3    C83   S    
C6    C64   S    
C89   C94   A    
C69   C71   A    
C70   C81   S    
C3    O48   A    
C22   C66   S    
C123  O46   A    
C124  O42   A    
C110  H19   S    
Cr2   O6    S    
C92   C103  S    
C97   C119  A    
C88   C93   A    
C94   C120  A    
C97   H56   S    
C52   O62   S    
C38   C55   S    
C2    C44   A    
C53   O63   S    
C41   H29   S    
C12   C17   S    
C86   C122  S    
C5    O56   A    
C54   O64   S    
C64   C73   A    
C85   C123  S    
Cr2   O28   S    
C10   O38   A    
Cr11  O48   S    
H59   O59   S    
C111  H20   S    
C55   H48   S    
Cr11  O67   S    
C47   H40   S    
C1    C24   S    
C16   C20   S    
C11   O8    A    
C99   C121  A    
C99   H67   S    
C117  O34   A    
C95   C121  A    
C63   C77   A    
C99   C104  A    
C75   O54   S    
Cr2   O32   S    
C81   H24   S    
C18   C22   S    
C85   C102  A    
C58   C116  S    
C84   C101  A    
C89   C107  S    
C69   C78   S    
Cr12  O68   S    
C25   C68   S    
C19   C103  S    
C4    O45   A    
C31   C49   S    
C124  O47   A    
C51   H43   S    
Cr4   O35   S    
C90   C108  S    
Cr7   O43   S    
C106  H6    S    
C49   H41   S    
Cr6   O42   S    
C39   C43   A    
Cr11  O13   S    
C87   C91   A    
Cr5   O41   S    
C55   O65   S    
C18   O50   S    
C74   C75   A    
C30   C34   A    
Cr3   O11   S    
C4    O68   A    
C22   C81   S    
C84   C88   A    
C30   C47   S    
C36   C54   S    
C76   C77   A    
C37   O15   A    
C80   C82   S    
C110  H15   S    
Cr2   O2    S    
C42   C60   A    
Cr1   O1    S    
C78   C79   S    
C25   C103  S    
Cr5   O37   S    
C6    O3    A    
C48   O16   A    
C51   C55   S    
C2    C48   S    
C16   C29   S    
C98   C102  A    
C103  H26   S    
C67   O29   A    
C15   C16   S    
C17   C21   S    
C37   O19   A    
C108  C112  S    
C66   O28   A    
C1    O14   A    
C70   H22   S    
H55   O55   S    
Cr9   O46   S    
C19   C23   S    
C52   H44   S    
C14   C27   S    
Cr5   O10   S    
C24   C33   A    
Cr8   O18   S    
C107  H11   S    
C107  C111  S    
Cr7   O17   S    
C79   O59   S    
C39   C56   A    
C87   C105  S    
C92   H25   S    
C113  O31   A    
C56   C113  S    
C105  H9    S    
H52   O52   S    
C64   C76   A    
C91   C118  A    
H53   O53   S    
C60   C117  S    
Cr7   O13   S    
C122  O40   A    
C109  H18   S    
C7    C63   S    
Cr7   O39   S    
Cr8   O45   S    
Cr4   O8    S    
C38   C60   A    
C14   C21   S    
C117  O35   A    
Cr3   O3    S    
C76   O55   S    
C20   O52   S    
Cr11  O26   S    
Cr3   O29   S    
C16   C23   S    
C83   C100  A    
C116  O23   A    
C42   C46   A    
C9    C119  S    
C12   C22   S    
C31   C35   A    
C112  H21   S    
H60   O60   S    
C26   N1    T    
C33   C51   S    
C17   O49   S    
C59   O21   A    
C34   C52   S    
C32   C36   A    
C73   C82   S    
C108  H8    S    
C9    O37   A    
Cr8   O44   S    
H63   O63   S    
Cr12  O5    S    
C106  C110  S    
H49   O49   S    
H64   O64   S    
C105  C109  S    
C116  O33   A    
C67   O25   A    
Cr3   O33   S    
C85   C89   A    
C40   C57   A    
C68   O26   A    
C21   C65   S    
C80   O60   S    
C13   C37   S    
C65   O27   A    
C62   C74   A    
C112  H17   S    
Cr9   O19   S    
C12   C14   S    
C72   C73   A    
Cr1   O40   S    
Cr7   O34   S    
Cr8   O22   S    
Cr4   O13   S    
Cr10  O47   S    
C82   H12   S    
C101  H2    S    
C54   H47   S    
C98   C120  A    
C47   C52   S    
Cr12  O9    S    
C43   H31   S    
C9    O6    A    
C84   C124  S    
C93   C119  A    
C59   O17   A    
C93   C110  S    
C7    O67   A    
Cr9   O10   S    
C106  H10   S    
C21   C70   S    
C35   C57   A    
C27   N2    T    
H57   O57   S    
C91   C109  S    
Cr6   O16   S    
C109  H14   S    
Cr9   O24   S    
C11   O39   A    
C72   C80   S    
C68   O30   A    
C53   H46   S    
Cr4   O4    S    
C107  H7    S    
C19   O51   S    
C5    C61   S    
C8    O5    A    
H54   O54   S    
C15   C28   S    
C23   C67   S    
Cr6   O23   S    
H50   O50   S    
C59   C114  S    
Cr10  O66   S    
Cr2   O10   S    
C96   C100  A    
C86   C90   A    
Cr10  O25   S    
C77   O57   S    
C62   C71   A    
C32   C50   S    
C17   C81   S    
C61   C69   A    
Cr6   O11   S    
C6    O66   A    
C105  H5    S    
C24   C46   A    
C102  H3    S    
H62   O62   S    
C47   H38   S    
C10   C120  S    
C115  O12   A    
C122  O44   A    
C108  H13   S    
Cr3   O7    S    
C74   O53   S    
C104  H4    S    
C78   H23   S    
C40   C44   A    
C63   C72   A    
H61   O61   S    
Cr11  O21   S    
Cr12  O31   S    
C12   C26   S    
C123  O41   A    
C28   N3    T    
C41   C45   A    
C23   C92   S    
C2    C31   A    
C33   C38   A    
C50   H36   S    
C13   C45   A    
C39   H27   S    
C97   C101  A    
C45   H33   S    
Cr10  O11   S    
Cr10  O20   S    
C42   H30   S    
C113  O1    A    
Cr1   O9    S    
