data_mof_unit_66663.cif
_audit_creation_date              2012-10-26T19:56:45-0400
_audit_creation_method            fapswitch 2.2
_symmetry_space_group_name_H-M    P1
_symmetry_Int_Tables_number       1
_space_group_crystal_system       triclinic
_cell_length_a                    16.014862
_cell_length_b                    15.539111
_cell_length_c                    9.921724
_cell_angle_alpha                 90.000198
_cell_angle_beta                  59.517181
_cell_angle_gamma                 89.999201
_cell_volume                      2127.81362162

loop_
_atom_site_label
_atom_site_type_symbol
_atom_type_description
_atom_site_fract_x
_atom_site_fract_y
_atom_site_fract_z
_atom_type_partial_charge
C1    C     C_R   0.373945 0.119682 0.561721 0.532058
C2    C     C_2   0.489952 0.998648 0.084077 0.100252
C3    C     C_2   0.010048 0.498646 0.915924 0.100259
C4    C     C_2   0.990046 0.497171 0.083964 0.098717
C5    C     C_2   0.294907 0.818560 0.602953 0.067793
C6    C     C_2   0.683321 0.198506 0.411793 0.053512
C7    C     C_2   0.714236 0.827704 0.391128 0.083313
C8    C     C_2   0.302430 0.187838 0.600259 0.060429
C9    C     C_2   0.785807 0.327659 0.608854 0.083316
C10   C     C_2   0.197576 0.687828 0.399746 0.060514
C11   C     C_2   0.205074 0.318538 0.397056 0.067804
C12   C     C_R   0.630320 0.883923 0.436233 0.544329
C13   C     C_2   0.816698 0.698522 0.588200 0.053533
C14   C     C_2   0.289200 0.776786 0.488099 0.253866
C15   C     C_2   0.686152 0.239053 0.530647 0.254163
C16   C     C_2   0.723212 0.784363 0.501746 0.264446
C17   C     C_2   0.300211 0.231984 0.484324 0.255323
C18   C     C_2   0.776837 0.284326 0.498225 0.264446
C19   C     C_2   0.199783 0.731989 0.515682 0.255353
C20   C     C_2   0.210791 0.276780 0.511911 0.253842
C21   C     C_2   0.813900 0.739097 0.469336 0.254177
C22   C     C_3   0.522629 0.259811 0.711502 0.063773
C23   C     C_R   0.623185 0.121876 0.440418 0.529295
C24   C     C_3   0.518643 0.358391 0.713209 -0.297204
C25   C     C_3   0.423513 0.388838 0.729520 -0.454138
C26   C     C_3   0.430208 0.704938 0.332805 -0.001747
C27   C     C_3   0.534450 0.724452 0.207541 -0.231563
C28   C     C_3   0.603466 0.655443 0.202552 -0.452350
C29   C     C_3   0.456350 0.281972 0.324421 0.050564
C30   C     C_3   0.434336 0.378750 0.332669 -0.289772
C31   C     C_3   0.519229 0.432482 0.313655 -0.464143
C32   C     C_3   0.593293 0.700182 0.668669 0.003641
C33   C     C_3   0.494364 0.718606 0.687142 -0.236515
C34   C     C_R   0.372279 0.881541 0.562387 0.543703
C35   C     C_3   0.437891 0.635861 0.711086 -0.470441
C36   C     C_3   0.043618 0.781929 0.675620 0.050612
C37   C     C_3   0.065550 0.878716 0.667517 -0.289755
C38   C     C_3   0.980648 0.932410 0.686451 -0.464154
C39   C     C_3   0.906758 0.200188 0.331143 0.003782
C40   C     C_3   0.005562 0.218562 0.313194 -0.236610
C41   C     C_3   0.062058 0.135809 0.289069 -0.470441
C42   C     C_3   0.977443 0.759784 0.288519 0.063824
C43   C     C_3   0.981569 0.858357 0.286409 -0.297001
C44   C     C_3   0.076646 0.888776 0.270331 -0.454161
C45   C     C_R   0.876817 0.621880 0.559581 0.529291
C46   C     C_3   0.069841 0.204883 0.667304 -0.001809
C47   C     C_3   0.965580 0.224414 0.792450 -0.231545
C48   C     C_3   0.896658 0.155164 0.797879 -0.452387
C49   C     C_R   0.127712 0.381532 0.437616 0.543725
C50   C     C_R   0.126057 0.619678 0.438280 0.532065
C51   C     C_R   0.869689 0.383916 0.563762 0.544252
C52   C     C_2   0.509953 0.997163 0.916037 0.098727
Cu1   Cu    Cu3+1 0.522650 0.000000 0.349410 1.058804
Cu2   Cu    Cu3+1 0.477350 0.000000 0.650590 1.056372
Cu3   Cu    Cu3+1 0.022650 0.500000 0.349410 1.056348
Cu4   Cu    Cu3+1 0.977350 0.500000 0.650590 1.058846
H1    H     H_    0.415474 0.997757 0.178972 0.165191
H2    H     H_    0.424864 0.459324 0.716025 0.164666
H3    H     H_    0.362003 0.371566 0.845783 0.233740
H4    H     H_    0.406161 0.644798 0.301752 0.156668
H5    H     H_    0.428315 0.693956 0.445245 0.103899
H6    H     H_    0.539711 0.728904 0.091677 0.216402
H7    H     H_    0.556042 0.787300 0.233014 0.229588
H8    H     H_    0.590231 0.641122 0.321506 0.139565
H9    H     H_    0.679189 0.678037 0.131044 0.235449
H10   H     H_    0.594862 0.596199 0.148477 0.176268
H11   H     H_    0.522248 0.268325 0.210005 0.225871
H12   H     H_    0.584268 0.992693 0.821313 0.169675
H13   H     H_    0.474589 0.263989 0.414831 0.101183
H14   H     H_    0.419392 0.396746 0.238727 0.205343
H15   H     H_    0.369329 0.394628 0.446986 0.157750
H16   H     H_    0.546715 0.408033 0.388905 0.168624
H17   H     H_    0.494788 0.499819 0.348070 0.136393
H18   H     H_    0.579024 0.430973 0.190025 0.216383
H19   H     H_    0.582173 0.668429 0.776934 0.176971
H20   H     H_    0.633525 0.653246 0.571044 0.114210
H21   H     H_    0.452359 0.762059 0.788625 0.239522
H22   H     H_    0.504268 0.750859 0.580372 0.151715
H23   H     H_    0.915731 0.492716 0.178688 0.169660
H24   H     H_    0.477793 0.593751 0.607063 0.122395
H25   H     H_    0.366108 0.650906 0.725689 0.204514
H26   H     H_    0.426995 0.601824 0.817271 0.195168
H27   H     H_    0.977718 0.768225 0.790000 0.225862
H28   H     H_    0.025414 0.763965 0.585163 0.101118
H29   H     H_    0.080403 0.896700 0.761563 0.205370
H30   H     H_    0.130590 0.894644 0.553275 0.157726
H31   H     H_    0.953229 0.907961 0.611106 0.168590
H32   H     H_    0.005049 0.999760 0.652118 0.136438
H33   H     H_    0.920812 0.930865 0.810046 0.216501
H34   H     H_    0.084526 0.497748 0.821029 0.165201
H35   H     H_    0.918083 0.168596 0.222626 0.177011
H36   H     H_    0.866429 0.153128 0.428508 0.114283
H37   H     H_    0.047658 0.262151 0.211962 0.239534
H38   H     H_    0.995461 0.250638 0.420235 0.151451
H39   H     H_    0.022083 0.093566 0.392878 0.122489
H40   H     H_    0.133771 0.150819 0.274773 0.204319
H41   H     H_    0.073114 0.101931 0.182651 0.195215
H42   H     H_    0.034786 0.735520 0.173052 0.222610
H43   H     H_    0.996679 0.735345 0.374194 0.118479
H44   H     H_    0.976562 0.883742 0.186274 0.209561
H45   H     H_    0.465306 0.235699 0.827110 0.222642
H46   H     H_    0.920470 0.884779 0.396378 0.159362
H47   H     H_    0.088476 0.859237 0.360707 0.152137
H48   H     H_    0.075458 0.959299 0.283168 0.164888
H49   H     H_    0.138263 0.871176 0.154392 0.233773
H50   H     H_    0.093895 0.144805 0.698532 0.156764
H51   H     H_    0.071772 0.193777 0.554861 0.103848
H52   H     H_    0.960318 0.229210 0.908298 0.216607
H53   H     H_    0.943906 0.287112 0.766550 0.229276
H54   H     H_    0.909967 0.140467 0.678992 0.139623
H55   H     H_    0.820911 0.177754 0.869120 0.235445
H56   H     H_    0.503284 0.235271 0.626018 0.118699
H57   H     H_    0.905287 0.096132 0.852468 0.176323
H58   H     H_    0.523858 0.383908 0.813073 0.209431
H59   H     H_    0.579684 0.384665 0.603020 0.159303
H60   H     H_    0.411377 0.359039 0.639646 0.152333
I1    I     I_    0.703118 0.002219 0.955383 -0.269633
I2    I     I_    0.685508 0.324892 0.856170 -0.345418
I3    I     I_    0.755482 0.755040 0.813954 -0.369935
I4    I     I_    0.294515 0.292714 0.152590 -0.352032
I5    I     I_    0.297754 0.014995 0.043550 -0.277615
I6    I     I_    0.202253 0.514945 0.956441 -0.277601
I7    I     I_    0.796879 0.502246 0.044612 -0.269558
I8    I     I_    0.744498 0.255054 0.186073 -0.369888
I9    I     I_    0.205446 0.792772 0.847426 -0.352254
I10   I     I_    0.214040 0.215997 0.845443 -0.348110
I11   I     I_    0.814586 0.825030 0.143834 -0.345716
I12   I     I_    0.286023 0.715913 0.154548 -0.348334
N1    N     N_2   0.443290 0.000000 0.876860 -0.147558
N2    N     N_2   0.556710 0.000000 0.123140 -0.145841
N3    N     N_2   0.943290 0.500000 0.876860 -0.145815
N4    N     N_2   0.056710 0.500000 0.123140 -0.147567
O1    O     O_R   0.422430 0.089640 0.419570 -0.479355
O2    O     O_R   0.615830 0.910350 0.326090 -0.481852
O3    O     O_R   0.615830 0.089650 0.326090 -0.460049
O4    O     O_R   0.384170 0.910350 0.673910 -0.470025
O5    O     O_R   0.884170 0.589650 0.673910 -0.460070
O6    O     O_R   0.115830 0.410350 0.326090 -0.470040
O7    O     O_R   0.115830 0.589650 0.326090 -0.470446
O8    O     O_R   0.884170 0.410350 0.673910 -0.481850
O9    O     O_3   0.612749 0.227225 0.685216 -0.542360
O10   O     O_3   0.370873 0.774452 0.340313 -0.543955
O11   O     O_3   0.380228 0.230778 0.333616 -0.540562
O12   O     O_R   0.577570 0.910360 0.580430 -0.477187
O13   O     O_3   0.642607 0.778855 0.651087 -0.547710
O14   O     O_3   0.119771 0.730768 0.666396 -0.540568
O15   O     O_3   0.857423 0.278866 0.348855 -0.547718
O16   O     O_3   0.887309 0.727261 0.314769 -0.542368
O17   O     O_3   0.129125 0.274463 0.659703 -0.543952
O18   O     O_R   0.577570 0.089640 0.580430 -0.492422
O19   O     O_R   0.422430 0.910360 0.419570 -0.483838
O20   O     O_R   0.922430 0.589640 0.419570 -0.492442
O21   O     O_R   0.077570 0.410360 0.580430 -0.483774
O22   O     O_R   0.077570 0.589640 0.580430 -0.479384
O23   O     O_R   0.922430 0.410360 0.419570 -0.477152
O24   O     O_R   0.384170 0.089650 0.673910 -0.470411

loop_
_geom_bond_atom_site_label_1
_geom_bond_atom_site_label_2
_ccdc_geom_bond_type
C15   C18   S    
C48   H54   S    
Cu3   Cu4   S    
C14   O10   S    
C24   H58   S    
C16   C21   S    
C1    C8    S    
Cu2   O12   S    
C9    C51   S    
C6    I8    S    
C40   H37   S    
C42   O16   S    
C32   H19   S    
C30   H15   S    
C44   H48   S    
C2    H1    S    
Cu3   O20   S    
C4    N4    D    
Cu1   Cu2   S    
Cu3   O23   S    
C38   H33   S    
C51   O23   A    
C26   C27   S    
C37   C38   S    
C22   H45   S    
C3    H34   S    
C3    N3    D    
C52   N1    D    
C37   H29   S    
C36   C37   S    
C26   H5    S    
C50   O22   A    
C42   H42   S    
Cu2   O24   S    
C30   C31   S    
Cu4   O8    S    
C1    O1    A    
C33   H22   S    
C31   H17   S    
C41   H40   S    
C36   H27   S    
C29   O11   S    
C35   H24   S    
C17   C20   S    
Cu3   O7    S    
C20   O17   S    
I6    N4    S    
C30   H14   S    
C6    C15   D    
C15   O9    S    
C35   H26   S    
Cu1   O3    S    
C52   H12   S    
C51   O8    A    
C12   O2    A    
C49   O6    A    
C5    C34   S    
C9    I2    S    
C10   I12   S    
C11   I4    S    
C39   H35   S    
C13   I3    S    
C44   H47   S    
C29   H13   S    
C35   H25   S    
C7    C12   S    
C11   C20   D    
C19   O14   S    
C21   O16   S    
C37   H30   S    
Cu1   O1    S    
C24   C25   S    
C4    H23   S    
Cu4   O22   S    
C18   O15   S    
C25   H60   S    
I5    N1    S    
C39   C40   S    
C50   O7    A    
C31   H18   S    
C32   O13   S    
C47   H53   S    
C12   O12   A    
C38   H32   S    
C16   O13   S    
C1    O24   A    
C28   H10   S    
C43   C44   S    
C29   C30   S    
C11   C49   S    
C27   H6    S    
C47   C48   S    
C34   O4    A    
C10   C19   D    
Cu2   O4    S    
C46   H51   S    
C48   H55   S    
C45   O5    A    
C13   C21   D    
C43   H44   S    
I1    N2    S    
Cu3   O6    S    
C5    C14   D    
C2    C52   S    
C28   H8    S    
C8    I10   S    
C31   H16   S    
C23   O18   A    
C47   H52   S    
C22   H56   S    
C41   H41   S    
C42   C43   S    
C5    I9    S    
C3    C4    S    
C10   C50   S    
C39   H36   S    
C2    N2    D    
C44   H49   S    
C49   O21   A    
Cu2   N1    S    
C46   C47   S    
C7    C16   D    
Cu2   O18   S    
I7    N3    S    
C14   C19   S    
Cu1   O2    S    
C40   H38   S    
Cu4   O21   S    
C32   H20   S    
C34   O19   A    
C8    C17   D    
C23   O3    A    
C38   H31   S    
C17   O11   S    
C45   O20   A    
C32   C33   S    
C28   H9    S    
C43   H46   S    
C29   H11   S    
C42   H43   S    
C36   O14   S    
C13   C45   S    
Cu4   O5    S    
C33   H21   S    
C41   H39   S    
C36   H28   S    
C6    C23   S    
C46   H50   S    
C22   O9    S    
C33   C35   S    
C22   C24   S    
Cu4   N3    S    
C9    C18   D    
C46   O17   S    
C24   H59   S    
Cu3   N4    S    
C25   H2    S    
C39   O15   S    
C27   C28   S    
Cu1   O19   S    
C27   H7    S    
C40   C41   S    
Cu1   N2    S    
C25   H3    S    
C7    I11   S    
C26   O10   S    
C26   H4    S    
C48   H57   S    
