data_mof_unit_22702.cif
_audit_creation_date              2012-12-11T16:06:22-0500
_audit_creation_method            fapswitch 2.2
_symmetry_space_group_name_H-M    P1
_symmetry_Int_Tables_number       1
_space_group_crystal_system       triclinic
_cell_length_a                    7.201016
_cell_length_b                    14.472969
_cell_length_c                    15.819763
_cell_angle_alpha                 89.999872
_cell_angle_beta                  89.999593
_cell_angle_gamma                 89.937623
_cell_volume                      1648.73600947

loop_
_atom_site_label
_atom_site_type_symbol
_atom_type_description
_atom_site_fract_x
_atom_site_fract_y
_atom_site_fract_z
_atom_type_partial_charge
O1    O     O_R   0.388780 0.834790 0.412340 -0.531138
O2    O     O_R   0.111220 0.165210 0.912340 -0.531138
O3    O     O_R   0.888780 0.665210 0.587660 -0.516150
O4    O     O_R   0.611220 0.334790 0.087660 -0.516152
O5    O     O_R   0.059040 0.845930 0.587040 -0.533813
O6    O     O_R   0.440960 0.154070 0.087040 -0.533813
O7    O     O_R   0.559040 0.654070 0.412960 -0.543917
O8    O     O_R   0.940960 0.345930 0.912960 -0.543920
C1    C     C_R   0.228279 0.868359 0.615092 0.810183
C2    C     C_R   0.271720 0.131641 0.115091 0.810181
C3    C     C_R   0.727962 0.631521 0.385169 0.801574
C4    C     C_R   0.772039 0.368478 0.885168 0.801574
O9    O     O_R   0.059070 0.845930 0.412970 -0.548227
O10   O     O_R   0.440930 0.154070 0.912970 -0.548228
O11   O     O_R   0.559070 0.654070 0.587030 -0.519325
O12   O     O_R   0.940930 0.345930 0.087030 -0.519329
O13   O     O_R   0.888760 0.665210 0.412340 -0.522487
O14   O     O_R   0.611240 0.334790 0.912340 -0.522486
O15   O     O_R   0.388760 0.834790 0.587660 -0.536978
O16   O     O_R   0.111240 0.165210 0.087660 -0.536976
C5    C     C_R   0.227569 0.867119 0.384108 0.816095
C6    C     C_R   0.272432 0.132881 0.884108 0.816094
C7    C     C_R   0.728147 0.632186 0.615439 0.811034
C8    C     C_R   0.771853 0.367814 0.115439 0.811038
O17   O     O_3   0.222280 0.690700 0.500000 -0.365109
O18   O     O_3   0.277720 0.309300 0.000000 -0.365112
O19   O     O_3   0.722280 0.809300 0.500000 -0.393299
O20   O     O_3   0.777720 0.190700 0.000000 -0.393294
V1    V     V_3+5 0.947430 0.761000 0.500000 1.595708
V2    V     V_3+5 0.552570 0.239000 0.000000 1.595710
V3    V     V_3+5 0.447430 0.739000 0.500000 1.613068
V4    V     V_3+5 0.052570 0.261000 0.000000 1.613062
C9    C     C_3   0.945593 0.545172 0.715410 0.460714
C10   C     C_3   0.554407 0.454823 0.215416 0.460707
C11   C     C_3   0.384326 0.907912 0.244986 0.439757
C12   C     C_3   0.115690 0.092092 0.744983 0.439754
H1    H     H_    0.027808 0.517862 0.661306 0.153951
H2    H     H_    0.472184 0.482131 0.161314 0.153946
H3    H     H_    0.524844 0.905367 0.274185 0.119739
H4    H     H_    0.975169 0.094645 0.774179 0.119741
C13   C     C_3   0.956754 0.475316 0.789082 -0.455965
C14   C     C_3   0.543248 0.524677 0.289089 -0.455969
C15   C     C_3   0.389063 0.977208 0.170046 -0.452888
C16   C     C_3   0.110948 0.022795 0.670044 -0.452885
H5    H     H_    0.021383 0.509173 0.845008 0.239279
H6    H     H_    0.478628 0.490818 0.345016 0.239275
H7    H     H_    0.344854 0.941864 0.110897 0.257125
H8    H     H_    0.155167 0.058137 0.610895 0.257126
H9    H     H_    0.051164 0.417647 0.771455 0.182727
H10   H     H_    0.448828 0.582344 0.271465 0.182726
H11   H     H_    0.534305 0.999977 0.159132 0.144026
H12   H     H_    0.965704 0.000031 0.659130 0.144028
C17   C     C_3   0.657579 0.466653 0.658949 0.991409
C18   C     C_3   0.842409 0.533349 0.158946 0.991405
C19   C     C_3   0.294825 0.034324 0.347715 0.972893
C20   C     C_3   0.205155 0.965677 0.847715 0.972893
C21   C     C_3   0.630115 0.595958 0.765673 -0.394191
C22   C     C_3   0.869896 0.404043 0.265671 -0.394205
C23   C     C_3   0.047849 0.947564 0.266727 -0.360377
C24   C     C_3   0.452156 0.052427 0.766732 -0.360376
C25   C     C_3   0.739913 0.561550 0.687064 -0.258886
C26   C     C_3   0.760086 0.438449 0.187064 -0.258876
C27   C     C_3   0.238191 0.937646 0.312614 -0.248057
C28   C     C_3   0.261810 0.062354 0.812614 -0.248058
H13   H     H_    0.482228 0.607816 0.748250 0.233732
H14   H     H_    0.017783 0.392190 0.248243 0.233725
H15   H     H_    0.937586 0.966866 0.312820 0.230655
H16   H     H_    0.562407 0.033119 0.812829 0.230661
H17   H     H_    0.685725 0.663885 0.786698 0.221526
H18   H     H_    0.814294 0.336115 0.286698 0.221525
H19   H     H_    0.006129 0.879812 0.239406 0.208116
H20   H     H_    0.493895 0.120178 0.739414 0.208117
C29   C     C_3   0.760389 0.438973 0.813496 -0.201891
C30   C     C_3   0.739612 0.561026 0.313497 -0.201881
C31   C     C_3   0.258843 0.061116 0.186969 -0.217637
C32   C     C_3   0.241156 0.938883 0.686970 -0.217640
C33   C     C_3   0.666966 0.395364 0.733451 0.133187
C34   C     C_3   0.833022 0.604638 0.233448 0.133178
C35   C     C_3   0.310386 0.106334 0.273831 0.175194
C36   C     C_3   0.189598 0.893667 0.773831 0.175191
C37   C     C_3   0.643232 0.525427 0.840151 0.157544
C38   C     C_3   0.856781 0.474575 0.340149 0.157544
C39   C     C_3   0.057267 0.020851 0.195328 0.155987
C40   C     C_3   0.442737 0.979143 0.695332 0.155986
H21   H     H_    0.714397 0.559288 0.894659 0.182428
H22   H     H_    0.785626 0.440713 0.394659 0.182431
H23   H     H_    0.020594 0.986153 0.134358 0.149488
H24   H     H_    0.479419 0.013842 0.634363 0.149486
H25   H     H_    0.521842 0.376968 0.750742 0.203526
H26   H     H_    0.978146 0.623037 0.250735 0.203522
H27   H     H_    0.208474 0.162574 0.286163 0.202664
H28   H     H_    0.291505 0.837425 0.786166 0.202667
O21   O     O_3   0.463682 0.499016 0.865415 -0.621553
H29   H     H_    0.409594 0.552287 0.896414 0.337660
O22   O     O_3   0.036331 0.500990 0.365408 -0.621557
H30   H     H_    0.090437 0.447716 0.396396 0.337656
O23   O     O_3   0.929089 0.091775 0.213415 -0.628214
H31   H     H_    0.829180 0.088528 0.170305 0.298418
O24   O     O_3   0.570906 0.908214 0.713419 -0.628214
H32   H     H_    0.670811 0.911456 0.670306 0.298420
F1    F     F_    0.473430 0.477663 0.635072 -0.657402
F2    F     F_    0.026556 0.522343 0.135064 -0.657406
F3    F     F_    0.161656 0.064341 0.404889 -0.658176
F4    F     F_    0.338310 0.935657 0.904894 -0.658182
F5    F     F_    0.026741 0.627703 0.740531 -0.632398
F6    F     F_    0.473269 0.372289 0.240539 -0.632398
F7    F     F_    0.344578 0.820025 0.215118 -0.651407
F8    F     F_    0.155459 0.179977 0.715113 -0.651405
F9    F     F_    0.753942 0.434375 0.588914 -0.686211
F10   F     F_    0.746035 0.565625 0.088914 -0.686210
F11   F     F_    0.461614 0.027409 0.391288 -0.675067
F12   F     F_    0.038360 0.972599 0.891282 -0.675068
O25   O     O_3   0.752846 0.311887 0.709315 -0.607022
H33   H     H_    0.880072 0.325847 0.689285 0.362957
O26   O     O_3   0.747131 0.688111 0.209314 -0.607015
H34   H     H_    0.619902 0.674148 0.189290 0.362964
O27   O     O_3   0.485660 0.149250 0.271514 -0.580087
H35   H     H_    0.581301 0.100288 0.267801 0.335532
O28   O     O_3   0.014321 0.850755 0.771512 -0.580093
H36   H     H_    0.918685 0.899718 0.767795 0.335530

loop_
_geom_bond_atom_site_label_1
_geom_bond_atom_site_label_2
_ccdc_geom_bond_type
O17   V3    S    
C39   H23   S    
C22   C26   S    
O21   H29   S    
C12   F8    S    
O13   V1    S    
O3    C7    A    
O22   H30   S    
C10   C14   S    
C10   C26   S    
O15   V3    S    
C32   C40   S    
O23   H31   S    
C34   H26   S    
O1    C5    A    
C33   H25   S    
O9    V1    S    
C30   C38   S    
C22   C38   S    
C11   H3    S    
O4    C8    A    
O19   V1    S    
C24   H20   S    
O26   H34   S    
C19   F3    S    
O1    V3    S    
C19   C35   S    
C18   F10   S    
O2    V4    S    
C14   H6    S    
C29   C37   S    
C16   C32   S    
C23   H15   S    
C17   C25   S    
C22   H14   S    
C34   O26   S    
C17   F1    S    
C19   C27   S    
O2    C6    A    
C20   C28   S    
O14   V2    S    
C1    C32   S    
C11   C15   S    
C35   H27   S    
C16   H12   S    
O11   C7    A    
C36   O28   S    
O12   C8    A    
C4    C29   S    
O10   V2    S    
C33   O25   S    
C13   H9    S    
C1    O15   A    
O5    V1    S    
C15   C31   S    
C14   C30   S    
O7    V3    S    
C10   F6    S    
C32   C36   S    
C12   H4    S    
C9    F5    S    
C20   F4    S    
C2    O16   A    
O18   V4    S    
C22   H18   S    
C18   C26   S    
C38   H22   S    
C13   C29   S    
C9    H1    S    
O8    V4    S    
C36   H28   S    
O7    C3    A    
O5    C1    A    
C37   O21   S    
C2    C31   S    
O24   H32   S    
O8    C4    A    
C21   H13   S    
O9    C5    A    
O11   V3    S    
C14   H10   S    
O6    V2    S    
C30   C34   S    
C17   C33   S    
C21   C37   S    
C12   C16   S    
C31   C39   S    
O25   H33   S    
O16   V4    S    
C17   F9    S    
C3    O13   A    
C8    C26   S    
C38   O22   S    
C19   F11   S    
C10   H2    S    
C40   O24   S    
C18   F2    S    
C40   H24   S    
C23   C39   S    
C3    C30   S    
O6    C2    A    
O28   H36   S    
C21   C25   S    
O12   V4    S    
C23   C27   S    
C20   C36   S    
C24   C28   S    
C9    C13   S    
O10   C6    A    
O20   V2    S    
C13   H5    S    
O27   H35   S    
C24   C40   S    
O3    V1    S    
C31   C35   S    
C15   H11   S    
C35   O27   S    
C37   H21   S    
C5    C27   S    
C11   F7    S    
C6    C28   S    
C7    C25   S    
C24   H16   S    
C9    C25   S    
C39   O23   S    
C4    O14   A    
C29   C33   S    
C11   C27   S    
C21   H17   S    
C12   C28   S    
C15   H7    S    
C20   F12   S    
O4    V2    S    
C16   H8    S    
C23   H19   S    
C18   C34   S    
