data_mof_unit_61138.cif
_audit_creation_date              2012-12-10T18:05:49-0500
_audit_creation_method            fapswitch 2.2
_symmetry_space_group_name_H-M    P1
_symmetry_Int_Tables_number       1
_space_group_crystal_system       triclinic
_cell_length_a                    21.60879
_cell_length_b                    21.608607
_cell_length_c                    30.30955
_cell_angle_alpha                 89.998418
_cell_angle_beta                  89.999485
_cell_angle_gamma                 90.000747
_cell_volume                      14152.6155111

loop_
_atom_site_label
_atom_site_type_symbol
_atom_type_description
_atom_site_fract_x
_atom_site_fract_y
_atom_site_fract_z
_atom_type_partial_charge
Br1   Br    Br    0.176454 0.569693 0.582835 -0.529054
Br2   Br    Br    0.058173 0.324267 0.913007 -0.454986
Br3   Br    Br    0.324242 0.941476 0.913123 -0.454427
Br4   Br    Br    0.941889 0.675739 0.912989 -0.454939
Br5   Br    Br    0.675759 0.941508 0.086890 -0.454174
Br6   Br    Br    0.058165 0.675740 0.086997 -0.454663
Br7   Br    Br    0.324238 0.058545 0.086870 -0.454241
Br8   Br    Br    0.941779 0.324250 0.086978 -0.454697
Br9   Br    Br    0.570033 0.823518 0.582698 -0.529115
Br10  Br    Br    0.823545 0.430313 0.582840 -0.529069
Br11  Br    Br    0.429949 0.176476 0.582693 -0.529092
Br12  Br    Br    0.176460 0.430284 0.417170 -0.529505
Br13  Br    Br    0.570072 0.176489 0.417315 -0.529191
Br14  Br    Br    0.823543 0.569708 0.417164 -0.529530
Br15  Br    Br    0.429936 0.823518 0.417311 -0.529204
Br16  Br    Br    0.675758 0.058474 0.913105 -0.454382
C1    C     C_R   0.120067 0.500000 0.500000 0.907487
C2    C     C_R   0.379638 0.500000 0.500000 0.905178
C3    C     C_R   0.034215 0.545146 0.843709 0.352169
C4    C     C_R   0.545370 0.033924 0.156279 0.352000
C5    C     C_R   0.965900 0.545230 0.156290 0.352137
C6    C     C_R   0.454640 0.966068 0.156289 0.352017
C7    C     C_R   0.034101 0.454760 0.156288 0.352113
C8    C     C_R   0.000000 0.500001 0.365445 -0.419048
C9    C     C_R   0.500002 0.000006 0.365445 -0.419252
C10   C     C_R   0.999995 0.499997 0.634562 -0.419529
C11   C     C_R   0.499996 0.000005 0.634557 -0.419335
C12   C     C_R   0.499996 0.999998 0.866301 -0.412729
C13   C     C_R   0.500001 0.620359 0.500000 0.905180
C14   C     C_R   0.000000 0.499997 0.866299 -0.412762
C15   C     C_R   0.500001 0.999996 0.133699 -0.412808
C16   C     C_R   1.000000 0.499996 0.133702 -0.412827
C17   C     C_R   0.000014 0.499995 0.273349 -0.214321
C18   C     C_R   0.500007 0.000021 0.273350 -0.214289
C19   C     C_R   0.999991 0.499995 0.726655 -0.214266
C20   C     C_R   0.499984 0.000021 0.726652 -0.214209
C21   C     C_R   0.499987 0.000013 0.774705 -0.207163
C22   C     C_R   0.999993 0.499996 0.774704 -0.207213
C23   C     C_R   0.500003 0.000016 0.225296 -0.207232
C24   C     C_R   0.620362 0.499999 0.500000 0.905174
C25   C     C_R   0.000011 0.499996 0.225298 -0.207348
C26   C     C_3   0.104068 0.592381 0.254737 -0.204321
C27   C     C_3   0.592032 0.895620 0.254801 -0.204946
C28   C     C_3   0.895952 0.407606 0.254749 -0.204205
C29   C     C_3   0.408001 0.104428 0.254797 -0.205023
C30   C     C_3   0.103815 0.407327 0.745210 -0.205219
C31   C     C_3   0.592149 0.104301 0.745197 -0.205095
C32   C     C_3   0.896167 0.592659 0.745209 -0.205203
C33   C     C_3   0.407806 0.895747 0.745204 -0.204981
C34   C     C_3   0.571641 0.880007 0.756923 -0.240386
C35   C     C_R   0.999999 0.879574 0.000000 0.901929
C36   C     C_3   0.879650 0.428929 0.756926 -0.240441
C37   C     C_3   0.428317 0.120026 0.756957 -0.240515
C38   C     C_3   0.120338 0.571057 0.756915 -0.240404
C39   C     C_3   0.571864 0.119907 0.243046 -0.240422
C40   C     C_3   0.879873 0.571407 0.243090 -0.240183
C41   C     C_3   0.428169 0.880122 0.243083 -0.240257
C42   C     C_3   0.120146 0.428574 0.243080 -0.240217
C43   C     C_3   0.108976 0.594001 0.376014 -0.157673
C44   C     C_3   0.593827 0.890872 0.376031 -0.158184
C45   C     C_3   0.891003 0.406041 0.376017 -0.157693
C46   C     C_R   0.879576 0.000000 0.000000 0.901933
C47   C     C_3   0.406181 0.109147 0.376031 -0.158151
C48   C     C_3   0.108578 0.405462 0.624044 -0.158586
C49   C     C_3   0.593979 0.109025 0.623981 -0.158351
C50   C     C_3   0.891408 0.594525 0.624039 -0.158539
C51   C     C_3   0.406030 0.890977 0.623991 -0.158334
C52   C     C_3   0.582967 0.874262 0.870277 -0.173377
C53   C     C_3   0.873879 0.417574 0.870259 -0.172973
C54   C     C_3   0.416954 0.125732 0.870253 -0.173090
C55   C     C_3   0.126129 0.582396 0.870250 -0.172980
C56   C     C_3   0.583266 0.125554 0.129697 -0.173303
C57   C     C_R   0.000000 0.120425 0.999999 0.901917
C58   C     C_3   0.874075 0.582667 0.129732 -0.173166
C59   C     C_3   0.416860 0.874394 0.129713 -0.173481
C60   C     C_3   0.125915 0.417301 0.129724 -0.173147
C61   C     C_R   0.120424 1.000000 1.000000 0.901922
C62   C     C_R   0.313372 0.499999 0.500000 -0.129250
C63   C     C_R   0.500000 0.686621 0.499999 -0.129150
C64   C     C_R   0.686628 0.499999 0.499999 -0.129251
C65   C     C_R   0.499999 0.879931 0.499999 0.907163
C66   C     C_R   0.500002 0.313379 0.500002 -0.129144
C67   C     C_R   0.813194 0.000000 0.000000 -0.140083
C68   C     C_R   0.999998 0.186810 0.999998 -0.140114
C69   C     C_R   0.186805 1.000000 0.999999 -0.140064
C70   C     C_R   1.000000 0.813189 0.000000 -0.140133
C71   C     C_R   0.281711 0.528837 0.534476 -0.193602
C72   C     C_R   0.528974 0.718278 0.534417 -0.193641
C73   C     C_R   0.718289 0.471164 0.534478 -0.193596
C74   C     C_R   0.471023 0.281719 0.534418 -0.193653
C75   C     C_R   0.281712 0.471159 0.465524 -0.193482
C76   C     C_R   0.879933 0.500000 0.500000 0.907466
C77   C     C_R   0.528984 0.281724 0.465586 -0.193619
C78   C     C_R   0.718289 0.528836 0.465521 -0.193477
C79   C     C_R   0.471023 0.718279 0.465582 -0.193619
C80   C     C_R   0.781440 0.024403 0.963809 -0.188449
C81   C     C_R   0.024286 0.218570 0.963768 -0.188352
C82   C     C_R   0.218560 0.975569 0.963819 -0.188466
C83   C     C_R   0.975737 0.781432 0.963762 -0.188341
C84   C     C_R   0.781439 0.975597 0.036191 -0.188510
C85   C     C_R   0.024270 0.781431 0.036237 -0.188384
C86   C     C_R   0.218559 0.024433 0.036179 -0.188484
C87   C     C_R   0.500001 0.120069 0.500000 0.907161
C88   C     C_R   0.975703 0.218565 0.036226 -0.188393
C89   C     C_R   0.000001 0.500000 0.413657 0.994544
C90   C     C_R   0.500000 0.000001 0.413657 0.994647
C91   C     C_R   0.999999 0.499999 0.586345 0.995283
C92   C     C_R   0.499999 0.000001 0.586344 0.994788
C93   C     C_R   0.500004 1.000000 0.913955 1.115208
C94   C     C_R   0.000000 0.500000 0.913955 1.115215
C95   C     C_R   0.499996 0.999999 0.086045 1.115209
C96   C     C_R   1.000000 0.499999 0.086045 1.115219
C97   C     C_R   0.186019 0.499999 0.499999 -0.147260
C98   C     C_R   0.620003 0.000000 0.000001 0.989213
C99   C     C_R   0.499997 0.813975 0.500000 -0.147513
C100  C     C_R   0.813981 0.500000 0.499999 -0.147247
C101  C     C_R   0.500003 0.186025 0.500001 -0.147526
C102  C     C_R   0.685849 0.000000 0.000000 -0.163985
C103  C     C_R   0.999996 0.314155 0.999999 -0.163647
C104  C     C_R   0.314150 0.000000 0.999999 -0.163974
C105  C     C_R   0.000004 0.685844 1.000000 -0.163638
C106  C     C_R   0.217822 0.529552 0.534482 0.217172
C107  C     C_R   0.529692 0.782167 0.534422 0.217117
C108  C     C_R   0.782177 0.470450 0.534484 0.217164
C109  C     C_R   0.999999 0.379998 0.000000 0.989247
C110  C     C_R   0.470303 0.217831 0.534422 0.217118
C111  C     C_R   0.217824 0.470442 0.465519 0.216858
C112  C     C_R   0.529705 0.217835 0.465582 0.217038
C113  C     C_R   0.782177 0.529554 0.465515 0.216843
C114  C     C_R   0.470300 0.782168 0.465579 0.217039
C115  C     C_R   0.717547 0.024958 0.963748 0.240834
C116  C     C_R   0.024835 0.282463 0.963705 0.240704
C117  C     C_R   0.282452 0.975017 0.963757 0.240886
C118  C     C_R   0.975190 0.717539 0.963699 0.240671
C119  C     C_R   0.717547 0.975039 0.036251 0.240884
C120  C     C_R   0.379996 1.000000 0.000000 0.989212
C121  C     C_R   0.024824 0.717539 0.036298 0.240716
C122  C     C_R   0.282451 0.024987 0.036240 0.240883
C123  C     C_R   0.975150 0.282457 0.036288 0.240729
C124  C     C_R   0.025365 0.550831 0.296285 0.440784
C125  C     C_R   0.550765 0.974516 0.296288 0.440906
C126  C     C_R   0.974656 0.449163 0.296287 0.440789
C127  C     C_R   0.449248 0.025522 0.296289 0.440910
C128  C     C_R   0.025174 0.449076 0.703720 0.440903
C129  C     C_R   0.550779 0.025455 0.703715 0.440893
C130  C     C_R   0.974808 0.550913 0.703719 0.440903
C131  C     C_R   0.000001 0.620001 0.000001 0.989243
C132  C     C_R   0.449193 0.974583 0.703715 0.440896
C133  C     C_R   0.545245 0.965430 0.797659 0.440422
C134  C     C_R   0.965205 0.454900 0.797665 0.440381
C135  C     C_R   0.454730 0.034584 0.797669 0.440344
C136  C     C_R   0.034785 0.545091 0.797659 0.440393
C137  C     C_R   0.545319 0.034510 0.202330 0.440406
C138  C     C_R   0.965342 0.545185 0.202341 0.440301
C139  C     C_R   0.454688 0.965506 0.202341 0.440446
C140  C     C_R   0.034673 0.454806 0.202338 0.440302
C141  C     C_R   0.025238 0.550857 0.342267 0.364241
C142  C     C_R   0.500000 0.379641 0.500000 0.905178
C143  C     C_R   0.550804 0.974666 0.342270 0.364066
C144  C     C_R   0.974762 0.449146 0.342267 0.364229
C145  C     C_R   0.449203 0.025356 0.342270 0.364086
C146  C     C_R   0.025020 0.449037 0.657741 0.364215
C147  C     C_R   0.550826 0.025290 0.657732 0.364104
C148  C     C_R   0.974966 0.550954 0.657739 0.364220
C149  C     C_R   0.449159 0.974729 0.657733 0.364097
C150  C     C_R   0.545297 0.965991 0.843711 0.352025
C151  C     C_R   0.965785 0.454845 0.843715 0.352156
C152  C     C_R   0.454685 0.034004 0.843720 0.352080
H1    H     H_    0.306600 0.551386 0.561033 0.188352
H2    H     H_    0.043341 0.193820 0.935798 0.196159
H3    H     H_    0.150512 0.605288 0.842519 0.174894
H4    H     H_    0.533370 0.138722 0.128214 0.121983
H5    H     H_    0.605105 0.142226 0.098780 0.181829
H6    H     H_    0.606313 0.149798 0.157425 0.175031
H7    H     H_    0.861158 0.532705 0.128253 0.122012
H8    H     H_    0.857279 0.604420 0.098817 0.181771
H9    H     H_    0.849728 0.605588 0.157466 0.174867
H10   H     H_    0.466773 0.861301 0.128200 0.122094
H11   H     H_    0.395011 0.857690 0.098808 0.181860
H12   H     H_    0.393882 0.850115 0.157455 0.174927
H13   H     H_    0.193804 0.956403 0.935890 0.196117
H14   H     H_    0.138847 0.467259 0.128246 0.121998
H15   H     H_    0.142704 0.395547 0.098808 0.181766
H16   H     H_    0.150258 0.394370 0.157457 0.174887
H17   H     H_    0.956701 0.806183 0.935785 0.196176
H18   H     H_    0.806193 0.956455 0.064129 0.196133
H19   H     H_    0.043309 0.806182 0.064211 0.196179
H20   H     H_    0.193803 0.043601 0.064107 0.196116
H21   H     H_    0.956644 0.193811 0.064194 0.196164
H22   H     H_    0.098002 0.576002 0.220328 0.154309
H23   H     H_    0.133592 0.559250 0.273398 0.088271
H24   H     H_    0.129620 0.636836 0.253148 0.202148
H25   H     H_    0.551627 0.693384 0.560927 0.188290
H26   H     H_    0.575580 0.901669 0.220408 0.154277
H27   H     H_    0.558870 0.866215 0.273533 0.088433
H28   H     H_    0.636416 0.869950 0.253180 0.202188
H29   H     H_    0.902006 0.424005 0.220344 0.154244
H30   H     H_    0.866422 0.440723 0.273417 0.088246
H31   H     H_    0.870412 0.363145 0.253155 0.202164
H32   H     H_    0.424447 0.098372 0.220403 0.154293
H33   H     H_    0.441173 0.133825 0.273525 0.088459
H34   H     H_    0.363624 0.130110 0.253177 0.202186
H35   H     H_    0.097870 0.423851 0.779594 0.154391
H36   H     H_    0.693399 0.448618 0.561037 0.188353
H37   H     H_    0.133434 0.440281 0.726460 0.088440
H38   H     H_    0.129197 0.362780 0.746857 0.202247
H39   H     H_    0.575670 0.098280 0.779586 0.154305
H40   H     H_    0.559045 0.133755 0.726453 0.088468
H41   H     H_    0.636572 0.129904 0.746830 0.202234
H42   H     H_    0.902115 0.576137 0.779594 0.154387
H43   H     H_    0.866549 0.559703 0.726463 0.088441
H44   H     H_    0.870782 0.637205 0.746854 0.202250
H45   H     H_    0.424266 0.901772 0.779597 0.154307
H46   H     H_    0.440921 0.866291 0.726473 0.088421
H47   H     H_    0.448366 0.306612 0.560926 0.188286
H48   H     H_    0.363382 0.870145 0.746828 0.202228
H49   H     H_    0.553247 0.888438 0.723305 0.164933
H50   H     H_    0.536394 0.855877 0.777550 0.091731
H51   H     H_    0.611491 0.848046 0.753377 0.201565
H52   H     H_    0.888180 0.447283 0.723309 0.165005
H53   H     H_    0.855695 0.464299 0.777549 0.091728
H54   H     H_    0.847488 0.389242 0.753376 0.201557
H55   H     H_    0.446739 0.111616 0.723344 0.164957
H56   H     H_    0.463539 0.144164 0.777600 0.091794
H57   H     H_    0.388457 0.151972 0.753402 0.201552
H58   H     H_    0.306602 0.448609 0.438969 0.188359
H59   H     H_    0.111807 0.552704 0.723298 0.164994
H60   H     H_    0.144291 0.535685 0.777538 0.091718
H61   H     H_    0.152502 0.610742 0.753364 0.201559
H62   H     H_    0.553443 0.111518 0.276662 0.164959
H63   H     H_    0.536667 0.144095 0.222410 0.091750
H64   H     H_    0.611771 0.151797 0.246594 0.201585
H65   H     H_    0.888356 0.553051 0.276712 0.164947
H66   H     H_    0.855819 0.536089 0.222480 0.091657
H67   H     H_    0.847820 0.611184 0.246629 0.201566
H68   H     H_    0.446567 0.888532 0.276703 0.164929
H69   H     H_    0.551642 0.306619 0.439079 0.188292
H70   H     H_    0.463391 0.855946 0.222464 0.091693
H71   H     H_    0.388277 0.848213 0.246627 0.201580
H72   H     H_    0.111670 0.446933 0.276702 0.164967
H73   H     H_    0.144202 0.463888 0.222465 0.091674
H74   H     H_    0.152194 0.388794 0.246618 0.201564
H75   H     H_    0.115073 0.552955 0.397648 0.150037
H76   H     H_    0.124810 0.635010 0.394904 0.193967
H77   H     H_    0.139054 0.589892 0.346507 0.140711
H78   H     H_    0.552447 0.884715 0.397334 0.149509
H79   H     H_    0.634559 0.875155 0.395270 0.194073
H80   H     H_    0.693400 0.551384 0.438963 0.188360
H81   H     H_    0.590273 0.860753 0.346513 0.141467
H82   H     H_    0.884933 0.447067 0.397674 0.150108
H83   H     H_    0.875134 0.365017 0.394875 0.193971
H84   H     H_    0.860933 0.410212 0.346511 0.140624
H85   H     H_    0.447550 0.115297 0.397346 0.149515
H86   H     H_    0.365440 0.124870 0.395258 0.194069
H87   H     H_    0.409757 0.139265 0.346512 0.141465
H88   H     H_    0.115199 0.447170 0.603129 0.149131
H89   H     H_    0.123867 0.364923 0.604426 0.194122
H90   H     H_    0.138708 0.408138 0.653601 0.142084
H91   H     H_    0.448368 0.693386 0.439073 0.188293
H92   H     H_    0.552473 0.115305 0.602818 0.149323
H93   H     H_    0.634626 0.124615 0.604597 0.194113
H94   H     H_    0.590722 0.139158 0.653509 0.141724
H95   H     H_    0.884803 0.552844 0.603097 0.149168
H96   H     H_    0.876104 0.635086 0.604449 0.194115
H97   H     H_    0.861278 0.591797 0.653595 0.142033
H98   H     H_    0.447505 0.884716 0.602794 0.149385
H99   H     H_    0.365359 0.875353 0.604649 0.194110
H100  H     H_    0.409360 0.860857 0.653522 0.141625
H101  H     H_    0.533039 0.861221 0.871768 0.122064
H102  H     H_    0.806195 0.043543 0.935870 0.196137
H103  H     H_    0.604772 0.857527 0.901190 0.181814
H104  H     H_    0.605943 0.849965 0.842542 0.174921
H105  H     H_    0.861046 0.467558 0.871720 0.121988
H106  H     H_    0.857032 0.395869 0.901177 0.181694
H107  H     H_    0.849505 0.394675 0.842528 0.174919
H108  H     H_    0.466872 0.138850 0.871587 0.121722
H109  H     H_    0.395311 0.142452 0.901226 0.181725
H110  H     H_    0.393777 0.149978 0.842580 0.175133
H111  H     H_    0.138948 0.532408 0.871713 0.121997
H112  H     H_    0.142979 0.604095 0.901168 0.181703
O1    O     O_R   0.091600 0.448290 0.500030 -0.600512
O2    O     O_R   0.948290 0.408400 0.000030 -0.610141
O3    O     O_R   0.408400 0.051710 0.000030 -0.610165
O4    O     O_R   0.051710 0.591600 0.000030 -0.610150
O5    O     O_R   0.591600 0.051710 0.999970 -0.610257
O6    O     O_R   0.948290 0.591600 0.999970 -0.610263
O7    O     O_R   0.408400 0.948290 0.999970 -0.610228
O8    O     O_R   0.051710 0.408400 0.999970 -0.610254
O9    O     O_R   0.999980 0.448290 0.434550 -0.568837
O10   O     O_R   0.448290 0.000020 0.434550 -0.568749
O11   O     O_R   0.000020 0.551710 0.434550 -0.568836
O12   O     O_R   0.448290 0.908400 0.500030 -0.600388
O13   O     O_R   0.551710 0.999980 0.434550 -0.568756
O14   O     O_R   0.999980 0.551710 0.565450 -0.568721
O15   O     O_R   0.448290 0.999980 0.565450 -0.568732
O16   O     O_R   0.000020 0.448290 0.565450 -0.568719
O17   O     O_R   0.551710 0.000020 0.565450 -0.568723
O18   O     O_R   0.499980 0.948290 0.934550 -0.620699
O19   O     O_R   0.948290 0.500020 0.934550 -0.620585
O20   O     O_R   0.500020 0.051710 0.934550 -0.620607
O21   O     O_R   0.051710 0.499980 0.934550 -0.620576
O22   O     O_R   0.499980 0.051710 0.065450 -0.620742
O23   O     O_R   0.908400 0.551710 0.500030 -0.600513
O24   O     O_R   0.948290 0.499980 0.065450 -0.620662
O25   O     O_R   0.500020 0.948290 0.065450 -0.620750
O26   O     O_R   0.051710 0.500020 0.065450 -0.620675
O27   O     O_R   0.499980 0.408290 0.536960 -0.623565
O28   O     O_R   0.408290 0.500020 0.536960 -0.623596
O29   O     O_R   0.500020 0.591710 0.536960 -0.623565
O30   O     O_R   0.591710 0.499980 0.536960 -0.623597
O31   O     O_R   0.499980 0.591710 0.463040 -0.623569
O32   O     O_R   0.408290 0.499980 0.463040 -0.623606
O33   O     O_R   0.500020 0.408290 0.463040 -0.623568
O34   O     O_R   0.551710 0.091600 0.500030 -0.600393
O35   O     O_R   0.591710 0.500020 0.463040 -0.623608
O36   O     O_R   0.999980 0.908290 0.036960 -0.618827
O37   O     O_R   0.908290 0.000020 0.036960 -0.618793
O38   O     O_R   0.000020 0.091710 0.036960 -0.618824
O39   O     O_R   0.091710 0.999980 0.036960 -0.618774
O40   O     O_R   0.999980 0.091710 0.963040 -0.618820
O41   O     O_R   0.908290 0.999980 0.963040 -0.618784
O42   O     O_R   0.000020 0.908290 0.963040 -0.618827
O43   O     O_R   0.091710 0.000020 0.963040 -0.618781
O44   O     O_3   0.045917 0.603452 0.274529 -0.499640
O45   O     O_R   0.091600 0.551710 0.499970 -0.600521
O46   O     O_3   0.603305 0.953775 0.274528 -0.499624
O47   O     O_3   0.954108 0.396540 0.274534 -0.499631
O48   O     O_3   0.396712 0.046277 0.274529 -0.499648
O49   O     O_3   0.045592 0.396410 0.725482 -0.499666
O50   O     O_3   0.603345 0.046128 0.725475 -0.499659
O51   O     O_3   0.954388 0.603579 0.725479 -0.499666
O52   O     O_3   0.396621 0.953919 0.725474 -0.499653
O53   O     O_3   0.593186 0.935726 0.775842 -0.504744
O54   O     O_3   0.935255 0.407106 0.775853 -0.504783
O55   O     O_3   0.406783 0.064292 0.775860 -0.504784
O56   O     O_R   0.448290 0.091600 0.499970 -0.600387
O57   O     O_3   0.064734 0.592883 0.775842 -0.504773
O58   O     O_3   0.593312 0.064144 0.224138 -0.504747
O59   O     O_3   0.935536 0.593067 0.224154 -0.504753
O60   O     O_3   0.406704 0.935868 0.224157 -0.504737
O61   O     O_3   0.064477 0.406920 0.224150 -0.504760
O62   O     O_3   0.046461 0.602966 0.364169 -0.524291
O63   O     O_3   0.602877 0.953376 0.364182 -0.524270
O64   O     O_3   0.953516 0.397046 0.364171 -0.524293
O65   O     O_3   0.397131 0.046644 0.364184 -0.524274
O66   O     O_3   0.045989 0.396837 0.635826 -0.524071
O67   O     O_R   0.908400 0.448290 0.499970 -0.600514
O68   O     O_3   0.602929 0.046503 0.635817 -0.524222
O69   O     O_3   0.953994 0.603154 0.635824 -0.524076
O70   O     O_3   0.397064 0.953499 0.635818 -0.524222
O71   O     O_3   0.593217 0.938635 0.866993 -0.533192
O72   O     O_3   0.938210 0.407054 0.867003 -0.533140
O73   O     O_3   0.406769 0.061344 0.867016 -0.533294
O74   O     O_3   0.061801 0.592934 0.866991 -0.533113
O75   O     O_3   0.593350 0.061159 0.132986 -0.533213
O76   O     O_3   0.938422 0.593078 0.133005 -0.533093
O77   O     O_3   0.406684 0.938776 0.133006 -0.533197
O78   O     O_R   0.551710 0.908400 0.499970 -0.600394
O79   O     O_3   0.061566 0.406908 0.133000 -0.533119
O80   O     O_R   0.591600 0.948290 0.000030 -0.610170
Zn1   Zn    Zn3+2 0.000000 0.430950 0.500000 1.095713
Zn2   Zn    Zn3+2 0.500000 0.500000 0.450630 0.975621
Zn3   Zn    Zn3+2 0.000000 0.000000 0.049370 1.019383
Zn4   Zn    Zn3+2 0.000000 0.000000 0.950630 1.019381
Zn5   Zn    Zn3+2 0.430950 0.000000 0.500000 1.095967
Zn6   Zn    Zn3+2 0.000000 0.569050 0.500000 1.095700
Zn7   Zn    Zn3+2 0.569050 0.000000 0.500000 1.095948
Zn8   Zn    Zn3+2 0.500000 0.930950 0.000000 1.006988
Zn9   Zn    Zn3+2 0.930950 0.500000 0.000000 1.006894
Zn10  Zn    Zn3+2 0.500000 0.069050 0.000000 1.007020
Zn11  Zn    Zn3+2 0.069050 0.500000 0.000000 1.006893
Zn12  Zn    Zn3+2 0.500000 0.500000 0.549370 0.975632

loop_
_geom_bond_atom_site_label_1
_geom_bond_atom_site_label_2
_ccdc_geom_bond_type
C30   H37   S    
O5    Zn10  S    
C36   H54   S    
C49   H94   S    
C46   C67   S    
C47   O65   S    
C29   H32   S    
C87   O34   A    
C75   C111  A    
C27   H26   S    
C56   H4    S    
C52   H104  S    
C24   O30   A    
C42   H72   S    
O43   Zn4   S    
C33   H45   S    
C87   O56   A    
C104  C117  A    
C140  O61   S    
Br1   C106  S    
C102  C115  A    
C37   H57   S    
C131  O6    A    
C20   C132  A    
C97   C106  A    
C32   H44   S    
C45   H82   S    
C9    C143  A    
C105  C131  S    
C40   H67   S    
C138  O59   S    
C59   H11   S    
C101  C110  A    
C38   H61   S    
C84   C119  A    
C12   C150  A    
C25   C140  A    
C132  C149  A    
C124  O44   S    
C87   C101  S    
C139  O60   S    
O28   Zn12  S    
C18   C127  A    
C99   C107  A    
O22   Zn10  S    
O34   Zn7   S    
Br11  C110  S    
O9    Zn1   S    
C6    C15   A    
C85   C121  A    
C91   O16   A    
C148  O69   S    
C30   O49   S    
C56   O75   S    
C150  O71   S    
C58   H8    S    
O4    Zn11  S    
C26   H22   S    
C48   O66   S    
C2    C62   S    
C53   O72   S    
C74   C110  A    
C56   H5    S    
C70   C83   A    
C76   C100  S    
C6    O77   S    
C11   C149  A    
C30   H35   S    
C37   O55   S    
C23   C137  A    
C67   C84   A    
C50   O69   S    
C104  C122  A    
O39   Zn3   S    
C50   H95   S    
C83   H17   S    
C134  O54   S    
C28   O47   S    
C39   H64   S    
C71   C106  A    
C35   O36   A    
C37   H55   S    
O23   Zn6   S    
C53   H105  S    
Br10  C108  S    
C54   H110  S    
C2    O32   A    
C82   H13   S    
O2    Zn9   S    
C17   C25   S    
C29   O48   S    
C26   O44   S    
C131  O4    A    
Br15  C114  S    
C11   C92   S    
C45   H84   S    
Br9   C107  S    
C44   O63   S    
C151  O72   S    
C101  C112  A    
C89   O9    A    
C38   H59   S    
C12   C152  A    
C3    C14   A    
C127  C145  A    
C95   O25   A    
O16   Zn1   S    
C62   C71   A    
C18   C125  A    
C28   H30   S    
C45   O64   S    
C91   O14   A    
C1    C97   S    
C92   O17   A    
C20   C21   S    
C14   C151  A    
O26   Zn11  S    
C27   O46   S    
C66   C142  S    
C71   H1    S    
C42   O61   S    
C34   H51   S    
C27   H27   S    
C105  C121  A    
C42   H74   S    
Br16  C115  S    
C11   C147  A    
C125  C143  A    
C9    C145  A    
O30   Zn12  S    
C79   C114  A    
O7    Zn8   S    
C130  O51   S    
O41   Zn4   S    
O29   Zn12  S    
C19   C128  A    
C135  O55   S    
C43   O62   S    
C61   C69   S    
C127  O48   S    
C39   H62   S    
C40   H66   S    
C65   O12   A    
C92   O15   A    
C103  C116  A    
C6    C139  A    
C53   H107  S    
C54   H108  S    
C4    C137  A    
C18   C23   S    
C144  O64   S    
C142  O33   A    
C19   C22   S    
C8    C141  A    
C129  C147  A    
C35   O42   A    
C130  C148  A    
C55   H111  S    
C81   H2    S    
C83   C118  A    
C23   C139  A    
C43   H76   S    
C49   O68   S    
C89   O11   A    
O21   Zn11  S    
C147  O68   S    
C61   O43   A    
O32   Zn2   S    
C41   H71   S    
C50   H97   S    
C80   C115  A    
C46   O37   A    
C31   H41   S    
C75   H58   S    
C44   H81   S    
C68   C88   A    
C55   H3    S    
C90   O13   A    
C48   H89   S    
Br4   C118  S    
C126  O47   S    
Br5   C119  S    
C72   H25   S    
C49   H93   S    
C51   O70   S    
C136  O57   S    
C73   C108  A    
C145  O65   S    
C34   H49   S    
C60   O79   S    
C77   C112  A    
C52   H101  S    
C24   O35   A    
O19   Zn9   S    
C51   H100  S    
C32   O51   S    
C67   C80   A    
C10   C148  A    
C65   O78   A    
C55   O74   S    
O13   Zn7   S    
C52   O71   S    
O3    Zn10  S    
C20   C129  A    
O15   Zn5   S    
C73   H36   S    
C93   O18   A    
C44   H79   S    
C94   O21   A    
O12   Zn5   S    
C5    O76   S    
C15   C95   S    
C85   H19   S    
C120  O7    A    
C78   H80   S    
C69   C86   A    
O6    Zn9   S    
O67   Zn1   S    
C33   O52   S    
O1    Zn1   S    
C39   O58   S    
C82   C117  A    
C31   H40   S    
C14   C94   S    
C68   C81   A    
C90   O10   A    
C47   H86   S    
C34   O53   S    
C30   H38   S    
C64   C73   A    
C74   H47   S    
C46   O41   A    
C26   H23   S    
C29   H34   S    
Br2   C116  S    
C56   H6    S    
C105  C118  A    
C60   H15   S    
C1    O1    A    
O33   Zn2   S    
O20   Zn10  S    
C36   H53   S    
C66   C77   A    
C7    C140  A    
O78   Zn7   S    
C13   O29   A    
C50   H96   S    
C35   C70   S    
C63   C72   A    
C9    C90   S    
O40   Zn4   S    
C98   O80   A    
C41   O60   S    
O35   Zn2   S    
C39   H63   S    
C132  O52   S    
C52   H103  S    
O42   Zn4   S    
O80   Zn8   S    
C51   H98   S    
C33   H46   S    
C10   C146  A    
C104  C120  S    
C19   C130  A    
C79   H91   S    
C63   C79   A    
C13   C63   S    
C32   H43   S    
C45   H83   S    
C94   O19   A    
C8    C144  A    
C43   H77   S    
C62   C75   A    
C59   H12   S    
C38   H60   S    
O36   Zn3   S    
C103  C109  S    
C76   O23   A    
C17   C126  A    
C64   C78   A    
C41   H68   S    
C59   O77   S    
C152  O73   S    
C16   C96   S    
C7    O79   S    
C81   C116  A    
C21   C133  A    
Br7   C122  S    
C95   O22   A    
O27   Zn12  S    
C66   C74   A    
C88   C123  A    
C103  C123  A    
C7    C16   A    
C58   H7    S    
C141  O62   S    
C58   H9    S    
Br6   C121  S    
C134  C151  A    
C137  O58   S    
O37   Zn3   S    
C3    O74   S    
O17   Zn7   S    
C58   O76   S    
C13   O31   A    
C102  C119  A    
C96   O24   A    
Br14  C113  S    
C44   H78   S    
C57   O38   A    
Br12  C111  S    
C37   H56   S    
C1    O45   A    
C53   H106  S    
C33   H48   S    
C54   H109  S    
Br8   C123  S    
C149  O70   S    
C88   H21   S    
C17   C124  A    
C80   H102  S    
C135  C152  A    
C61   O39   A    
C40   O59   S    
C43   H75   S    
C86   C122  A    
C133  O53   S    
C120  O3    A    
C59   H10   S    
O18   Zn8   S    
C69   C82   A    
Br13  C112  S    
C100  C108  A    
C100  C113  A    
C31   O50   S    
O56   Zn5   S    
C5    C138  A    
C93   O20   A    
O14   Zn6   S    
C57   C68   S    
C41   H70   S    
C109  O8    A    
C28   H29   S    
C4    O75   S    
C21   C135  A    
C72   C107  A    
C60   H14   S    
C22   C136  A    
C48   H90   S    
C5    C16   A    
C47   H87   S    
C36   H52   S    
C78   C113  A    
C125  O46   S    
O31   Zn2   S    
C49   H92   S    
C77   H69   S    
O38   Zn3   S    
C34   H50   S    
C38   O57   S    
C86   H20   S    
C27   H28   S    
Br3   C117  S    
C42   H73   S    
C84   H18   S    
C124  C141  A    
C51   H99   S    
O45   Zn6   S    
C142  O27   A    
C65   C99   S    
C24   C64   S    
C3    C136  A    
C2    O28   A    
O11   Zn6   S    
C98   C102  S    
O25   Zn8   S    
C29   H33   S    
C32   H42   S    
C40   H65   S    
C57   O40   A    
C128  O49   S    
C25   C138  A    
O10   Zn5   S    
C128  C146  A    
C133  C150  A    
C126  C144  A    
C10   C91   S    
C76   O67   A    
C146  O66   S    
C98   O5    A    
C97   C111  A    
C12   C93   S    
C55   H112  S    
C54   O73   S    
C31   H39   S    
C47   H85   S    
C36   O54   S    
C22   C134  A    
O8    Zn11  S    
C129  O50   S    
C26   H24   S    
C143  O63   S    
C109  O2    A    
C28   H31   S    
C96   O26   A    
C8    C89   S    
C60   H16   S    
C70   C85   A    
C99   C114  A    
O24   Zn9   S    
C48   H88   S    
C4    C15   A    
