data_mof_unit_57831.cif
_audit_creation_date              2012-12-11T14:56:28-0500
_audit_creation_method            fapswitch 2.2
_symmetry_space_group_name_H-M    P1
_symmetry_Int_Tables_number       1
_space_group_crystal_system       triclinic
_cell_length_a                    10.476656
_cell_length_b                    10.733135
_cell_length_c                    17.08615
_cell_angle_alpha                 80.51314
_cell_angle_beta                  89.771661
_cell_angle_gamma                 119.653687
_cell_volume                      1638.60930203

loop_
_atom_site_label
_atom_site_type_symbol
_atom_type_description
_atom_site_fract_x
_atom_site_fract_y
_atom_site_fract_z
_atom_type_partial_charge
C1    C     C_R   0.222740 0.854577 0.128648 0.544790
C2    C     C_R   0.708789 0.231754 0.314433 0.215653
C3    C     C_R   0.710195 0.214174 0.235098 -0.064204
C4    C     C_R   0.605389 0.225399 0.186730 -0.062239
C5    C     C_1   0.669932 0.847837 0.205167 -0.016011
C6    C     C_1   0.680385 0.838005 0.274726 -0.031449
C7    C     C_1   0.181032 0.826392 0.211220 -0.024585
C8    C     C_1   0.152033 0.820418 0.279898 -0.023420
C9    C     C_1   0.620426 0.265444 0.775331 -0.021937
C10   C     C_1   0.633851 0.309126 0.705047 -0.016617
C11   C     C_R   0.614721 0.688175 0.817230 -0.152632
C12   C     C_R   0.608560 0.207332 0.102670 0.554957
C13   C     C_R   0.609255 0.663723 0.740104 -0.056433
C14   C     C_R   0.707971 0.777533 0.679052 -0.046431
C15   C     C_R   0.818115 0.909955 0.698780 -0.065348
C16   C     C_R   0.817767 0.937145 0.775537 0.220001
C17   C     C_R   0.704914 0.829299 0.833553 -0.003864
C18   C     C_R   0.224310 0.965096 0.761116 -0.127778
C19   C     C_R   0.216788 0.955208 0.682331 -0.141207
C20   C     C_R   0.167650 0.820121 0.660204 0.008975
C21   C     C_R   0.148467 0.698681 0.717436 -0.033756
C22   C     C_R   0.159723 0.710873 0.797051 -0.130480
C23   C     C_R   0.641837 0.858221 0.125049 0.545581
C24   C     C_R   0.191592 0.842116 0.819121 0.013669
C25   C     C_R   0.686100 0.809792 0.357168 0.555176
C26   C     C_R   0.678490 0.378733 0.401841 0.570901
C27   C     C_R   0.104303 0.810623 0.359360 0.547179
C28   C     C_R   0.705583 0.758458 0.596051 0.559582
C29   C     C_R   0.674697 0.375486 0.623375 0.540415
C30   C     C_R   0.102226 0.802866 0.585275 0.529419
C31   C     C_R   0.224847 0.864321 0.898880 0.542119
C32   C     C_R   0.613169 0.220551 0.858861 0.567140
C33   C     C_R   0.650685 0.863577 0.901620 0.537959
C34   C     C_R   0.493668 0.244825 0.221894 -0.069781
C35   C     C_R   0.505330 0.279415 0.298156 -0.093261
C36   C     C_R   0.623697 0.288688 0.340153 0.023850
Cr1   Cr    Cr6+3 0.402240 0.783890 0.019450 1.047068
Cr2   Cr    Cr6+3 0.382360 0.097900 0.991800 1.051886
Cr3   Cr    Cr6+3 0.715380 0.118170 0.988700 1.058069
Cr4   Cr    Cr6+3 0.936650 0.882420 0.465510 1.061442
Cr5   Cr    Cr6+3 0.605770 0.565620 0.493360 1.072717
Cr6   Cr    Cr6+3 0.921340 0.550490 0.496380 1.093515
H1    H     H_    0.238553 0.051639 0.639438 0.160395
H2    H     H_    0.144113 0.618721 0.841715 0.143175
H3    H     H_    0.534453 0.600017 0.863033 0.161515
H4    H     H_    0.902659 0.995959 0.654072 0.184077
H5    H     H_    0.258765 0.070821 0.776089 0.173781
O1    O     O_R   0.521780 0.757110 0.108900 -0.497037
O2    O     O_R   0.513330 0.228330 0.898660 -0.493512
O3    O     O_R   0.739230 0.266130 0.888050 -0.482058
O4    O     O_R   0.712580 0.991850 0.918770 -0.504045
O5    O     O_3   0.499990 0.999980 0.999980 -0.309888
O6    O     O_R   0.083770 0.911170 0.376030 -0.495411
O7    O     O_R   0.808770 0.880340 0.383890 -0.492084
O8    O     O_R   0.584340 0.689460 0.394160 -0.487751
O9    O     O_R   0.614320 0.443940 0.423590 -0.510719
O10   O     O_R   0.805020 0.410040 0.421340 -0.435141
O11   O     O_R   0.049240 0.685450 0.403290 -0.487497
O12   O     O_R   0.275160 0.783810 0.101120 -0.486236
O13   O     O_R   0.077520 0.903010 0.551800 -0.530359
O14   O     O_R   0.802980 0.872780 0.546830 -0.496334
O15   O     O_R   0.578090 0.681300 0.569920 -0.483519
O16   O     O_R   0.608530 0.436370 0.586530 -0.509812
O17   O     O_R   0.798770 0.401880 0.597100 -0.486263
O18   O     O_R   0.043450 0.677890 0.566230 -0.496760
O19   O     O_3   0.821250 0.666180 0.485090 -0.298972
O20   O     O_R   0.237900 0.972600 0.090980 -0.500742
O21   O     O_R   0.511190 0.220540 0.061620 -0.483559
O22   O     O_R   0.736920 0.257720 0.063840 -0.484927
O23   O     O_R   0.710450 0.984050 0.081720 -0.505456
O24   O     O_R   0.524090 0.765520 0.933110 -0.518679
O25   O     O_R   0.277300 0.791600 0.938160 -0.496840
O26   O     O_R   0.240210 0.981010 0.915190 -0.524758
C37   C     C_1   0.370678 0.238971 0.180224 0.268217
N1    N     N_1   0.272483 0.235168 0.147648 -0.230116
C38   C     C_1   0.114835 0.560432 0.697617 0.245775
N2    N     N_1   0.088134 0.449584 0.682070 -0.205317
C39   C     C_1   0.395921 0.305918 0.332619 0.246023
N3    N     N_1   0.308456 0.326699 0.359911 -0.246378
O27   O     O_3   0.797284 0.205121 0.366717 -0.655879
H6    H     H_    0.828287 0.141332 0.347370 0.338152
C40   C     C_1   0.829419 0.199209 0.203150 0.229080
N4    N     N_1   0.926015 0.188931 0.178209 -0.240415
C41   C     C_1   0.492755 0.525096 0.725709 0.236737
N5    N     N_1   0.397938 0.414344 0.714853 -0.265340
O28   O     O_3   0.924417 0.070780 0.789987 -0.667044
H7    H     H_    0.940359 0.058667 0.847178 0.341293

loop_
_geom_bond_atom_site_label_1
_geom_bond_atom_site_label_2
_ccdc_geom_bond_type
Cr3   O4    S    
C12   O22   A    
C29   O16   A    
Cr4   O13   S    
C19   C20   A    
C18   H5    S    
Cr6   O11   S    
C7    C8    T    
Cr2   O2    S    
C20   C30   S    
C12   O21   A    
C21   C38   S    
C18   C24   A    
C18   C19   A    
C1    O12   A    
C5    C6    T    
C31   O26   A    
C6    C25   S    
Cr2   O5    S    
C15   C16   A    
C34   C35   A    
Cr5   O8    S    
C9    C32   S    
C41   N5    T    
C22   H2    S    
C35   C36   A    
C16   C17   A    
C30   O13   A    
Cr6   O18   S    
C4    C12   S    
C9    C10   T    
C28   O14   A    
Cr3   O5    S    
C29   O17   A    
C1    C7    S    
C13   C14   A    
C16   O28   S    
C23   O23   A    
C17   C33   S    
Cr5   O15   S    
Cr6   O10   S    
C13   C41   S    
C19   H1    S    
C4    C34   A    
C37   N1    T    
C38   N2    T    
Cr1   O5    S    
O28   H7    S    
Cr4   O14   S    
Cr5   O9    S    
C5    C23   S    
C20   C21   A    
C3    C40   S    
Cr3   O22   S    
C25   O7    A    
Cr1   O1    S    
C32   O3    A    
Cr1   O12   S    
C34   C37   S    
C26   C36   S    
C31   O25   A    
Cr2   O21   S    
Cr4   O6    S    
Cr4   O7    S    
Cr1   O24   S    
C22   C24   A    
C11   H3    S    
Cr5   O16   S    
C3    C4    A    
Cr6   O17   S    
C2    C36   A    
C11   C17   A    
C23   O1    A    
C39   N3    T    
C25   O8    A    
O27   H6    S    
C27   O11   A    
C26   O9    A    
C27   O6    A    
Cr5   O19   S    
C33   O4    A    
C35   C39   S    
C2    C3    A    
C24   C31   S    
C11   C13   A    
C10   C29   S    
C1    O20   A    
Cr3   O23   S    
C26   O10   A    
C32   O2    A    
C30   O18   A    
C2    O27   S    
C33   O24   A    
Cr3   O3    S    
Cr2   O20   S    
C40   N4    T    
Cr1   O25   S    
Cr6   O19   S    
C8    C27   S    
C14   C15   A    
Cr4   O19   S    
C15   H4    S    
C14   C28   S    
C21   C22   A    
Cr2   O26   S    
C28   O15   A    
