data_mof_unit_20437.cif
_audit_creation_date              2012-12-11T15:26:02-0500
_audit_creation_method            fapswitch 2.2
_symmetry_space_group_name_H-M    P1
_symmetry_Int_Tables_number       1
_space_group_crystal_system       triclinic
_cell_length_a                    24.646843
_cell_length_b                    17.294016
_cell_length_c                    15.660803
_cell_angle_alpha                 89.99999
_cell_angle_beta                  50.80244
_cell_angle_gamma                 89.999984
_cell_volume                      5173.1712938

loop_
_atom_site_label
_atom_site_type_symbol
_atom_type_description
_atom_site_fract_x
_atom_site_fract_y
_atom_site_fract_z
_atom_type_partial_charge
C1    C     C_R   0.350464 0.141099 0.761983 0.500126
C2    C     C_2   0.301572 0.862246 0.986827 0.046293
C3    C     C_1   0.386113 0.264844 0.920697 0.103640
C4    C     C_1   0.822458 0.363461 0.054842 0.121196
C5    C     C_1   0.113887 0.764845 0.079303 0.103640
C6    C     C_1   0.177542 0.363461 0.945158 0.121196
C7    C     C_1   0.886113 0.764844 0.920697 0.103640
C8    C     C_2   0.361901 0.252587 0.857793 0.027911
C9    C     C_2   0.698428 0.862246 0.013173 0.046293
C10   C     C_2   0.138099 0.752587 0.142207 0.027911
C11   C     C_2   0.801572 0.362246 0.986827 0.046293
C12   C     C_2   0.861901 0.752587 0.857793 0.027911
C13   C     C_2   0.198428 0.362246 0.013173 0.046293
C14   C     C_2   0.686883 0.298041 0.129788 -0.131873
C15   C     C_2   0.239179 0.834781 0.023254 -0.068943
C16   C     C_2   0.313117 0.298041 0.870213 -0.131872
C17   C     C_R   0.668266 0.906288 0.192365 0.394427
C18   C     C_2   0.760821 0.834781 0.976746 -0.068943
C19   C     C_2   0.186883 0.798041 0.129788 -0.131873
C20   C     C_2   0.739179 0.334781 0.023254 -0.068943
C21   C     C_2   0.813117 0.798041 0.870213 -0.131872
C22   C     C_2   0.260821 0.334781 0.976746 -0.068943
C23   C     C_R   0.614196 0.104899 0.592072 -0.134784
C24   C     C_R   0.415545 0.855264 0.406272 -0.141390
C25   C     C_R   0.385804 0.104899 0.407928 -0.134785
C26   C     C_R   0.584455 0.855264 0.593728 -0.141389
C27   C     C_R   0.114196 0.604899 0.592072 -0.134784
C28   C     C_R   0.649536 0.141099 0.238017 0.500126
C29   C     C_R   0.915545 0.355264 0.406272 -0.141390
C30   C     C_R   0.885804 0.604899 0.407928 -0.134785
C31   C     C_R   0.084455 0.355264 0.593728 -0.141389
C32   C     C_R   0.689442 0.094913 0.410467 0.047334
C33   C     C_R   0.337050 0.856174 0.589660 0.024059
C34   C     C_R   0.310558 0.094913 0.589533 0.047337
C35   C     C_R   0.662950 0.856174 0.410339 0.024059
C36   C     C_R   0.189442 0.594913 0.410467 0.047334
C37   C     C_R   0.837050 0.356174 0.589660 0.024059
C38   C     C_R   0.810558 0.594913 0.589533 0.047337
C39   C     C_R   0.331734 0.906288 0.807635 0.394428
C40   C     C_R   0.162950 0.356174 0.410339 0.024059
C41   C     C_R   0.556175 0.140531 0.244673 -0.189001
C42   C     C_R   0.422341 0.897266 0.804566 -0.185686
C43   C     C_R   0.443825 0.140531 0.755326 -0.189002
C44   C     C_R   0.577659 0.897266 0.195434 -0.185685
C45   C     C_R   0.056175 0.640531 0.244673 -0.189001
C46   C     C_R   0.922341 0.397266 0.804566 -0.185686
C47   C     C_R   0.943825 0.640531 0.755326 -0.189002
C48   C     C_R   0.077659 0.397266 0.195434 -0.185685
C49   C     C_R   0.385846 0.183131 0.789624 -0.062061
C50   C     C_R   0.850464 0.641099 0.761983 0.500126
C51   C     C_R   0.648849 0.884498 0.130282 -0.031227
C52   C     C_R   0.614154 0.183131 0.210376 -0.062061
C53   C     C_R   0.351150 0.884498 0.869717 -0.031227
C54   C     C_R   0.885846 0.683131 0.789624 -0.062061
C55   C     C_R   0.148849 0.384498 0.130282 -0.031227
C56   C     C_R   0.114154 0.683131 0.210376 -0.062061
C57   C     C_R   0.851150 0.384498 0.869717 -0.031227
C58   C     C_R   0.682652 0.117514 0.500552 -0.046976
C59   C     C_R   0.363576 0.811967 0.496267 -0.016642
C60   C     C_R   0.317348 0.117514 0.499448 -0.046976
C61   C     C_R   0.168266 0.406288 0.192365 0.394427
C62   C     C_R   0.636424 0.811967 0.503733 -0.016641
C63   C     C_R   0.182652 0.617514 0.500552 -0.046976
C64   C     C_R   0.863576 0.311968 0.496267 -0.016642
C65   C     C_R   0.817348 0.617514 0.499448 -0.046976
C66   C     C_R   0.136424 0.311967 0.503733 -0.016641
C67   C     C_R   0.209825 0.191870 0.601610 -0.163438
C68   C     C_R   0.712586 0.694761 0.421066 -0.159083
C69   C     C_R   0.790174 0.191872 0.398390 -0.163438
C70   C     C_R   0.287414 0.694760 0.578932 -0.159084
C71   C     C_R   0.709825 0.691870 0.601610 -0.163438
C72   C     C_R   0.149536 0.641099 0.238017 0.500126
C73   C     C_R   0.212586 0.194761 0.421066 -0.159083
C74   C     C_R   0.290174 0.691872 0.398390 -0.163438
C75   C     C_R   0.787414 0.194760 0.578932 -0.159084
C76   C     C_R   0.663438 0.737649 0.604815 -0.148446
C77   C     C_R   0.260243 0.148588 0.417397 -0.152700
C78   C     C_R   0.336560 0.737651 0.395185 -0.148446
C79   C     C_R   0.739758 0.148588 0.582602 -0.152700
C80   C     C_R   0.163438 0.237649 0.604815 -0.148446
C81   C     C_R   0.760243 0.648588 0.417397 -0.152700
C82   C     C_R   0.836560 0.237651 0.395185 -0.148446
C83   C     C_R   0.831734 0.406288 0.807635 0.394428
C84   C     C_R   0.239758 0.648588 0.582602 -0.152700
C85   C     C_R   0.668170 0.744272 0.511391 0.142836
C86   C     C_R   0.260813 0.150366 0.506057 0.131616
C87   C     C_R   0.331829 0.744272 0.488609 0.142836
C88   C     C_R   0.739187 0.150366 0.493943 0.131616
C89   C     C_R   0.168170 0.244272 0.511391 0.142836
C90   C     C_R   0.760813 0.650366 0.506057 0.131616
C91   C     C_R   0.831829 0.244272 0.488609 0.142836
C92   C     C_R   0.239187 0.650366 0.493943 0.131616
C93   C     C_1   0.751587 0.054722 0.320600 0.216997
C94   C     C_2   0.638099 0.252587 0.142207 0.027911
C95   C     C_1   0.271054 0.843027 0.697030 0.081259
C96   C     C_1   0.248413 0.054721 0.679400 0.216995
C97   C     C_1   0.728947 0.843028 0.302970 0.081258
C98   C     C_1   0.251587 0.554722 0.320600 0.216997
C99   C     C_1   0.771054 0.343027 0.697030 0.081259
C100  C     C_1   0.748413 0.554721 0.679400 0.216995
C101  C     C_1   0.228947 0.343028 0.302970 0.081258
C102  C     C_1   0.322458 0.863461 0.054842 0.121196
C103  C     C_1   0.613887 0.264845 0.079303 0.103640
C104  C     C_1   0.677542 0.863461 0.945158 0.121196
Cl1   Cl    Cl    0.262148 0.153589 0.821816 -0.670754
Cl2   Cl    Cl    0.745205 0.960201 0.133519 -0.643353
Cl3   Cl    Cl    0.737852 0.153589 0.178184 -0.670754
Cl4   Cl    Cl    0.254795 0.960201 0.866481 -0.643353
Cl5   Cl    Cl    0.762148 0.653590 0.821816 -0.670754
Cl6   Cl    Cl    0.245205 0.460201 0.133519 -0.643353
Cl7   Cl    Cl    0.237852 0.653589 0.178184 -0.670754
Cl8   Cl    Cl    0.754795 0.460201 0.866481 -0.643353
H1    H     H_    0.593463 0.105376 0.676916 0.103758
H2    H     H_    0.452212 0.900110 0.833438 0.124197
H3    H     H_    0.481226 0.154430 0.767454 0.134347
H4    H     H_    0.547788 0.900110 0.166562 0.124197
H5    H     H_    0.018774 0.654431 0.232546 0.134347
H6    H     H_    0.952212 0.400110 0.833438 0.124197
H7    H     H_    0.981226 0.654430 0.767454 0.134347
H8    H     H_    0.047788 0.400110 0.166562 0.124197
H9    H     H_    0.209532 0.195213 0.670948 0.156548
H10   H     H_    0.713807 0.695510 0.350814 0.124787
H11   H     H_    0.790466 0.195216 0.329053 0.156548
H12   H     H_    0.447414 0.839621 0.320484 0.114056
H13   H     H_    0.286194 0.695510 0.649184 0.124787
H14   H     H_    0.709532 0.695213 0.670948 0.156548
H15   H     H_    0.213807 0.195510 0.350814 0.124787
H16   H     H_    0.290466 0.695216 0.329053 0.156548
H17   H     H_    0.786194 0.195510 0.649184 0.124787
H18   H     H_    0.629695 0.773946 0.676588 0.121638
H19   H     H_    0.298240 0.114881 0.344301 0.118815
H20   H     H_    0.370303 0.773949 0.323413 0.121638
H21   H     H_    0.701761 0.114880 0.655698 0.118815
H22   H     H_    0.129695 0.273946 0.676588 0.121638
H23   H     H_    0.406537 0.105376 0.323084 0.103758
H24   H     H_    0.798240 0.614881 0.344301 0.118815
H25   H     H_    0.870303 0.273950 0.323413 0.121638
H26   H     H_    0.201761 0.614880 0.655698 0.118815
H27   H     H_    0.230188 0.828485 0.964354 0.159218
H28   H     H_    0.696505 0.295449 0.188376 0.171411
H29   H     H_    0.769812 0.828485 0.035646 0.159218
H30   H     H_    0.303495 0.295449 0.811624 0.171410
H31   H     H_    0.730188 0.328485 0.964354 0.159218
H32   H     H_    0.196505 0.795449 0.188376 0.171411
H33   H     H_    0.269811 0.328485 0.035646 0.159218
H34   H     H_    0.552586 0.839621 0.679516 0.114056
H35   H     H_    0.803495 0.795449 0.811624 0.171410
H36   H     H_    0.093463 0.605376 0.676916 0.103758
H37   H     H_    0.947414 0.339621 0.320484 0.114056
H38   H     H_    0.906537 0.605376 0.323084 0.103758
H39   H     H_    0.052586 0.339621 0.679516 0.114056
H40   H     H_    0.518774 0.154430 0.232546 0.134347
N1    N     N_R   0.388930 0.078160 0.705470 -0.070324
N2    N     N_R   0.419500 0.922160 0.443350 -0.051347
N3    N     N_R   0.419500 0.077840 0.443350 -0.053022
N4    N     N_R   0.580500 0.922160 0.556650 -0.051347
N5    N     N_R   0.080500 0.577840 0.556650 -0.053022
N6    N     N_R   0.919500 0.422160 0.443350 -0.051347
N7    N     N_R   0.919500 0.577840 0.443350 -0.053022
N8    N     N_R   0.080500 0.422160 0.556650 -0.051347
N9    N     N_R   0.626210 0.077590 0.443410 -0.064300
N10   N     N_R   0.373790 0.922410 0.556590 -0.061578
N11   N     N_R   0.373790 0.077590 0.556590 -0.064300
N12   N     N_R   0.611070 0.921840 0.294530 -0.081883
N13   N     N_R   0.626210 0.922410 0.443410 -0.061578
N14   N     N_R   0.126210 0.577590 0.443410 -0.064300
N15   N     N_R   0.873790 0.422410 0.556590 -0.061578
N16   N     N_R   0.873790 0.577590 0.556590 -0.064300
N17   N     N_R   0.126210 0.422410 0.443410 -0.061578
N18   N     N_R   0.554800 0.077270 0.294580 -0.063843
N19   N     N_R   0.445200 0.922730 0.705420 -0.061377
N20   N     N_R   0.445200 0.077270 0.705420 -0.063843
N21   N     N_R   0.554800 0.922730 0.294580 -0.061377
N22   N     N_R   0.054800 0.577270 0.294580 -0.063843
N23   N     N_R   0.611070 0.078160 0.294530 -0.070324
N24   N     N_R   0.945200 0.422730 0.705420 -0.061377
N25   N     N_R   0.945200 0.577270 0.705420 -0.063843
N26   N     N_R   0.054800 0.422730 0.294580 -0.061377
N27   N     N_1   0.802063 0.022821 0.249690 -0.003130
N28   N     N_1   0.217433 0.830915 0.782069 -0.044905
N29   N     N_1   0.197937 0.022820 0.750309 -0.003130
N30   N     N_1   0.782567 0.830916 0.217931 -0.044904
N31   N     N_1   0.302063 0.522821 0.249690 -0.003130
N32   N     N_1   0.717433 0.330915 0.782069 -0.044905
N33   N     N_1   0.697937 0.522820 0.750309 -0.003130
N34   N     N_R   0.388930 0.921840 0.705470 -0.081883
N35   N     N_1   0.282567 0.330916 0.217931 -0.044904
N36   N     N_1   0.339179 0.864386 0.109231 -0.083342
N37   N     N_1   0.594386 0.274501 0.029552 -0.065000
N38   N     N_1   0.660821 0.864386 0.890769 -0.083342
N39   N     N_1   0.405613 0.274500 0.970449 -0.065001
N40   N     N_1   0.839179 0.364386 0.109231 -0.083342
N41   N     N_1   0.094386 0.774501 0.029552 -0.065000
N42   N     N_1   0.160821 0.364386 0.890769 -0.083342
N43   N     N_1   0.905613 0.774500 0.970449 -0.065001
N44   N     N_R   0.888930 0.578160 0.705470 -0.070324
N45   N     N_R   0.111070 0.421840 0.294530 -0.081883
N46   N     N_R   0.111070 0.578160 0.294530 -0.070324
N47   N     N_R   0.888930 0.421840 0.705470 -0.081883
N48   N     N_R   0.580500 0.077840 0.556650 -0.053022
Ni1   Ni    Ni4+2 0.382710 0.000000 0.629850 0.285842
Ni2   Ni    Ni4+2 0.617290 0.000000 0.370150 0.285841
Ni3   Ni    Ni4+2 0.882710 0.500000 0.629850 0.285842
Ni4   Ni    Ni4+2 0.117290 0.500000 0.370150 0.285841
Ni5   Ni    Ni4+2 0.513020 0.000000 0.629850 0.198096
Ni6   Ni    Ni4+2 0.486980 0.000000 0.370150 0.198095
Ni7   Ni    Ni4+2 0.013020 0.500000 0.629850 0.198096
Ni8   Ni    Ni4+2 0.986980 0.500000 0.370150 0.198095

loop_
_geom_bond_atom_site_label_1
_geom_bond_atom_site_label_2
_ccdc_geom_bond_type
C78   C87   A    
C23   C58   A    
N22   Ni8   S    
C68   H10   S    
C19   H32   S    
N25   N44   A    
C39   Cl4   S    
C25   N3    A    
C18   C21   S    
C4    N40   T    
C26   N4    A    
N5    Ni7   S    
C32   C58   A    
C96   N29   T    
N3    Ni6   S    
C17   C51   A    
C48   N26   A    
C93   N27   T    
C97   N30   T    
C48   H8    S    
C41   H40   S    
C72   Cl7   S    
C15   C19   S    
N48   Ni5   S    
C17   Cl2   S    
C68   C81   A    
C21   H35   S    
N24   Ni7   S    
N20   Ni5   S    
C34   C96   S    
N18   Ni6   S    
C82   H25   S    
C35   C97   S    
C24   C59   A    
C42   C53   A    
C71   C76   A    
C30   H38   S    
C69   H11   S    
C28   Cl3   S    
C33   C95   S    
C24   H12   S    
C80   H22   S    
N7    N16   A    
C46   H6    S    
N45   Ni4   S    
C77   H19   S    
C74   C92   A    
C80   C89   A    
C26   H34   S    
C78   H20   S    
C79   C88   A    
C69   C82   A    
C43   H3    S    
C40   C101  S    
C39   N34   A    
C50   N44   A    
C42   H2    S    
C74   H16   S    
C45   C56   A    
C27   H36   S    
C56   C72   A    
N26   Ni8   S    
C63   C92   S    
N8    N17   A    
C22   H33   S    
C71   H14   S    
C52   C94   S    
N21   Ni6   S    
C103  N37   T    
C25   C60   A    
N15   Ni3   S    
N19   Ni5   S    
C36   C63   A    
C70   C84   A    
C41   C52   A    
C15   H27   S    
C31   N8    A    
N9    N48   A    
C75   C91   A    
C47   H7    S    
C32   C93   S    
C33   C59   A    
C29   C64   A    
C84   H26   S    
C8    C16   D    
C40   C66   A    
C34   C60   A    
C68   C85   A    
C20   H31   S    
C30   N7    A    
C76   H18   S    
N47   Ni3   S    
C70   C87   A    
C67   H9    S    
C40   N17   A    
C6    N42   T    
C24   N2    A    
N6    N15   A    
C66   C89   S    
N1    Ni1   S    
N18   N23   A    
C65   C90   S    
C79   H21   S    
C62   C85   S    
C11   C20   D    
N22   N46   A    
N10   Ni1   S    
C14   C20   S    
N9    Ni2   S    
N7    Ni8   S    
C44   N21   A    
C37   N15   A    
C34   N11   A    
C61   N45   A    
C60   C86   S    
C43   C49   A    
N3    N11   A    
C73   H15   S    
C72   N46   A    
C12   C21   D    
C50   Cl5   S    
C102  N36   T    
C82   C91   A    
N25   Ni7   S    
N34   Ni1   S    
C4    C11   S    
C98   N31   T    
C38   N16   A    
N13   Ni2   S    
C2    C15   D    
C17   N12   A    
C3    N39   T    
C23   H1    S    
C31   H39   S    
C95   N28   T    
C38   C65   A    
C10   C19   D    
C104  N38   T    
C32   N9    A    
C36   N14   A    
N12   N21   A    
N14   Ni4   S    
N44   Ni3   S    
C57   C83   A    
N4    Ni5   S    
C99   N32   T    
N2    Ni6   S    
C69   C88   A    
N12   Ni2   S    
C61   Cl6   S    
C16   H30   S    
C81   C90   A    
C70   H13   S    
C38   C100  S    
N26   N45   A    
C14   H28   S    
C94   C103  S    
C3    C8    S    
C47   C54   A    
C46   C57   A    
N46   Ni4   S    
C46   N24   A    
C7    C12   S    
C55   C61   A    
N24   N47   A    
C83   N47   A    
C37   C99   S    
C37   C64   A    
C10   C56   S    
C44   C51   A    
C81   H24   S    
C5    N41   T    
C45   H5    S    
N11   Ni1   S    
C67   C86   A    
C16   C22   S    
C48   C55   A    
C8    C49   S    
C31   C66   A    
N2    N10   A    
C18   H29   S    
C67   C80   A    
N23   Ni2   S    
C2    C53   S    
C58   C88   S    
N5    N14   A    
C77   C86   A    
C43   N20   A    
C28   N23   A    
C29   N6    A    
C27   N5    A    
C41   N18   A    
N19   N34   A    
N16   Ni3   S    
N6    Ni8   S    
C9    C51   S    
C33   N10   A    
C26   C62   A    
C73   C89   A    
C5    C10   S    
C50   C54   A    
C101  N35   T    
C45   N22   A    
C6    C13   S    
C28   C52   A    
C39   C53   A    
C71   C90   A    
C75   C79   A    
N4    N13   A    
C9    C104  S    
C23   N48   A    
N1    N20   A    
C1    C49   A    
C35   N13   A    
C13   C22   D    
C100  N33   T    
C35   C62   A    
C25   H23   S    
C59   C87   S    
C1    N1    A    
C30   C65   A    
C42   N19   A    
C29   H37   S    
C9    C18   D    
C44   H4    S    
C73   C77   A    
C47   N25   A    
N17   Ni4   S    
C74   C78   A    
C2    C102  S    
C83   Cl8   S    
C27   C63   A    
C36   C98   S    
C84   C92   A    
C64   C91   S    
C13   C55   S    
C11   C57   S    
C7    N43   T    
C76   C85   A    
C14   C94   D    
C12   C54   S    
C75   H17   S    
C1    Cl1   S    
N8    Ni7   S    
