data_mof_unit_61954.cif
_audit_creation_date              2013-03-05T15:59:18-0500
_audit_creation_method            fapswitch 2.2
_symmetry_space_group_name_H-M    P1
_symmetry_Int_Tables_number       1
_space_group_crystal_system       triclinic
_cell_length_a                    8.317114
_cell_length_b                    12.841996
_cell_length_c                    16.581577
_cell_angle_alpha                 109.609612
_cell_angle_beta                  98.267588
_cell_angle_gamma                 81.161808
_cell_volume                      1640.40968128

loop_
_atom_site_label
_atom_site_type_symbol
_atom_site_description
_atom_site_fract_x
_atom_site_fract_y
_atom_site_fract_z
_atom_type_partial_charge
P1    P     P_3+3 0.593410 0.640600 0.698510 0.563362
O1    O     O_2   0.429050 0.611890 0.712090 -0.322860
O2    O     O_3   0.649820 0.584130 0.603850 -0.345995
O3    O     O_3   0.201480 0.401240 0.659120 -0.294203
O4    O     O_2   0.358841 0.518721 0.807060 -0.310967
O5    O     O_3   0.573236 0.782249 0.713327 -0.564814
O6    O     O_3   0.277259 0.335176 0.809776 -0.586584
C1    C     C_3   0.181894 0.176908 0.822736 -0.964354
H1    H     H_    0.118786 0.102119 0.787011 0.229094
H2    H     H_    0.309146 0.149279 0.842912 0.303192
P2    P     P_3+3 0.154920 0.233850 0.431950 0.525178
P3    P     P_3+3 0.660917 0.195650 0.610716 0.602988
O7    O     O_2   0.337150 0.224350 0.458110 -0.391093
O8    O     O_3   0.611620 0.334620 0.615460 -0.308955
O9    O     O_2   0.529806 0.131376 0.545635 -0.278446
O10   O     O_3   0.143374 0.166391 0.319839 -0.611325
O11   O     O_3   0.623060 0.184523 0.708546 -0.431316
C2    C     C_3   0.738336 0.237502 0.774051 0.152168
H3    H     H_    0.759859 0.318502 0.768910 0.040215
H4    H     H_    0.853609 0.181124 0.770205 0.078483
C3    C     C_3   0.676184 0.261144 0.861633 0.591165
H5    H     H_    0.561299 0.317937 0.866632 0.125501
C4    C     C_3   0.722113 0.188064 0.349421 0.397693
H6    H     H_    0.851800 0.175478 0.337850 0.119962
H7    H     H_    0.704482 0.251772 0.412945 0.128279
C5    C     C_3   0.675432 0.079722 0.352602 -0.971788
H8    H     H_    0.665002 0.018321 0.287638 0.307445
H9    H     H_    0.768507 0.044278 0.393929 0.210099
H10   H     H_    0.555727 0.094291 0.378078 0.274436
Ba1   Ba    Ba6+2 0.363950 0.459210 0.542370 1.724917
C6    C     C_3   0.416560 0.814814 0.683059 0.318791
H11   H     H_    0.333489 0.814753 0.728739 0.162572
H12   H     H_    0.382705 0.760198 0.616749 0.078639
C7    C     C_3   0.408875 0.932478 0.683153 0.016971
H13   H     H_    0.444999 0.987364 0.748707 0.202000
H14   H     H_    0.282442 0.960350 0.662285 0.138186
C8    C     C_3   0.231240 0.214698 0.278368 0.697121
H15   H     H_    0.335191 0.254624 0.320727 0.042752
C9    C     C_3   0.301576 0.124994 0.200788 -0.721848
H16   H     H_    0.392317 0.064856 0.222669 0.263462
H17   H     H_    0.363413 0.163352 0.164567 0.209933
H18   H     H_    0.203085 0.079565 0.156768 0.295505
P4    P     P_3+3 0.596300 0.359310 0.301480 0.510482
O12   O     O_2   0.760640 0.388070 0.287860 -0.271980
O13   O     O_3   0.539890 0.415780 0.396140 -0.405816
O14   O     O_3   0.988230 0.598670 0.340870 -0.340131
O15   O     O_3   0.629039 0.214922 0.280094 -0.557337
P5    P     P_3+3 0.529461 0.801460 0.381379 0.505238
O16   O     O_3   0.122980 0.641570 0.544110 -0.369968
O17   O     O_3   0.578090 0.665290 0.384530 -0.392640
O18   O     O_2   0.672739 0.866317 0.433991 -0.345396
O19   O     O_3   0.542490 0.796229 0.275757 -0.497606
Ba2   Ba    Ba6+2 0.825880 0.540700 0.457630 1.682507
P6    P     P_3+3 0.214855 0.447991 0.771974 0.554097
C10   C     C_3   0.178870 0.250169 0.766749 0.971717
H19   H     H_    0.049846 0.281959 0.752148 -0.088426
H20   H     H_    0.121052 0.224568 0.881541 0.279752
O20   O     O_3   0.066730 0.358340 0.455880 -0.284424
C11   C     C_3   0.972463 0.810296 0.725100 0.766273
H21   H     H_    0.892908 0.746573 0.684145 0.080326
C12   C     C_3   0.869868 0.906665 0.783501 -0.683232
H22   H     H_    0.782241 0.948625 0.744334 0.264770
H23   H     H_    0.802232 0.876705 0.822923 0.261107
H24   H     H_    0.949429 0.968610 0.827406 0.264851
P7    P     P_3+3 0.040414 0.782972 0.567709 0.422058
O21   O     O_2   0.852540 0.775600 0.541830 -0.325595
O22   O     O_3   0.058609 0.853833 0.678911 -0.659422
C13   C     C_3   0.479947 0.698666 0.220188 0.351079
H25   H     H_    0.552218 0.623257 0.230670 0.118320
H26   H     H_    0.349593 0.700215 0.229134 0.044356
C14   C     C_3   0.491749 0.689719 0.127729 -0.540418
H27   H     H_    0.620332 0.665996 0.112270 0.260689
H28   H     H_    0.417206 0.624852 0.083908 0.183640
H29   H     H_    0.446721 0.770213 0.116760 0.318670
P8    P     P_3+3 0.978144 0.565418 0.229334 0.544865
C15   C     C_3   0.956364 0.778197 0.260185 0.194266
H30   H     H_    0.081938 0.762351 0.290653 -0.039989
O23   O     O_2   0.845744 0.484929 0.190234 -0.309881
O24   O     O_3   0.900802 0.682238 0.198399 -0.526057
H31   H     H_    0.872238 0.810476 0.311466 0.123991
C16   C     C_3   0.958037 0.867413 0.217932 0.525796
H32   H     H_    0.961887 0.949236 0.269525 -0.021593
C17   C     C_2   0.304070 0.485477 0.247124 -0.464103
C18   C     C_R   0.900861 0.552021 0.755823 -0.408080
C19   C     C_2   0.478341 0.367291 0.137081 -0.194667
C20   C     C_2   0.451865 0.407035 0.220678 0.183393
C21   C     C_2   0.177856 0.499470 0.189009 0.216642
C22   C     C_3   0.190284 0.441763 0.093356 0.056872
C23   C     C_3   0.368452 0.408633 0.070790 0.034089
C24   C     C_2   0.077945 0.499893 0.036399 -0.083143
C25   C     C_2   0.118556 0.513407 0.964909 -0.051363
C26   C     C_R   0.841825 0.606200 0.926585 0.126844
C27   C     C_R   0.994058 0.548887 0.901495 -0.058710
C28   C     C_R   0.720715 0.636754 0.867696 0.180932
C29   C     C_R   0.748258 0.604943 0.780315 0.105045
C30   C     C_R   0.023581 0.524281 0.814790 0.209645
H33   H     H_    0.586206 0.309885 0.116887 0.221928
H34   H     H_    0.292213 0.523709 0.315418 0.181177
H35   H     H_    0.927475 0.537503 0.690975 0.219096
H36   H     H_    0.951228 0.520858 0.049797 0.212588
H37   H     H_    0.244240 0.491128 0.950076 0.173017
C31   C     C_R   0.250209 0.809804 0.460819 -0.447889
C32   C     C_R   0.946962 0.199475 0.539216 0.109056
C33   C     C_R   0.918044 0.025875 0.558992 -0.232291
C34   C     C_R   0.861983 0.136841 0.569757 0.074762
C35   C     C_R   0.074871 0.148649 0.486753 0.198141
C36   C     C_R   0.131235 0.033031 0.473834 -0.075408
C37   C     C_R   0.053840 0.972620 0.513117 -0.031046
C38   C     C_R   0.114574 0.860495 0.506087 0.212306
C39   C     C_R   0.330970 0.868088 0.424517 0.269958
C40   C     C_R   0.268259 0.977593 0.428102 -0.107848
H38   H     H_    0.852336 0.982071 0.586333 0.229903
H39   H     H_    0.331368 0.019297 0.397768 0.167440
H40   H     H_    0.299603 0.725849 0.458291 0.156385
Cl1   Cl    Cl    0.262491 0.170405 0.670057 -0.591160
Cl2   Cl    Cl    0.543011 0.938119 0.611549 -0.551669
N1    N     N_R   0.120742 0.297755 0.251060 0.192678
O25   O     O_R   0.078297 0.389312 0.310404 -0.357816
O26   O     O_R   0.031173 0.270691 0.177535 -0.350040
Cl3   Cl    Cl    0.113996 0.750699 0.793115 -0.613649
Cl4   Cl    Cl    0.819065 0.327142 0.946020 -0.695459
N2    N     N_R   0.102570 0.844244 0.171941 0.237658
O27   O     O_R   0.113665 0.762524 0.100069 -0.362211
O28   O     O_R   0.223682 0.903425 0.204330 -0.447358
Cl5   Cl    Cl    0.779511 0.876126 0.144836 -0.531100
N3    N     N_R   0.573228 0.702352 0.898308 0.288218
O29   O     O_R   0.526302 0.796105 0.883325 -0.308024
O30   O     O_R   0.498998 0.677245 0.951867 -0.356209
Cl6   Cl    Cl    0.895965 0.343857 0.571277 -0.612068
Cl7   Cl    Cl    0.642629 0.137150 0.878729 -0.590964

loop_
_geom_bond_atom_site_label_1
_geom_bond_atom_site_label_2
_geom_bond_distance
_ccdc_geom_bond_type
C1    H1    1.110163 S    
P5    C39   1.861144 S    
C21   C22   1.519920 S    
C11   Cl3   1.778783 S    
C12   H24   1.111378 S    
C2    C3    1.529747 S    
P2    O7    1.513208 D    
Ba1   O13   2.862438 S    
C17   C21   1.352845 D    
C15   O24   1.404695 S    
O6    C10   1.397923 S    
C10   H19   1.110792 S    
C16   H32   1.111808 S    
C9    H17   1.110468 S    
C19   C20   1.344924 D    
C5    H8    1.101658 S    
N3    O29   1.300811 A    
O16   P7    1.771803 S    
P1    Ba1   3.415911 S    
C25   H37   1.081600 S    
P1    O1    1.534424 D    
N1    O26   1.302328 A    
P3    C34   1.849988 S    
C35   C36   1.439332 A    
C7    Cl2   1.767224 S    
C37   C38   1.422275 A    
C7    H13   1.107028 S    
C18   C30   1.399920 A    
C4    C5    1.520019 S    
C12   H23   1.110339 S    
C39   C40   1.407324 A    
C33   C34   1.388882 A    
C11   O22   1.407440 S    
O12   Ba2   2.871373 S    
P4    Ba2   3.416539 S    
P5    O18   1.546980 D    
P2    Ba1   3.438665 S    
C13   H25   1.110572 S    
P7    O22   1.756920 S    
C17   H34   1.085000 S    
P3    O11   1.751361 S    
C36   C37   1.433097 A    
C6    H12   1.110940 S    
P2    O20   1.596518 S    
P4    O15   1.751951 S    
P6    C30   1.836760 S    
O19   C13   1.406026 S    
O10   C8    1.400695 S    
O3    P6    1.755313 S    
P5    O17   1.749899 S    
O5    C6    1.382091 S    
O13   Ba2   2.940765 S    
C11   H21   1.110304 S    
C3    H5    1.104477 S    
C18   H35   1.077576 S    
C28   C29   1.409995 A    
O8    Ba1   2.800495 S    
C1    C10   1.523101 S    
C24   H36   1.082859 S    
O14   P8    1.745317 S    
C9    H18   1.110509 S    
C28   N3    1.430573 S    
Ba1   Ba2   4.648109 S    
C11   C12   1.518612 S    
O17   Ba2   2.801167 S    
C4    O15   1.402799 S    
P1    O5    1.736540 S    
O4    P6    1.541691 D    
C15   H30   1.113284 S    
C32   C34   1.397856 A    
C9    H16   1.108088 S    
C33   H38   1.075886 S    
C19   C23   1.509681 S    
C2    H3    1.114652 S    
P1    O2    1.597783 S    
C18   C29   1.391278 A    
O2    Ba1   2.939917 S    
P4    O12   1.534777 D    
C8    H15   1.106154 S    
C31   H40   1.082340 S    
C1    H20   1.107972 S    
C25   C27   1.499654 S    
P4    O13   1.597783 S    
P2    O10   1.763170 S    
O7    Ba1   2.896026 S    
C6    H11   1.096422 S    
P3    O9    1.541172 D    
P1    C29   1.855155 S    
P2    C35   1.879200 S    
C26   C28   1.405324 A    
O11   C2    1.402435 S    
C6    C7    1.502036 S    
C40   H39   1.076315 S    
Ba2   O21   2.896169 S    
C32   Cl6   1.749852 S    
P7    C38   1.862341 S    
P8    C21   1.852136 S    
Ba1   O16   2.833885 S    
C22   C24   1.525562 S    
C27   C30   1.414166 A    
C31   C39   1.395329 A    
N2    O28   1.298605 A    
C33   C37   1.408007 A    
C14   H28   1.108667 S    
N3    O30   1.298028 A    
C16   Cl5   1.791278 S    
P4    C20   1.864371 S    
C36   C40   1.420392 A    
C15   H31   1.108974 S    
P3    O8    1.746280 S    
C15   C16   1.533030 S    
C14   H29   1.108840 S    
Ba2   O20   2.833275 S    
C5    H9    1.106600 S    
C16   N2    1.454849 S    
O1    Ba1   2.870840 S    
C14   H27   1.108394 S    
C8    C9    1.529291 S    
N1    O25   1.292717 A    
O2    Ba2   2.862897 S    
C24   C25   1.349320 D    
C10   Cl1   1.761523 S    
C13   C14   1.514869 S    
O16   Ba2   2.925393 S    
Ba1   O20   2.926269 S    
O14   Ba2   2.855518 S    
C26   C27   1.406235 A    
C7    H14   1.102925 S    
C32   C35   1.409329 A    
C2    H4    1.104864 S    
C4    H7    1.108815 S    
C3    Cl4   1.767411 S    
C12   H22   1.105162 S    
P8    O23   1.547893 D    
C3    Cl7   1.776531 S    
C19   H33   1.085312 S    
C4    H6    1.100676 S    
P5    O19   1.748409 S    
C17   C20   1.481912 S    
C8    N1    1.445898 S    
C22   C23   1.541346 S    
C5    H10   1.102423 S    
C1    H2    1.104723 S    
P7    O21   1.568464 D    
C13   H26   1.111518 S    
C31   C38   1.396299 A    
O6    P6    1.745311 S    
N2    O27   1.300961 A    
P8    O24   1.747169 S    
O3    Ba1   2.855987 S    
