data_mof_unit_28060.cif
_audit_creation_date              2012-10-26T19:46:06-0400
_audit_creation_method            fapswitch 2.2
_symmetry_space_group_name_H-M    P1
_symmetry_Int_Tables_number       1
_space_group_crystal_system       triclinic
_cell_length_a                    10.818022
_cell_length_b                    9.618362
_cell_length_c                    15.865518
_cell_angle_alpha                 89.78707
_cell_angle_beta                  95.888983
_cell_angle_gamma                 90.177571
_cell_volume                      1642.10371643

loop_
_atom_site_label
_atom_site_type_symbol
_atom_type_description
_atom_site_fract_x
_atom_site_fract_y
_atom_site_fract_z
_atom_type_partial_charge
C1    C     C_R   0.262205 0.499852 0.498851 0.523628
C2    C     C_R   0.933366 0.622936 0.479075 -0.104105
C3    C     C_R   0.870947 0.499575 0.495373 0.020189
C4    C     C_R   0.127947 0.499563 0.497026 0.017066
C5    C     C_R   0.420836 0.073701 0.444590 -0.022676
C6    C     C_R   0.420128 0.926414 0.445065 -0.029206
C7    C     C_R   0.499268 0.500172 0.340329 0.537798
C8    C     C_R   0.584103 0.923748 0.557540 0.332902
C9    C     C_R   0.583310 0.076163 0.558272 0.329178
C10   C     C_R   0.737188 0.500051 0.497001 0.610242
C11   C     C_R   0.496222 0.499759 0.659398 0.609471
C12   C     C_3   0.617321 0.412074 0.956596 -0.154799
C13   C     C_3   0.511652 0.646292 0.049506 -0.246641
C14   C     C_3   0.383724 0.432546 0.041702 -0.237514
C15   C     C_3   0.383736 0.428909 0.944169 -0.222088
C16   C     C_3   0.515154 0.646892 0.952257 -0.222642
C17   C     C_1   0.497969 0.499161 0.749209 0.035928
C18   C     C_3   0.508075 0.494444 0.083430 0.029232
C19   C     C_3   0.503915 0.496671 0.917367 -0.030051
C20   C     C_3   0.622392 0.407310 0.055753 0.445322
C21   C     C_1   0.500462 0.498299 0.824942 -0.039333
C22   C     C_1   0.504615 0.497940 0.175474 0.042609
C23   C     C_1   0.501518 0.500057 0.250825 0.063902
C24   C     C_R   0.065223 0.375511 0.511412 -0.125137
C25   C     C_R   0.061495 0.623165 0.480357 -0.119724
C26   C     C_R   0.937255 0.375515 0.510566 -0.101573
Cu1   Cu    Cu3+1 0.500020 0.640660 0.500000 1.049935
Cu2   Cu    Cu3+1 0.500020 0.359340 0.500000 1.065426
H1    H     H_    0.427205 0.703133 0.064712 0.123411
H2    H     H_    0.883356 0.718918 0.464983 0.177470
H3    H     H_    0.356392 0.128632 0.399687 0.136302
H4    H     H_    0.355222 0.871574 0.400472 0.128995
H5    H     H_    0.437611 0.711754 0.922192 0.152547
H6    H     H_    0.300779 0.485276 0.914169 0.145565
H7    H     H_    0.797311 0.649930 0.682174 0.353867
H8    H     H_    0.758610 0.352584 0.705116 0.352124
H9    H     H_    0.860620 0.521277 0.226459 0.366751
H10   H     H_    0.505073 0.043321 0.055999 0.372275
H11   H     H_    0.703418 0.458936 0.935846 0.160693
H12   H     H_    0.304405 0.497497 0.057764 0.133380
H13   H     H_    0.612566 0.305661 0.929158 0.186652
H14   H     H_    0.365514 0.327767 0.067006 0.205784
H15   H     H_    0.590491 0.706374 0.081275 0.202950
H16   H     H_    0.376276 0.319431 0.921792 0.187846
H17   H     H_    0.603519 0.695168 0.936392 0.190082
H18   H     H_    0.114883 0.278835 0.524163 0.150875
H19   H     H_    0.108218 0.719714 0.467841 0.143035
H20   H     H_    0.890705 0.278728 0.522633 0.192092
N1    N     N_R   0.500030 0.852070 0.500020 -0.276475
N2    N     N_R   0.500030 0.147930 0.500020 -0.275489
O1    O     O_R   0.319660 0.618740 0.500000 -0.523242
O2    O     O_2   0.705958 0.892085 0.716553 -0.197574
O3    O     O_3   0.715852 0.663791 0.648569 -0.493259
O4    O     O_2   0.620594 0.138524 0.723868 -0.260563
O5    O     O_2   0.810298 0.104575 0.655048 -0.216812
O6    O     O_3   0.716934 0.335236 0.647508 -0.504320
O7    O     O_2   0.875112 0.386051 0.077407 -0.219021
O8    O     O_2   0.793189 0.620966 0.067708 -0.317207
O9    O     O_3   0.777434 0.482920 0.207283 -0.504058
O10   O     O_2   0.735584 0.153847 0.073937 -0.194521
O11   O     O_2   0.600871 0.216148 0.182246 -0.256105
O12   O     O_R   0.319660 0.381260 0.500000 -0.525538
O13   O     O_3   0.499502 0.139912 0.034072 -0.584844
O14   O     O_R   0.500020 0.618840 0.379440 -0.518004
O15   O     O_R   0.500020 0.381160 0.379440 -0.489586
O16   O     O_R   0.680370 0.618830 0.500010 -0.442356
O17   O     O_R   0.680370 0.381170 0.500010 -0.446840
O18   O     O_R   0.500010 0.618730 0.620560 -0.434025
O19   O     O_R   0.500010 0.381270 0.620560 -0.428764
O20   O     O_2   0.826642 0.869601 0.594418 -0.290597
S1    S     S_3+6 0.705742 0.834775 0.628703 0.098540
S2    S     S_3+6 0.682274 0.165372 0.644583 0.091113
S3    S     S_3+6 0.771630 0.477399 0.101001 0.044960
S4    S     S_3+6 0.616797 0.225623 0.089400 0.044556

loop_
_geom_bond_atom_site_label_1
_geom_bond_atom_site_label_2
_ccdc_geom_bond_type
C16   H17   S    
C20   S3    S    
C6    H4    S    
C11   O19   A    
Cu2   O12   S    
C12   H13   S    
H8    O6    S    
O13   S4    S    
C16   H5    S    
C7    O15   A    
C14   C18   S    
C15   H6    S    
O5    S2    D    
C14   C15   S    
C9    S2    S    
C26   H20   S    
C2    H2    S    
C1    C4    S    
C24   H18   S    
C1    O12   A    
C12   C20   S    
C12   H11   S    
C2    C3    A    
C20   S4    S    
C3    C10   S    
C18   C22   S    
C14   H14   S    
C15   C19   S    
C1    O1    A    
H9    O9    S    
Cu2   N2    S    
C13   C18   S    
C16   C19   S    
C7    C23   S    
C12   C19   S    
O10   S4    D    
C19   C21   S    
Cu1   O1    S    
C15   H16   S    
C4    C25   A    
C2    C25   A    
C18   C20   S    
C10   O16   A    
C6    N1    A    
Cu1   O16   S    
C5    C6    A    
C4    C24   A    
C7    O14   A    
O20   S1    D    
H7    O3    S    
Cu1   O14   S    
C13   H1    S    
C14   H12   S    
O3    S1    S    
Cu1   N1    S    
C5    N2    A    
C13   H15   S    
Cu2   O17   S    
O4    S2    D    
C11   O18   A    
O8    S3    D    
H10   O13   S    
C13   C16   S    
O7    S3    D    
Cu1   Cu2   S    
O2    S1    D    
C25   H19   S    
C22   C23   T    
C11   C17   S    
C8    S1    S    
Cu1   O18   S    
O6    S2    S    
C10   O17   A    
Cu2   O15   S    
C8    N1    A    
C3    C26   A    
C17   C21   T    
C9    N2    A    
Cu2   O19   S    
O11   S4    D    
C24   C26   A    
C8    C9    A    
C5    H3    S    
O9    S3    S    
