data_mof_unit_6244.cif
_audit_creation_date              2012-12-10T16:32:37-0500
_audit_creation_method            fapswitch 2.2
_symmetry_space_group_name_H-M    P1
_symmetry_Int_Tables_number       1
_space_group_crystal_system       triclinic
_cell_length_a                    16.946248
_cell_length_b                    16.791713
_cell_length_c                    16.843465
_cell_angle_alpha                 64.323764
_cell_angle_beta                  65.799846
_cell_angle_gamma                 65.965719
_cell_volume                      3783.14070473

loop_
_atom_site_label
_atom_site_type_symbol
_atom_type_description
_atom_site_fract_x
_atom_site_fract_y
_atom_site_fract_z
_atom_type_partial_charge
C1    C     C_R   0.581855 0.064648 0.579129 0.253457
C2    C     C_R   0.821578 0.564044 0.031543 0.914971
C3    C     C_3   0.903349 0.566264 0.731438 -0.320107
C4    C     C_3   0.832937 0.645028 0.767549 -0.478999
C5    C     C_3   0.740154 0.629494 0.810661 -0.628099
C6    C     C_R   0.433517 0.972817 0.178462 0.944243
C7    C     C_R   0.562820 0.037147 0.820437 0.943762
C8    C     C_R   0.563494 0.820875 0.034492 0.969314
C9    C     C_R   0.437970 0.179641 0.961923 0.906005
C10   C     C_R   0.023554 0.570183 0.821915 0.961241
C11   C     C_R   0.952668 0.441792 0.178118 0.897080
C12   C     C_R   0.821077 0.037077 0.562189 0.974363
C13   C     C_R   0.178843 0.963308 0.438103 0.890606
C14   C     C_R   0.537069 0.042708 0.535031 -0.387450
C15   C     C_R   0.404240 0.974068 0.414748 0.242568
C16   C     C_R   0.445324 0.997267 0.461816 -0.381902
C17   C     C_R   0.009189 0.562371 0.533601 -0.332057
C18   C     C_R   0.981811 0.470318 0.441336 -0.322805
C19   C     C_R   0.531822 0.536216 0.045563 -0.357223
C20   C     C_R   0.461816 0.445689 0.994357 -0.377574
C21   C     C_R   0.548833 0.950069 0.549714 0.484421
C22   C     C_R   0.431308 0.089803 0.449877 0.468810
C23   C     C_R   0.004321 0.470421 0.576139 0.460798
C24   C     C_R   0.994980 0.558980 0.396225 0.456294
C25   C     C_R   0.528292 0.565754 0.954862 0.449107
C26   C     C_R   0.027089 0.609021 0.581907 0.187969
C27   C     C_R   0.463272 0.416813 0.085763 0.469972
C28   C     C_R   0.504897 0.927534 0.511433 0.468023
C29   C     C_R   0.478400 0.112530 0.484587 0.483997
C30   C     C_R   0.494581 0.520334 0.929194 0.473517
C31   C     C_R   0.497009 0.462683 0.111605 0.467628
C32   C     C_R   0.980831 0.429752 0.534780 0.452508
C33   C     C_R   0.996191 0.607935 0.445299 0.486332
C34   C     C_R   0.538807 0.068553 0.669475 0.024986
C35   C     C_R   0.443682 0.983292 0.320291 0.009245
C36   C     C_R   0.079839 0.673099 0.534818 0.045643
C37   C     C_R   0.969029 0.419889 0.392978 0.174269
C38   C     C_R   0.004693 0.322015 0.413625 0.068650
C39   C     C_R   0.672502 0.537145 0.061847 -0.029235
C40   C     C_R   0.320276 0.445108 0.980483 0.011558
C41   C     C_R   0.322677 0.949463 0.461927 0.007171
C42   C     C_R   0.672536 0.066163 0.536964 0.015000
C43   C     C_R   0.460211 0.327244 0.942552 0.029376
C44   C     C_R   0.539302 0.668270 0.071635 0.027463
C45   C     C_R   0.918842 0.465580 0.326957 0.054180
C46   C     C_R   0.992897 0.589261 0.679258 0.056309
C47   C     C_R   0.592446 0.061264 0.720712 -0.252320
C48   C     C_R   0.580056 0.578336 0.066362 0.240272
C49   C     C_R   0.400228 0.963909 0.275481 -0.255610
C50   C     C_R   0.080601 0.721573 0.585393 -0.280035
C51   C     C_R   0.966839 0.275773 0.390126 -0.241646
C52   C     C_R   0.725228 0.594721 0.044916 -0.245920
C53   C     C_R   0.274522 0.401448 0.962520 -0.255476
C54   C     C_R   0.276220 0.946214 0.409398 -0.237873
C55   C     C_R   0.722727 0.060433 0.590817 -0.252688
C56   C     C_R   0.407972 0.278804 0.942499 -0.244450
C57   C     C_R   0.595940 0.723189 0.049252 -0.259279
C58   C     C_R   0.921008 0.413697 0.278198 -0.274228
C59   C     C_R   0.414108 0.406716 0.969546 0.243271
C60   C     C_R   0.034183 0.610051 0.724119 -0.248982
C61   C     C_R   0.679931 0.066726 0.678104 0.514454
C62   C     C_R   0.320309 0.940618 0.322562 0.504721
C63   C     C_R   0.079701 0.676533 0.675163 0.526875
C64   C     C_R   0.923037 0.323678 0.322727 0.516693
C65   C     C_R   0.687585 0.687228 0.029856 0.501658
C66   C     C_R   0.320532 0.321910 0.939243 0.507443
C67   C     C_3   0.436077 0.085376 0.707341 -0.348013
C68   C     C_3   0.389502 0.178258 0.725637 -0.334279
C69   C     C_3   0.287806 0.193565 0.766251 -0.709947
C70   C     C_R   0.976518 0.178030 0.430037 0.938047
C71   C     C_3   0.532343 0.011054 0.271034 -0.363077
C72   C     C_3   0.517630 0.112372 0.209292 -0.225278
C73   C     C_3   0.607150 0.135511 0.154042 -0.855751
C74   C     C_3   0.147627 0.681070 0.440201 -0.331848
C75   C     C_3   0.219481 0.589012 0.437430 -0.368481
C76   C     C_3   0.290346 0.598985 0.344168 -0.824010
C77   C     C_3   0.086738 0.268890 0.450721 -0.304177
C78   C     C_3   0.166274 0.217164 0.387649 -0.391427
C79   C     C_3   0.208864 0.282597 0.297706 -0.699134
C80   C     C_3   0.712261 0.433845 0.074466 -0.362873
C81   C     C_R   0.047377 0.821921 0.558078 0.917967
C82   C     C_3   0.731650 0.379371 0.168037 -0.251402
C83   C     C_3   0.772033 0.276773 0.179974 -0.788197
C84   C     C_3   0.272306 0.529944 0.013535 -0.325833
C85   C     C_3   0.224949 0.502597 0.117246 -0.366090
C86   C     C_3   0.205739 0.577085 0.156850 -0.766069
C87   C     C_3   0.288477 0.923781 0.567114 -0.355280
C88   C     C_3   0.279964 0.825001 0.612060 -0.292669
C89   C     C_3   0.249410 0.798140 0.716701 -0.730571
C90   C     C_3   0.710195 0.084772 0.433182 -0.374501
C91   C     C_3   0.750177 0.996418 0.406516 -0.253998
C92   C     C_R   0.178140 0.433577 0.973119 0.976801
C93   C     C_3   0.816002 0.010947 0.310266 -0.843557
C94   C     C_3   0.563493 0.297644 0.910604 -0.356334
C95   C     C_3   0.599100 0.290571 0.813290 -0.354718
C96   C     C_3   0.701912 0.261342 0.781562 -0.714375
C97   C     C_3   0.437204 0.699797 0.109801 -0.378428
C98   C     C_3   0.387174 0.742264 0.036159 -0.254995
C99   C     C_3   0.292468 0.802426 0.068176 -0.866353
C100  C     C_3   0.848594 0.558962 0.318866 -0.326021
C101  C     C_3   0.774048 0.559406 0.409804 -0.400613
C102  C     C_3   0.700865 0.651204 0.399567 -0.756326
F1    F     F_    0.464939 0.202195 0.471650 -0.601661
F2    F     F_    0.553429 0.641723 0.892026 -0.639840
F3    F     F_    0.010495 0.597798 0.304060 -0.663742
F4    F     F_    0.020145 0.419736 0.659178 -0.627564
F5    F     F_    0.725439 0.074349 0.723786 -0.639567
F6    F     F_    0.282057 0.916747 0.282055 -0.648763
F7    F     F_    0.108031 0.708898 0.717163 -0.658547
F8    F     F_    0.895700 0.280927 0.290151 -0.665871
F9    F     F_    0.741795 0.743965 0.991678 -0.625609
F10   F     F_    0.278520 0.282554 0.918428 -0.650540
F11   F     F_    0.520270 0.837961 0.522426 -0.613919
F12   F     F_    0.979716 0.700585 0.407650 -0.638421
F13   F     F_    0.959331 0.349160 0.586297 -0.633952
F14   F     F_    0.498523 0.433845 0.199851 -0.616414
F15   F     F_    0.489983 0.551541 0.841703 -0.604341
F16   F     F_    0.373163 0.158162 0.403359 -0.641207
F17   F     F_    0.604428 0.881773 0.599665 -0.602469
F18   F     F_    0.430899 0.345127 0.149865 -0.642555
H1    H     H_    0.258828 0.191388 0.719057 0.251085
H2    H     H_    0.594476 0.209790 0.113482 0.268544
H3    H     H_    0.479664 0.128721 0.161418 0.238603
H4    H     H_    0.477253 0.157873 0.252335 0.302650
H5    H     H_    0.566352 0.001900 0.319454 0.173960
H6    H     H_    0.584390 0.962952 0.233861 0.226082
H7    H     H_    0.258287 0.622801 0.289011 0.257550
H8    H     H_    0.325317 0.649122 0.330075 0.261325
H9    H     H_    0.341024 0.531412 0.343782 0.297685
H10   H     H_    0.253198 0.564228 0.491592 0.239172
H11   H     H_    0.188119 0.536363 0.450445 0.235591
H12   H     H_    0.272378 0.139869 0.833760 0.254049
H13   H     H_    0.182933 0.732159 0.423167 0.204793
H14   H     H_    0.115969 0.708092 0.384774 0.275895
H15   H     H_    0.159388 0.326724 0.257574 0.224292
H16   H     H_    0.232356 0.326723 0.311786 0.289645
H17   H     H_    0.267697 0.242232 0.256046 0.263741
H18   H     H_    0.217790 0.171399 0.424765 0.276314
H19   H     H_    0.146050 0.171971 0.371821 0.205169
H20   H     H_    0.112502 0.315062 0.458897 0.217109
H21   H     H_    0.067981 0.219081 0.520009 0.241181
H22   H     H_    0.725047 0.249527 0.175030 0.243134
H23   H     H_    0.255887 0.262073 0.776390 0.290349
H24   H     H_    0.837273 0.264621 0.126529 0.257720
H25   H     H_    0.784041 0.239011 0.248527 0.281263
H26   H     H_    0.778748 0.404169 0.175796 0.237304
H27   H     H_    0.667714 0.389318 0.223675 0.257279
H28   H     H_    0.771926 0.419981 0.016498 0.213613
H29   H     H_    0.666870 0.404127 0.071139 0.191894
H30   H     H_    0.269109 0.592142 0.142773 0.231818
H31   H     H_    0.157451 0.641029 0.126666 0.280699
H32   H     H_    0.176820 0.552383 0.232440 0.292167
H33   H     H_    0.160811 0.488979 0.131660 0.253685
H34   H     H_    0.415966 0.182423 0.773629 0.230746
H35   H     H_    0.268626 0.438593 0.153422 0.267314
H36   H     H_    0.319922 0.567034 0.999507 0.185750
H37   H     H_    0.226963 0.585510 0.972914 0.224439
H38   H     H_    0.297962 0.803471 0.741524 0.253738
H39   H     H_    0.181603 0.843685 0.740018 0.254787
H40   H     H_    0.245893 0.725898 0.747133 0.285688
H41   H     H_    0.230836 0.817616 0.589696 0.237167
H42   H     H_    0.346483 0.776523 0.590716 0.253677
H43   H     H_    0.224699 0.974061 0.589927 0.216076
H44   H     H_    0.334518 0.926788 0.596338 0.204681
H45   H     H_    0.403108 0.234629 0.659849 0.250545
H46   H     H_    0.781654 0.067338 0.259135 0.241229
H47   H     H_    0.873912 0.028390 0.307401 0.272308
H48   H     H_    0.841970 0.946818 0.292250 0.269223
H49   H     H_    0.785569 0.938598 0.456129 0.274437
H50   H     H_    0.695410 0.975873 0.407187 0.206192
H51   H     H_    0.656411 0.132152 0.399123 0.214432
H52   H     H_    0.759938 0.124506 0.404100 0.226697
H53   H     H_    0.728748 0.312145 0.780671 0.255547
H54   H     H_    0.728530 0.192514 0.828127 0.267624
H55   H     H_    0.725443 0.257382 0.711031 0.274714
H56   H     H_    0.417181 0.027351 0.768432 0.225455
H57   H     H_    0.574851 0.239644 0.810843 0.226314
H58   H     H_    0.574014 0.358619 0.764636 0.243924
H59   H     H_    0.591597 0.232442 0.959763 0.221623
H60   H     H_    0.592028 0.347815 0.907989 0.198955
H61   H     H_    0.253472 0.761646 0.133402 0.264083
H62   H     H_    0.295880 0.861628 0.078861 0.283351
H63   H     H_    0.256924 0.829353 0.015190 0.243813
H64   H     H_    0.424552 0.784282 0.970635 0.275821
H65   H     H_    0.380688 0.686837 0.022131 0.205909
H66   H     H_    0.412984 0.640038 0.163086 0.203881
H67   H     H_    0.405815 0.087661 0.659200 0.192602
H68   H     H_    0.418986 0.748165 0.147331 0.219230
H69   H     H_    0.729963 0.708240 0.378651 0.275317
H70   H     H_    0.669118 0.664371 0.347356 0.245530
H71   H     H_    0.648044 0.649450 0.466289 0.288306
H72   H     H_    0.743008 0.503357 0.432329 0.234173
H73   H     H_    0.802437 0.547472 0.464103 0.243543
H74   H     H_    0.816031 0.574833 0.266169 0.183051
H75   H     H_    0.877471 0.616334 0.293931 0.279144
H76   H     H_    0.715820 0.630631 0.758055 0.298596
H77   H     H_    0.742045 0.562383 0.866497 0.237835
H78   H     H_    0.645845 0.120714 0.200805 0.249671
H79   H     H_    0.692981 0.685532 0.839873 0.292070
H80   H     H_    0.851430 0.651156 0.820292 0.236138
H81   H     H_    0.829432 0.711260 0.710073 0.259626
H82   H     H_    0.876613 0.558117 0.686182 0.223195
H83   H     H_    0.911051 0.500610 0.788893 0.249246
H84   H     H_    0.647594 0.094620 0.106204 0.247410
O1    O     O_R   0.982940 0.138950 0.510160 -0.636431
O2    O     O_R   0.982940 0.510160 0.138950 -0.632083
O3    O     O_R   0.861050 0.017060 0.489840 -0.645582
O4    O     O_R   0.138950 0.982940 0.510160 -0.672249
O5    O     O_R   0.867700 0.025880 0.612340 -0.535813
O6    O     O_R   0.132300 0.974120 0.387660 -0.563019
O7    O     O_R   0.025880 0.612340 0.867700 -0.554008
O8    O     O_R   0.974120 0.387660 0.132300 -0.570200
O9    O     O_R   0.612340 0.867700 0.025880 -0.542121
O10   O     O_R   0.387660 0.132300 0.974120 -0.556960
O11   O     O_R   0.387660 0.974120 0.132300 -0.553415
O12   O     O_R   0.017060 0.861050 0.489840 -0.607988
O13   O     O_R   0.612340 0.025880 0.867700 -0.536650
O14   O     O_R   0.132300 0.387660 0.974120 -0.542796
O15   O     O_R   0.867700 0.612340 0.025880 -0.559975
O16   O     O_R   0.974120 0.132300 0.387660 -0.568870
O17   O     O_R   0.025880 0.867700 0.612340 -0.565848
O18   O     O_R   0.138950 0.510160 0.982940 -0.659524
O19   O     O_R   0.861050 0.489840 0.017060 -0.670986
O20   O     O_R   0.510160 0.982940 0.138950 -0.665114
O21   O     O_R   0.489840 0.017060 0.861050 -0.651971
O22   O     O_R   0.489840 0.861050 0.017060 -0.642956
O23   O     O_R   0.510160 0.138950 0.982940 -0.659564
O24   O     O_R   0.017060 0.489840 0.861050 -0.628241
Zn1   Zn    Zn3+2 0.004880 0.004880 0.583590 1.027908
Zn2   Zn    Zn3+2 0.995120 0.995120 0.416410 1.027192
Zn3   Zn    Zn3+2 0.004880 0.583590 0.004880 1.033972
Zn4   Zn    Zn3+2 0.995120 0.416410 0.995120 1.020146
Zn5   Zn    Zn3+2 0.583590 0.004880 0.004880 1.004297
Zn6   Zn    Zn3+2 0.416410 0.995120 0.995120 0.993197

loop_
_geom_bond_atom_site_label_1
_geom_bond_atom_site_label_2
_ccdc_geom_bond_type
C16   C28   A    
C97   H68   S    
C87   H43   S    
C87   C88   S    
C101  C102  S    
C22   C29   A    
C3    H83   S    
C40   C84   S    
O1    Zn1   S    
C95   C96   S    
C77   H20   S    
C75   C76   S    
C101  H72   S    
C19   C31   A    
C78   H19   S    
C43   C94   S    
C82   H27   S    
C4    H81   S    
C89   H38   S    
C5    H79   S    
C20   C30   A    
C77   C78   S    
C70   O1    A    
C79   H16   S    
C20   C27   A    
C33   F12   S    
C17   C23   A    
C96   H54   S    
C60   C63   A    
C18   C24   A    
O21   Zn6   S    
C14   C21   A    
C96   H55   S    
C18   C37   S    
C12   O5    A    
C98   H65   S    
C68   H34   S    
C86   H30   S    
C85   C86   S    
C83   H24   S    
C11   O8    A    
O15   Zn3   S    
C80   H29   S    
C81   O12   A    
C62   F6    S    
C15   C16   S    
C74   H13   S    
C97   C98   S    
C102  H69   S    
C29   F1    S    
C85   H35   S    
C55   C61   A    
C65   F9    S    
C99   H62   S    
C30   F15   S    
C83   H25   S    
C95   H57   S    
C6    O11   A    
C93   H48   S    
C101  H73   S    
C68   C69   S    
C90   H51   S    
C35   C49   A    
O12   Zn2   S    
C56   C66   A    
C71   H6    S    
C76   H7    S    
C51   C70   S    
C11   C58   S    
C44   C57   A    
C4    H80   S    
C99   H63   S    
C75   H10   S    
C43   C59   A    
O4    Zn1   S    
C68   H45   S    
C87   H44   S    
C35   C71   S    
C32   F13   S    
C40   C59   A    
C72   H4    S    
C10   O24   A    
C50   C63   A    
O10   Zn6   S    
O11   Zn6   S    
C17   C33   A    
C79   H15   S    
C53   C92   S    
O9    Zn5   S    
C78   H18   S    
C15   C35   A    
C82   H26   S    
C67   H67   S    
C1    C34   A    
C89   H39   S    
C6    O20   A    
C58   C64   A    
C97   H66   S    
O23   Zn5   S    
C73   H84   S    
C45   C58   A    
C96   H53   S    
C91   H49   S    
C27   C31   A    
C67   C68   S    
C12   O3    A    
C84   C85   S    
C15   C41   A    
C80   C82   S    
C8    O9    A    
C74   C75   S    
O13   Zn5   S    
C8    O22   A    
C78   C79   S    
C4    C5    S    
O5    Zn1   S    
C38   C51   A    
C7    O21   A    
C27   F18   S    
C23   F4    S    
C25   F2    S    
C70   O16   A    
C42   C90   S    
C7    C47   S    
C63   F7    S    
C10   C60   S    
O20   Zn5   S    
C47   C61   A    
C37   C38   A    
C86   H32   S    
C42   C55   A    
C91   C93   S    
C44   C97   S    
C43   C56   A    
C95   H58   S    
C64   F8    S    
C69   H1    S    
C67   H56   S    
C73   H78   S    
C76   H9    S    
C102  H71   S    
O6    Zn2   S    
C13   O4    A    
C9    O23   A    
C9    C56   S    
C85   H33   S    
C20   C59   S    
C92   O14   A    
C53   C66   A    
O14   Zn4   S    
C2    C52   S    
C5    H76   S    
C26   C36   A    
C11   O2    A    
C21   C28   A    
O18   Zn3   S    
C98   C99   S    
C72   H3    S    
C2    O15   A    
C76   H8    S    
C18   C32   A    
C17   C26   S    
C14   C29   A    
C90   H52   S    
C3    C4    S    
C34   C47   A    
C75   H11   S    
C31   F14   S    
O24   Zn4   S    
C36   C50   A    
O19   Zn4   S    
C89   H40   S    
C13   C54   S    
C100  H75   S    
C25   C30   A    
C22   F16   S    
C36   C74   S    
C16   C22   A    
C49   C62   A    
C91   H50   S    
C46   C60   A    
O2    Zn3   S    
C19   C48   S    
C13   O6    A    
C73   H2    S    
C10   O7    A    
C51   C64   A    
C57   C65   A    
C72   C73   S    
C45   C100  S    
C34   C67   S    
C93   H46   S    
C83   H22   S    
C5    H77   S    
C84   H37   S    
C40   C53   A    
O3    Zn2   S    
C24   F3    S    
C38   C77   S    
C100  H74   S    
C9    O10   A    
C69   H23   S    
C54   C62   A    
C94   H60   S    
C3    C46   S    
C24   C33   A    
O22   Zn6   S    
O8    Zn4   S    
O16   Zn2   S    
C39   C80   S    
C41   C87   S    
C92   O18   A    
O7    Zn3   S    
C71   C72   S    
C21   F17   S    
C86   H31   S    
C23   C32   A    
C84   H36   S    
C90   C91   S    
C81   O17   A    
C69   H12   S    
C88   H42   S    
C74   H14   S    
C2    O19   A    
C102  H70   S    
C39   C52   A    
C94   H59   S    
C6    C49   S    
C98   H64   S    
C94   C95   S    
C19   C25   A    
C88   H41   S    
C77   H21   S    
C41   C54   A    
C99   H61   S    
C12   C55   S    
C28   F11   S    
C26   C46   A    
C7    O13   A    
C1    C42   A    
C80   H28   S    
C88   C89   S    
C93   H47   S    
C82   C83   S    
C61   F5    S    
O17   Zn1   S    
C3    H82   S    
C71   H5    S    
C100  C101  S    
C1    C14   S    
C66   F10   S    
C37   C45   A    
C79   H17   S    
C8    C57   S    
C52   C65   A    
C44   C48   A    
C50   C81   S    
C39   C48   A    
