data_mof_unit_58447.cif
_audit_creation_date              2012-12-11T15:11:46-0500
_audit_creation_method            fapswitch 2.2
_symmetry_space_group_name_H-M    P1
_symmetry_Int_Tables_number       1
_space_group_crystal_system       triclinic
_cell_length_a                    20.32327
_cell_length_b                    7.21195
_cell_length_c                    13.493405
_cell_angle_alpha                 90.00197
_cell_angle_beta                  103.383014
_cell_angle_gamma                 90.000459
_cell_volume                      1924.02758912

loop_
_atom_site_label
_atom_site_type_symbol
_atom_type_description
_atom_site_fract_x
_atom_site_fract_y
_atom_site_fract_z
_atom_type_partial_charge
O1    O     O_R   0.449830 0.506740 0.599960 -0.536193
O2    O     O_R   0.550170 0.006740 0.400040 -0.536176
O3    O     O_R   0.588980 0.179860 0.596720 -0.545782
O4    O     O_R   0.411020 0.679860 0.403280 -0.545727
C1    C     C_R   0.616136 0.342878 0.618986 0.734066
C2    C     C_R   0.383865 0.842874 0.381009 0.733933
O5    O     O_R   0.452740 0.177340 0.612040 -0.537566
O6    O     O_R   0.547260 0.677340 0.387960 -0.537577
O7    O     O_R   0.412960 0.002070 0.415460 -0.542767
O8    O     O_R   0.587040 0.502070 0.584540 -0.542757
C3    C     C_R   0.434289 0.344848 0.635732 0.685469
C4    C     C_R   0.565710 0.844846 0.364268 0.685423
O9    O     O_3   0.487110 0.337570 0.435490 -0.378166
O10   O     O_3   0.512890 0.837570 0.564510 -0.378207
V1    V     V_3+5 0.502390 0.064650 0.511970 1.385103
V2    V     V_3+5 0.497610 0.564650 0.488030 1.385172
C5    C     C_R   0.615427 0.805353 0.111778 -0.137186
C6    C     C_R   0.384571 0.305182 0.888213 -0.137192
H1    H     H_    0.697603 0.804967 0.989822 0.167477
H2    H     H_    0.302400 0.304837 0.010176 0.167497
H3    H     H_    0.591368 0.788032 0.031618 0.117872
H4    H     H_    0.408629 0.287776 0.968367 0.117864
C7    C     C_R   0.605789 0.847816 0.285787 -0.040018
C8    C     C_R   0.394212 0.347815 0.714217 -0.040040
C9    C     C_R   0.935011 0.864759 0.323909 0.075407
C10   C     C_R   0.064994 0.364749 0.676094 0.075445
C11   C     C_R   0.900199 0.834226 0.400214 -0.083213
C12   C     C_R   0.099806 0.334200 0.599790 -0.083164
C13   C     C_R   0.830194 0.804489 0.377400 0.179321
C14   C     C_R   0.169810 0.304447 0.622606 0.179465
C15   C     C_R   0.791479 0.830835 0.275456 -0.001447
C16   C     C_R   0.208523 0.330798 0.724550 -0.001472
C17   C     C_R   0.827838 0.848379 0.196331 -0.144996
C18   C     C_R   0.172165 0.348341 0.803675 -0.145014
C19   C     C_R   0.718565 0.834579 0.247151 0.089924
C20   C     C_R   0.281436 0.334534 0.752853 0.089912
C21   C     C_R   0.685724 0.817685 0.142903 -0.021255
C22   C     C_R   0.314276 0.317579 0.857095 -0.021260
C23   C     C_R   0.722694 0.819458 0.068779 -0.206053
C24   C     C_R   0.277307 0.319353 0.931222 -0.205992
C25   C     C_R   0.791520 0.848093 0.093604 0.650314
C26   C     C_R   0.208483 0.348025 0.906402 0.650315
C27   C     C_R   0.676665 0.862668 0.316618 -0.247324
C28   C     C_R   0.323335 0.362670 0.683390 -0.247260
C29   C     C_R   0.575320 0.815556 0.182203 0.180151
C30   C     C_R   0.424678 0.315454 0.817791 0.180139
C31   C     C_R   0.899590 0.861488 0.221126 -0.090063
C32   C     C_R   0.100414 0.361473 0.778879 -0.090061
H5    H     H_    0.697686 0.898447 0.394801 0.125580
H6    H     H_    0.302311 0.398462 0.605212 0.125544
H7    H     H_    0.928654 0.821936 0.478564 0.139135
H8    H     H_    0.071353 0.321903 0.521439 0.139138
C33   C     C_3   0.227684 0.698874 0.155428 -0.245648
C34   C     C_3   0.772306 0.198917 0.844585 -0.245540
H9    H     H_    0.196523 0.570608 0.145548 0.229090
H10   H     H_    0.803459 0.070641 0.854477 0.229169
H11   H     H_    0.235653 0.727485 0.077916 0.193020
H12   H     H_    0.764339 0.227588 0.922094 0.192950
C35   C     C_3   0.296675 0.669019 0.234102 0.340727
C36   C     C_3   0.703311 0.169059 0.765912 0.340671
C37   C     C_3   0.183956 0.838059 0.301390 0.399087
C38   C     C_3   0.816047 0.337923 0.698614 0.398918
C39   C     C_3   0.227585 0.038725 0.177427 0.442717
C40   C     C_3   0.772435 0.538757 0.822531 0.442680
C41   C     C_3   0.186971 0.859729 0.187330 -0.196559
C42   C     C_3   0.813031 0.359716 0.812665 -0.196500
H13   H     H_    0.201340 0.157537 0.203953 0.068025
H14   H     H_    0.798691 0.657517 0.795978 0.068037
C43   C     C_3   0.312644 0.844164 0.309449 -0.022153
C44   C     C_3   0.687357 0.344169 0.690546 -0.022209
C45   C     C_3   0.256247 0.859353 0.373355 -0.115836
C46   C     C_3   0.743756 0.359224 0.626635 -0.115652
C47   C     C_3   0.302094 0.026227 0.243852 -0.144444
C48   C     C_3   0.697926 0.526274 0.756112 -0.144437
H15   H     H_    0.308196 0.135279 0.302254 0.109710
H16   H     H_    0.691839 0.635295 0.697697 0.109673
H17   H     H_    0.150996 0.949358 0.320373 0.034542
H18   H     H_    0.849021 0.449163 0.679608 0.034584
H19   H     H_    0.257168 0.003669 0.402902 0.083864
H20   H     H_    0.742862 0.503516 0.597067 0.083923
O11   O     O_R   0.912980 0.203550 0.915410 -0.523275
O12   O     O_R   0.087020 0.703550 0.084590 -0.523315
O13   O     O_R   0.047270 0.535570 0.887960 -0.546560
O14   O     O_R   0.952730 0.035570 0.112040 -0.546548
C49   C     C_R   0.061824 0.368392 0.859457 0.823843
C50   C     C_R   0.938178 0.868396 0.140546 0.823851
O15   O     O_R   0.911030 0.532970 0.903270 -0.535130
O16   O     O_R   0.088970 0.032970 0.096730 -0.535156
O17   O     O_R   0.949820 0.708150 0.099970 -0.521568
O18   O     O_R   0.050180 0.208150 0.900030 -0.521559
C51   C     C_R   0.884236 0.365417 0.882106 0.759513
C52   C     C_R   0.115765 0.865422 0.117892 0.759511
O19   O     O_3   0.012900 0.375230 0.064480 -0.379680
O20   O     O_3   0.987100 0.875230 0.935520 -0.379646
V3    V     V_3+5 0.997610 0.648190 0.988040 1.582707
V4    V     V_3+5 0.002390 0.148190 0.011960 1.582717
C53   C     C_3   0.500594 0.794896 0.142636 -0.838422
H21   H     H_    0.489155 0.658389 0.104366 0.219702
H22   H     H_    0.474412 0.802597 0.205018 0.197692
H23   H     H_    0.481118 0.907240 0.087283 0.213076
C54   C     C_3   0.499400 0.294721 0.857346 -0.838489
H24   H     H_    0.510822 0.157993 0.895329 0.219747
H25   H     H_    0.525601 0.302954 0.795010 0.197653
H26   H     H_    0.518867 0.406700 0.912925 0.213094
C55   C     C_3   0.352203 0.631007 0.175055 -0.787602
H27   H     H_    0.336678 0.516731 0.120910 0.196745
H28   H     H_    0.360402 0.745192 0.126193 0.215199
H29   H     H_    0.400472 0.587810 0.226387 0.224065
C56   C     C_3   0.647783 0.131117 0.824964 -0.787691
H30   H     H_    0.663292 0.016826 0.879097 0.196771
H31   H     H_    0.639607 0.245318 0.873835 0.215206
H32   H     H_    0.599505 0.087987 0.773635 0.224076
C57   C     C_3   0.289402 0.485786 0.288713 -0.747442
H33   H     H_    0.245890 0.479814 0.324204 0.255212
H34   H     H_    0.277028 0.382340 0.227864 0.205983
H35   H     H_    0.335790 0.440459 0.343673 0.217036
C58   C     C_3   0.710562 0.985794 0.711304 -0.747380
H36   H     H_    0.753983 0.979910 0.675610 0.255386
H37   H     H_    0.723034 0.882386 0.772158 0.206053
H38   H     H_    0.664123 0.940351 0.656492 0.216990
F1    F     F_    0.153993 0.671022 0.316251 -0.704155
F2    F     F_    0.845998 0.170832 0.683813 -0.704236
C59   C     C_3   0.267983 0.747601 0.473670 -0.645927
H39   H     H_    0.220753 0.740845 0.501667 0.237110
H40   H     H_    0.286978 0.606164 0.468057 0.201376
H41   H     H_    0.306753 0.818340 0.533373 0.171726
C60   C     C_3   0.731989 0.247306 0.526357 -0.646931
H42   H     H_    0.779332 0.238999 0.498758 0.237813
H43   H     H_    0.712386 0.106512 0.531825 0.201176
H44   H     H_    0.693642 0.318820 0.466403 0.171832
F3    F     F_    0.226405 0.068453 0.075807 -0.662432
F4    F     F_    0.773617 0.568585 0.924144 -0.662394
C61   C     C_3   0.356851 0.077542 0.185625 -0.661929
H45   H     H_    0.344696 0.030417 0.105457 0.242838
H46   H     H_    0.362565 0.229342 0.183006 0.192346
H47   H     H_    0.407152 0.026642 0.225096 0.189484
C62   C     C_3   0.643176 0.577656 0.814341 -0.661847
H48   H     H_    0.655325 0.530543 0.894508 0.242821
H49   H     H_    0.637484 0.729457 0.816965 0.192364
H50   H     H_    0.592868 0.526809 0.774872 0.189443
C63   C     C_3   0.010716 0.888734 0.353011 -0.784201
H51   H     H_    0.030782 0.887693 0.436917 0.218759
H52   H     H_    0.034901 0.773749 0.320008 0.249388
H53   H     H_    0.024790 0.023012 0.323341 0.195450
C64   C     C_3   0.989290 0.388740 0.646990 -0.784327
H54   H     H_    0.969227 0.387702 0.563083 0.218758
H55   H     H_    0.965098 0.273764 0.679986 0.249333
H56   H     H_    0.975221 0.523023 0.676664 0.195476
C65   C     C_3   0.803037 0.714722 0.460879 -0.826378
H57   H     H_    0.841160 0.618405 0.506060 0.210254
H58   H     H_    0.791724 0.821552 0.513783 0.220774
H59   H     H_    0.758211 0.627225 0.429471 0.216957
C66   C     C_3   0.196966 0.214636 0.539137 -0.826501
H60   H     H_    0.158845 0.118272 0.493982 0.210208
H61   H     H_    0.208266 0.321432 0.486209 0.220749
H62   H     H_    0.241801 0.127181 0.570550 0.216967
F5    F     F_    0.821650 0.873665 0.014905 -0.686311
F6    F     F_    0.178355 0.373585 0.985105 -0.686347

loop_
_geom_bond_atom_site_label_1
_geom_bond_atom_site_label_2
_ccdc_geom_bond_type
C41   C52   S    
C14   C16   A    
C39   C41   S    
O4    V2    S    
C54   H24   S    
C7    C29   A    
O15   C51   A    
C11   C13   A    
C58   H36   S    
C55   H27   S    
O1    C3    A    
O2    C4    A    
C53   H23   S    
C2    O7    A    
C45   H19   S    
C64   H54   S    
C33   C35   S    
C7    C27   A    
C59   H39   S    
C23   C25   A    
C34   C36   S    
O5    C3    A    
C55   H28   S    
C4    C7    S    
C35   C55   S    
C48   H16   S    
C48   C62   S    
C40   H14   S    
C45   C59   S    
C19   C21   A    
C5    C29   A    
C56   H31   S    
H2    C24   S    
C59   H40   S    
C3    C8    S    
O12   C52   A    
C37   F1    S    
O14   V4    S    
C43   C45   S    
C36   C56   S    
C53   H22   S    
C14   C66   S    
C40   F4    S    
C37   H17   S    
C18   C26   A    
O15   V3    S    
C44   C48   S    
C61   H47   S    
C15   C17   A    
C58   H37   S    
C43   C47   S    
C39   F3    S    
C66   H61   S    
C19   C27   A    
C9    C31   A    
C2    C43   S    
C10   C32   A    
C57   H35   S    
C37   C45   S    
O6    V2    S    
C24   C26   A    
C54   H25   S    
C58   H38   S    
C13   C15   A    
C47   H15   S    
C26   F6    S    
C6    C30   A    
C30   C54   S    
C11   H7    S    
C53   H21   S    
C34   H10   S    
C33   H9    S    
C62   H50   S    
C39   H13   S    
C38   C42   S    
C46   C60   S    
C31   C50   S    
O16   C52   A    
O4    C2    A    
C56   H32   S    
O11   V4    S    
C33   H11   S    
C27   H5    S    
C59   H41   S    
O5    V1    S    
C39   C47   S    
C5    H3    S    
O16   V4    S    
C63   H52   S    
C40   C42   S    
O17   V3    S    
C10   C64   S    
C60   H43   S    
C1    C44   S    
C62   H49   S    
O10   V1    S    
C36   C44   S    
O6    C4    A    
O13   V3    S    
C38   C46   S    
C36   C58   S    
O1    V2    S    
C5    C21   A    
C55   H29   S    
C66   H62   S    
O20   V4    S    
O2    V1    S    
H1    C23   S    
C35   C43   S    
C25   F5    S    
C65   H59   S    
O13   C49   A    
C47   C61   S    
O19   V4    S    
C61   H45   S    
C17   C31   A    
C15   C19   A    
C63   H53   S    
C18   C32   A    
C60   H42   S    
C16   C20   A    
C38   F2    S    
C64   H56   S    
C33   C41   S    
C57   H33   S    
C34   H12   S    
C28   H6    S    
O12   V3    S    
C6    H4    S    
C38   H18   S    
C9    C63   S    
O14   C50   A    
C35   C57   S    
O3    C1    A    
C50   O17   A    
C44   C46   S    
C49   O18   A    
O18   V4    S    
C42   C51   S    
C34   C42   S    
C9    C11   A    
C62   H48   S    
C10   C12   A    
C8    C30   A    
C65   H58   S    
C6    C22   A    
C60   H44   S    
C17   C25   A    
C1    O8    A    
C21   C23   A    
C29   C53   S    
C65   H57   S    
C20   C22   A    
C22   C24   A    
C12   H8    S    
O19   V3    S    
C8    C28   A    
C64   H55   S    
C12   C14   A    
O7    V1    S    
O20   V3    S    
C20   C28   A    
C13   C65   S    
O11   C51   A    
C37   C41   S    
C46   H20   S    
O9    V2    S    
C56   H30   S    
C61   H46   S    
C40   C48   S    
C32   C49   S    
O3    V1    S    
O8    V2    S    
C54   H26   S    
C66   H60   S    
C63   H51   S    
C16   C18   A    
C57   H34   S    
