data_mof_unit_22607.cif
_audit_creation_date              2013-03-05T15:46:45-0500
_audit_creation_method            fapswitch 2.2
_symmetry_space_group_name_H-M    P1
_symmetry_Int_Tables_number       1
_space_group_crystal_system       triclinic
_cell_length_a                    10.25519
_cell_length_b                    10.829275
_cell_length_c                    12.498518
_cell_angle_alpha                 90.9796
_cell_angle_beta                  110.838549
_cell_angle_gamma                 94.803934
_cell_volume                      1291.04596613

loop_
_atom_site_label
_atom_site_type_symbol
_atom_site_description
_atom_site_fract_x
_atom_site_fract_y
_atom_site_fract_z
_atom_type_partial_charge
O1    O     O_R   0.936910 0.692950 0.509080 -0.580263
O2    O     O_R   0.138320 0.658600 0.480130 -0.560933
C1    C     C_R   0.051863 0.731820 0.494982 0.932517
O3    O     O_R   0.002900 0.525670 0.675280 -0.541142
O4    O     O_R   0.204310 0.491320 0.646330 -0.618716
C2    C     C_R   0.135482 0.510377 0.713974 0.909392
Zn1   Zn    Zn3+2 0.865520 0.522940 0.519330 1.126213
Zn2   Zn    Zn3+2 0.134480 0.477060 0.480670 1.140595
O5    O     O_R   0.861680 0.341400 0.519870 -0.610555
O6    O     O_R   0.063090 0.307050 0.490920 -0.561773
O7    O     O_R   0.795690 0.508680 0.353670 -0.585479
O8    O     O_R   0.997100 0.474330 0.324720 -0.555739
C3    C     C_R   0.954098 0.268489 0.513579 0.931535
C4    C     C_R   0.861946 0.476949 0.287108 0.950843
C5    C     C_R   0.735104 0.347881 0.975292 0.344271
H1    H     H_    0.513119 0.257503 0.781374 0.213688
C6    C     C_R   0.776299 0.431913 0.168931 -0.324068
C7    C     C_R   0.187928 0.606776 0.910005 0.313712
C8    C     C_R   0.277326 0.624421 0.025933 0.306675
C9    C     C_R   0.390604 0.552781 0.066917 -0.183674
C10   C     C_R   0.416457 0.462944 0.995985 0.101870
C11   C     C_R   0.323546 0.439808 0.882881 0.030077
C12   C     C_R   0.544158 0.408648 0.030214 0.010389
C13   C     C_R   0.590076 0.354974 0.948419 -0.035550
C14   C     C_R   0.488445 0.313333 0.842994 -0.010328
C15   C     C_R   0.352872 0.348243 0.814721 -0.086789
C16   C     C_R   0.631906 0.414521 0.142879 0.277938
C17   C     C_R   0.829968 0.397063 0.083515 0.207770
C18   C     C_R   0.211448 0.514595 0.838350 -0.215344
H2    H     H_    0.464197 0.573751 0.153274 0.227904
H3    H     H_    0.275253 0.311571 0.735155 0.193763
H4    H     H_    0.930798 0.897977 0.571566 0.217720
C19   C     C_2   0.087968 0.863339 0.504194 -0.223716
C20   C     C_2   0.017345 0.935626 0.547113 -0.175759
H5    H     H_    0.833894 0.095012 0.520654 0.173812
C21   C     C_2   0.938164 0.137486 0.531893 -0.371568
C22   C     C_2   0.046928 0.067963 0.553499 0.425591
H6    H     H_    0.172561 0.900250 0.477271 0.232390
H7    H     H_    0.578637 0.388818 0.466001 0.158861
N1    N     N_2   0.313640 0.446500 0.454900 -0.062563
C23   C     C_2   0.437109 0.498353 0.521736 0.331410
N2    N     N_2   0.686360 0.553430 0.545150 0.075956
C24   C     C_2   0.572581 0.477154 0.504934 0.032446
N3    N     N_R   0.977458 0.409641 0.105736 0.261280
O9    O     O_R   0.046274 0.518998 0.129119 -0.299182
O10   O     O_R   0.040017 0.314899 0.090302 -0.241878
N4    N     N_R   0.448842 0.566322 0.624858 0.235159
O11   O     O_R   0.541155 0.539515 0.721864 -0.358027
O12   O     O_R   0.396415 0.672275 0.618607 -0.297641
Cl1   Cl    Cl    0.674040 0.708026 0.575371 -0.343724
N5    N     N_R   0.303735 0.390008 0.351574 0.292018
O13   O     O_R   0.238327 0.279532 0.322675 -0.243807
O14   O     O_R   0.320716 0.458546 0.272294 -0.305865
Cl2   Cl    Cl    0.798585 0.297243 0.869308 -0.476537
Cl3   Cl    Cl    0.560379 0.349095 0.240815 -0.511252
Cl4   Cl    Cl    0.061550 0.712893 0.850649 -0.414919
N6    N     N_R   0.262630 0.721110 0.100852 0.264048
O15   O     O_R   0.140644 0.757613 0.088451 -0.230799
O16   O     O_R   0.370586 0.766649 0.188424 -0.325576
Cl5   Cl    Cl    0.224999 0.125200 0.583455 -0.566676

loop_
_geom_bond_atom_site_label_1
_geom_bond_atom_site_label_2
_geom_bond_distance
_ccdc_geom_bond_type
O4    Zn2   1.933724 S    
C12   C13   1.404556 A    
O6    C3    1.286465 A    
H4    C20   1.088136 S    
C11   C18   1.415406 A    
C12   C16   1.372037 A    
N1    N5    1.386214 S    
N4    O11   1.300727 A    
C7    Cl4   1.773465 S    
Zn2   O8    1.955050 S    
C9    C10   1.408430 A    
C8    C9    1.398192 A    
C19   C20   1.334964 D    
C23   N4    1.435220 S    
C15   H3    1.072670 S    
N4    O12   1.299304 A    
C7    C18   1.421338 A    
C9    H2    1.081428 S    
C10   C11   1.399501 A    
C13   C14   1.396322 A    
Zn1   O7    1.933724 S    
C23   C24   1.512041 S    
C4    C6    1.473617 S    
C5    C17   1.418470 A    
N2    Cl1   1.734705 S    
O3    Zn1   1.955050 S    
Zn2   O6    1.947059 S    
N1    C23   1.314804 D    
O8    C4    1.298595 A    
O2    C1    1.295808 A    
N6    O15   1.300853 A    
C10   C12   1.408102 A    
O4    C2    1.303298 A    
O7    C4    1.305128 A    
C16   Cl3   1.766293 S    
N6    O16   1.301861 A    
C22   Cl5   1.781918 S    
N2    C24   1.305194 D    
C1    C19   1.433381 S    
N5    O13   1.300061 A    
C20   C22   1.434664 S    
C5    Cl2   1.768539 S    
C2    C18   1.468168 S    
N3    O9    1.298982 A    
C3    C21   1.445887 S    
O3    C2    1.297153 A    
C7    C8    1.411564 A    
C11   C15   1.415194 A    
Zn1   N2    2.026999 S    
O2    Zn2   1.963215 S    
H1    C14   1.082157 S    
Zn1   O5    1.963217 S    
O5    C3    1.305416 A    
C21   C22   1.348021 D    
H7    C24   1.082256 S    
Zn2   N1    2.026878 S    
N5    O14   1.299740 A    
C14   C15   1.394217 A    
O1    Zn1   1.947057 S    
C6    C17   1.422713 A    
C5    C13   1.412572 A    
C17   N3    1.431365 S    
C8    N6    1.445407 S    
C19   H6    1.086185 S    
N3    O10   1.301150 A    
O1    C1    1.290415 A    
H5    C21   1.087781 S    
C6    C16   1.393683 A    
