data_mof_unit_51383.cif
_audit_creation_date              2012-12-10T17:34:54-0500
_audit_creation_method            fapswitch 2.2
_symmetry_space_group_name_H-M    P1
_symmetry_Int_Tables_number       1
_space_group_crystal_system       triclinic
_cell_length_a                    11.989217
_cell_length_b                    12.854342
_cell_length_c                    15.739797
_cell_angle_alpha                 90.015377
_cell_angle_beta                  86.743642
_cell_angle_gamma                 93.566966
_cell_volume                      2417.09393722

loop_
_atom_site_label
_atom_site_type_symbol
_atom_type_description
_atom_site_fract_x
_atom_site_fract_y
_atom_site_fract_z
_atom_type_partial_charge
C1    C     C_R   0.522321 0.700440 0.498889 0.913660
C2    C     C_R   0.536419 0.811787 0.494982 -0.111635
C3    C     C_R   0.640711 0.968235 0.443873 0.394163
C4    C     C_R   0.500578 0.499723 0.661681 0.901911
C5    C     C_R   0.632751 0.860743 0.455178 -0.267872
C6    C     C_R   0.448119 0.868474 0.525992 -0.238915
C7    C     C_R   0.453262 0.974694 0.515359 0.127429
C8    C     C_R   0.549696 0.025890 0.473969 0.040293
C9    C     C_R   0.552155 0.133134 0.465268 -0.159345
C10   C     C_R   0.367681 0.137184 0.537693 -0.129994
C11   C     C_R   0.362344 0.030012 0.545491 -0.134565
C12   C     C_3   0.385124 0.523375 0.053132 0.160580
C13   C     C_R   0.954195 0.419982 0.406240 0.281428
C14   C     C_R   0.837573 0.425843 0.418615 -0.044100
C15   C     C_R   0.858418 0.531839 0.540529 -0.040572
C16   C     C_R   0.477682 0.299611 0.499936 0.900383
C17   C     C_R   0.975718 0.528175 0.532050 0.034743
C18   C     C_R   0.024945 0.471074 0.464551 -0.047485
C19   C     C_R   0.143153 0.467712 0.458448 0.047715
C20   C     C_R   0.160744 0.575618 0.579778 0.044458
C21   C     C_R   0.044472 0.580897 0.589368 -0.257574
C22   C     C_R   0.499370 0.499474 0.338433 0.900628
C23   C     C_3   0.501358 0.490732 0.083320 -0.169189
C24   C     C_3   0.394191 0.538136 0.955341 -0.411880
C25   C     C_3   0.605670 0.552427 0.945441 -0.549904
C26   C     C_3   0.595111 0.569612 0.042496 0.316606
C27   C     C_1   0.498030 0.496200 0.249930 0.002736
C28   C     C_3   0.500430 0.488037 0.917101 -0.006608
C29   C     C_3   0.511968 0.375735 0.049390 0.094393
C30   C     C_3   0.507157 0.374100 0.950377 0.173504
C31   C     C_1   0.498964 0.493163 0.174725 0.188673
C32   C     C_1   0.501395 0.491702 0.825625 0.073720
C33   C     C_1   0.501498 0.495848 0.750406 -0.119502
C34   C     C_R   0.463770 0.188237 0.499490 -0.086134
H1    H     H_    0.317295 0.503991 0.927215 0.251076
H2    H     H_    0.321615 0.458163 0.067721 0.171714
H3    H     H_    0.762281 0.315025 0.984045 0.361134
H4    H     H_    0.623445 0.175441 0.433712 0.216957
H5    H     H_    0.889801 0.920629 0.418200 0.356585
H6    H     H_    0.699740 0.814514 0.430590 0.203942
H7    H     H_    0.400073 0.622617 0.938889 0.223739
H8    H     H_    0.867635 0.247179 0.284634 0.410238
H9    H     H_    0.008628 0.625589 0.641315 0.159385
H10   H     H_    0.782110 0.387693 0.374859 0.186068
H11   H     H_    0.819643 0.576153 0.591414 0.142375
H12   H     H_    0.298906 0.180177 0.563948 0.181851
H13   H     H_    0.681464 0.510378 0.926793 0.239431
H14   H     H_    0.615246 0.629540 0.912594 0.205375
H15   H     H_    0.813508 0.523523 0.195938 0.409390
H16   H     H_    0.259140 0.275589 0.012602 0.382463
H17   H     H_    0.585684 0.344266 0.921469 0.132498
H18   H     H_    0.288403 0.990615 0.576492 0.154423
H19   H     H_    0.374171 0.829521 0.557607 0.164963
H20   H     H_    0.184845 0.423497 0.409196 0.194816
H21   H     H_    0.213650 0.615889 0.624268 0.139040
H22   H     H_    0.563829 0.648283 0.050087 0.178611
H23   H     H_    0.438175 0.328555 0.077699 0.135416
H24   H     H_    0.247154 0.661894 0.230701 0.401397
N1    N     N_R   0.207800 0.519340 0.515510 -0.123343
N2    N     N_R   0.792190 0.480660 0.484490 -0.125796
O1    O     O_R   0.421690 0.658830 0.504140 -0.623640
O2    O     O_2   0.223323 0.660611 0.059756 -0.207536
O3    O     O_3   0.281949 0.599738 0.206472 -0.524007
O4    O     O_2   0.633417 0.308944 0.178059 -0.206599
O5    O     O_2   0.610973 0.193873 0.056979 -0.213856
O6    O     O_3   0.750855 0.354785 0.037397 -0.432171
O7    O     O_2   0.730573 0.076072 0.309183 -0.214822
O8    O     O_2   0.817172 0.108013 0.444574 -0.322791
O9    O     O_3   0.855541 0.936176 0.364183 -0.473470
O10   O     O_2   0.088850 0.422604 0.264578 -0.224574
O11   O     O_2   0.067192 0.259837 0.345873 -0.263454
O12   O     O_R   0.609320 0.646410 0.494190 -0.623916
O13   O     O_3   0.903751 0.309384 0.254931 -0.441813
O14   O     O_2   0.823794 0.569099 0.025997 -0.213331
O15   O     O_2   0.742610 0.695074 0.123239 -0.240763
O16   O     O_3   0.739755 0.504030 0.173188 -0.462367
O17   O     O_2   0.395347 0.281382 0.821577 -0.253556
O18   O     O_2   0.419377 0.175343 0.946530 -0.215803
O19   O     O_3   0.270271 0.313342 0.957634 -0.528878
O20   O     O_R   0.406150 0.506210 0.627840 -0.613383
O21   O     O_R   0.593770 0.493790 0.617880 -0.618015
O22   O     O_R   0.390680 0.353590 0.505810 -0.616768
O23   O     O_R   0.578310 0.341170 0.495860 -0.614646
O24   O     O_R   0.406230 0.506210 0.382120 -0.603841
O25   O     O_R   0.593850 0.493790 0.372160 -0.602326
O26   O     O_2   0.404779 0.727479 0.107163 -0.271376
S1    S     S_3+6 0.324011 0.633423 0.105929 0.057502
S2    S     S_3+6 0.628431 0.306016 0.082926 0.122160
S3    S     S_3+6 0.762977 0.025914 0.389641 0.052187
S4    S     S_3+6 0.007316 0.351537 0.316592 0.074216
S5    S     S_3+6 0.729420 0.585241 0.090770 0.110842
S6    S     S_3+6 0.396867 0.282844 0.916952 0.053121
Zn1   Zn    Zn3+2 0.374720 0.508290 0.506640 0.991791
Zn2   Zn    Zn3+2 0.625280 0.491710 0.493360 0.990384

loop_
_geom_bond_atom_site_label_1
_geom_bond_atom_site_label_2
_ccdc_geom_bond_type
C30   H17   S    
O17   S6    D    
C13   S4    S    
C15   N2    A    
H16   O19   S    
C7    C8    A    
C2    C6    A    
C25   C28   S    
C7    C11   A    
C12   C23   S    
C13   C18   A    
C23   C29   S    
O13   S4    S    
C4    O20   A    
O6    S2    S    
O1    Zn1   S    
C22   O25   A    
O7    S3    D    
C1    C2    S    
C23   C26   S    
C29   S2    S    
C11   H18   S    
C16   C34   S    
C21   H9    S    
C4    O21   A    
C8    C9    A    
C10   H12   S    
C12   H2    S    
C25   H13   S    
O15   S5    D    
O12   Zn2   S    
O22   Zn1   S    
C13   C14   A    
C24   H7    S    
O10   S4    D    
C20   H21   S    
O9    S3    S    
O8    S3    D    
C1    O12   A    
C27   C31   T    
C24   H1    S    
C28   C32   S    
C30   S6    S    
C3    C8    A    
O26   S1    D    
C18   C19   A    
C19   N1    A    
C25   C26   S    
O23   Zn2   S    
C16   O23   A    
C17   C21   A    
C26   H22   S    
C23   C31   S    
O14   S5    D    
C29   C30   S    
O25   Zn2   S    
H3    O6    S    
C16   O22   A    
C17   C18   A    
H5    O9    S    
H15   O16   S    
C10   C34   A    
C20   N1    A    
C25   H14   S    
O19   S6    S    
C19   H20   S    
C29   H23   S    
C22   C27   S    
C9    C34   A    
C2    C5    A    
C15   H11   S    
C6    H19   S    
O5    S2    D    
C14   H10   S    
H24   O3    S    
C15   C17   A    
C4    C33   S    
H8    O13   S    
C12   S1    S    
O3    S1    S    
C24   C28   S    
C3    C5    A    
C1    O1    A    
C6    C7    A    
C14   N2    A    
O2    S1    D    
C12   C24   S    
C3    S3    S    
O18   S6    D    
C32   C33   T    
C28   C30   S    
C26   S5    S    
O21   Zn2   S    
O11   S4    D    
C9    H4    S    
O24   Zn1   S    
C10   C11   A    
O16   S5    S    
C20   C21   A    
C5    H6    S    
N1    Zn1   S    
O20   Zn1   S    
O4    S2    D    
C22   O24   A    
N2    Zn2   S    
