data_mof_unit_38571.cif
_audit_creation_date              2012-12-11T16:22:52-0500
_audit_creation_method            fapswitch 2.2
_symmetry_space_group_name_H-M    P1
_symmetry_Int_Tables_number       1
_space_group_crystal_system       triclinic
_cell_length_a                    16.877525
_cell_length_b                    16.912218
_cell_length_c                    19.453176
_cell_angle_alpha                 118.00803
_cell_angle_beta                  62.287637
_cell_angle_gamma                 100.587125
_cell_volume                      4335.73251182

loop_
_atom_site_label
_atom_site_type_symbol
_atom_type_description
_atom_site_fract_x
_atom_site_fract_y
_atom_site_fract_z
_atom_type_partial_charge
C1    C     C_R   0.028464 0.759683 0.024590 -0.156726
C2    C     C_R   0.235821 0.578203 0.833919 -0.056903
C3    C     C_R   0.194263 0.437300 0.036773 -0.132877
C4    C     C_R   0.748829 0.476023 0.172346 -0.126594
C5    C     C_R   0.042423 0.327729 0.750965 -0.127747
C6    C     C_R   0.275801 0.447679 0.975994 0.030687
C7    C     C_R   0.032531 0.241642 0.743981 0.034138
C8    C     C_R   0.234853 0.551892 0.754810 -0.038811
C9    C     C_R   0.988477 0.233892 0.043505 0.047613
C10   C     C_R   0.061526 0.861833 0.458198 -0.166545
C11   C     C_R   0.036986 0.801813 0.393429 -0.171110
C12   C     C_R   0.741532 0.535043 0.254613 0.034866
C13   C     C_R   0.084673 0.795205 0.309554 0.146047
C14   C     C_R   0.162078 0.843845 0.289516 -0.164546
C15   C     C_R   0.187024 0.903887 0.354542 -0.181762
C16   C     C_R   0.817071 0.502696 0.908871 -0.132332
C17   C     C_R   0.134022 0.916663 0.440265 0.116239
C18   C     C_R   0.140948 0.081023 0.508548 -0.164723
C19   C     C_R   0.110687 0.160435 0.583872 -0.168350
C20   C     C_R   0.077132 0.160149 0.664633 0.145144
C21   C     C_R   0.083614 0.080812 0.668319 -0.164468
C22   C     C_R   0.114359 0.001046 0.592560 -0.182686
C23   C     C_R   0.742804 0.454302 0.933235 0.057376
C24   C     C_R   0.137716 0.999877 0.512727 0.116915
C25   C     C_R   0.496423 0.598583 0.398607 -0.185491
C26   C     C_R   0.578041 0.574121 0.325184 -0.163730
C27   C     C_R   0.658023 0.578447 0.332393 0.142667
C28   C     C_R   0.007448 0.660411 0.241904 -0.145228
C29   C     C_R   0.655877 0.618588 0.414946 -0.171625
C30   C     C_R   0.574194 0.643795 0.488413 -0.156095
C31   C     C_R   0.494015 0.628488 0.479971 0.113834
C32   C     C_R   0.383074 0.685885 0.635080 -0.186097
C33   C     C_R   0.320890 0.666363 0.702929 -0.095084
C34   C     C_R   0.052039 0.737902 0.244543 0.016586
C35   C     C_R   0.291534 0.578716 0.685657 0.154938
C36   C     C_R   0.316154 0.514138 0.599938 -0.175810
C37   C     C_R   0.376075 0.534143 0.532346 -0.171524
C38   C     C_R   0.412832 0.618861 0.549637 0.106708
C39   C     C_R   0.675884 0.425193 0.898802 0.130521
C40   C     C_R   0.750076 0.429800 0.988300 -0.136844
C41   C     C_R   0.362095 0.402957 0.941066 0.132994
C42   C     C_R   0.453689 0.329112 0.961593 -0.228304
C43   C     C_R   0.369932 0.348433 0.974444 -0.166090
C44   C     C_R   0.439565 0.425081 0.883096 -0.275232
C45   C     C_R   0.261360 0.513078 0.958528 -0.079937
C46   C     C_R   0.522833 0.411383 0.874800 0.183984
C47   C     C_R   0.529181 0.366844 0.917963 0.188956
C48   C     C_R   0.607280 0.370906 0.926502 -0.279176
C49   C     C_R   0.673007 0.460821 0.847576 -0.178577
C50   C     C_R   0.597307 0.452232 0.834091 -0.215210
C51   C     C_R   0.759835 0.158127 0.197547 0.095511
C52   C     C_R   0.074939 0.738655 0.166510 -0.102365
C53   C     C_R   0.942243 0.865328 0.021821 0.154776
C54   C     C_R   0.911235 0.977182 0.991324 -0.234496
C55   C     C_R   0.953799 0.896614 0.962616 -0.173773
C56   C     C_R   0.975357 0.248430 0.826299 -0.124047
C57   C     C_R   0.891847 0.918069 0.110706 -0.284262
C58   C     C_R   0.849287 0.999118 0.140173 0.181326
C59   C     C_R   0.857656 0.028129 0.079787 0.187360
C60   C     C_R   0.811746 0.107276 0.109170 -0.263027
C61   C     C_R   0.752811 0.130330 0.257266 -0.160813
C62   C     C_R   0.796980 0.050891 0.228879 -0.221033
C63   C     C_R   0.827931 0.545704 0.248758 -0.127584
C64   C     C_R   0.955890 0.692307 0.941990 0.237904
C65   C     C_R   0.978061 0.776164 0.992987 -0.031165
C66   C     C_2   0.290390 0.648045 0.870773 0.918980
C67   C     C_R   0.158221 0.505344 0.757790 -0.169397
C68   C     C_3   0.925409 0.675214 0.875220 -0.391378
C69   C     C_3   0.826512 0.702666 0.916141 -0.880173
C70   C     C_R   0.026820 0.314637 0.075908 -0.124058
C71   C     C_R   0.949806 0.246457 0.999893 -0.131394
H1    H     H_    0.058831 0.808893 0.064615 0.130729
H2    H     H_    0.201769 0.837643 0.224553 0.115075
H3    H     H_    0.695344 0.452451 0.152817 0.093521
H4    H     H_    0.243893 0.944811 0.339138 0.116339
H5    H     H_    0.157708 0.082337 0.448184 0.114918
H6    H     H_    0.107554 0.220440 0.578463 0.106378
H7    H     H_    0.061322 0.079384 0.729631 0.110610
H8    H     H_    0.112890 0.939257 0.597000 0.114246
H9    H     H_    0.434872 0.586888 0.391295 0.118712
H10   H     H_    0.577436 0.547009 0.262838 0.112359
H11   H     H_    0.716172 0.624325 0.423079 0.109013
H12   H     H_    0.952360 0.193916 0.843937 0.090374
H13   H     H_    0.573433 0.666181 0.550848 0.128197
H14   H     H_    0.410607 0.751745 0.649196 0.122046
H15   H     H_    0.841068 0.514011 0.852786 0.107434
H16   H     H_    0.297817 0.718965 0.768500 0.120972
H17   H     H_    0.292518 0.446703 0.585326 0.119667
H18   H     H_    0.399085 0.481154 0.466791 0.121817
H19   H     H_    0.609377 0.340073 0.963343 0.116056
H20   H     H_    0.725726 0.501013 0.823126 0.119824
H21   H     H_    0.458007 0.292860 0.993296 0.127169
H22   H     H_    0.593731 0.485493 0.799596 0.137862
H23   H     H_    0.128794 0.489311 0.714072 0.100311
H24   H     H_    0.311687 0.326275 0.015862 0.115702
H25   H     H_    0.435367 0.462504 0.852521 0.129569
H26   H     H_    0.815186 0.129474 0.064080 0.119033
H27   H     H_    0.993954 0.630631 0.284591 0.093610
H28   H     H_    0.712461 0.170185 0.325598 0.124743
H29   H     H_    0.919697 0.999338 0.944401 0.127186
H30   H     H_    0.789976 0.029792 0.276038 0.130522
H31   H     H_    0.995310 0.858845 0.894234 0.119532
H32   H     H_    0.883439 0.894417 0.156667 0.132291
H33   H     H_    0.712690 0.379958 0.009358 0.086795
H34   H     H_    0.052694 0.332554 0.122536 0.091156
H35   H     H_    0.121234 0.782362 0.141369 0.116418
H36   H     H_    0.847443 0.588146 0.299957 0.093673
H37   H     H_    0.310187 0.537662 0.914155 0.102503
H38   H     H_    0.297255 0.748740 0.977761 0.315878
H39   H     H_    0.816904 0.776735 0.949274 0.265966
H40   H     H_    0.784733 0.676652 0.964397 0.263673
H41   H     H_    0.802984 0.675929 0.864956 0.243853
H42   H     H_    0.966236 0.712885 0.837494 0.177637
H43   H     H_    0.940209 0.604305 0.826781 0.170719
H44   H     H_    0.905249 0.201096 0.975083 0.081501
H45   H     H_    0.180789 0.393258 0.066335 0.093761
H46   H     H_    0.083167 0.348000 0.700357 0.093515
H47   H     H_    0.018393 0.871048 0.523769 0.116034
H48   H     H_    0.977229 0.764731 0.410500 0.110090
N1    N     N_R   0.034930 0.670790 0.995440 -0.043094
N2    N     N_R   0.867000 0.509260 0.948460 -0.040020
N3    N     N_R   0.003780 0.616410 0.165900 -0.041634
N4    N     N_R   0.825670 0.461520 0.995440 -0.039543
N5    N     N_R   0.045120 0.664150 0.118920 -0.029358
N6    N     N_R   0.884940 0.497570 0.165910 -0.040369
N7    N     N_R   0.985840 0.628110 0.948460 -0.074087
N8    N     N_R   0.174330 0.538480 0.004560 -0.027824
N9    N     N_R   0.954880 0.335850 0.881080 -0.037990
N10   N     N_R   0.115060 0.502430 0.834090 -0.045002
N11   N     N_R   0.014160 0.371890 0.051540 -0.041191
N12   N     N_R   0.965070 0.329210 0.004560 -0.038235
N13   N     N_R   0.164150 0.545120 0.881070 -0.055904
N14   N     N_R   0.133000 0.490740 0.051540 -0.043815
N15   N     N_R   0.996220 0.383590 0.834100 -0.039947
N16   N     N_R   0.835850 0.454880 0.118930 -0.039761
Ni1   Ni    Ni4+2 0.103690 0.603690 0.000000 0.257943
Ni2   Ni    Ni4+2 0.896310 0.396310 0.000000 0.208038
Ni3   Ni    Ni4+2 0.991110 0.505800 0.892250 0.197858
Ni4   Ni    Ni4+2 0.008890 0.494200 0.107750 0.211942
O1    O     O_2   0.368464 0.654499 0.824549 -0.653949
O2    O     O_R   0.253273 0.704491 0.959585 -0.823920

loop_
_geom_bond_atom_site_label_1
_geom_bond_atom_site_label_2
_ccdc_geom_bond_type
C25   C31   A    
C15   H4    S    
C58   C62   A    
C6    C45   A    
C27   C29   A    
C25   H9    S    
C69   H40   S    
C35   C36   A    
C51   C61   A    
C16   N2    A    
C3    C6    A    
C11   H48   S    
C49   C50   A    
C66   O2    S    
C61   H28   S    
C36   H17   S    
C55   H31   S    
C26   C27   A    
C29   C30   A    
C18   C24   A    
C64   C68   S    
C36   C37   A    
C22   H8    S    
C3    H45   S    
C30   C31   A    
C69   H41   S    
N1    N7    A    
C11   C13   A    
C10   C17   A    
C23   C40   A    
C70   N11   A    
N16   Ni2   S    
C18   C19   A    
C19   H6    S    
C54   C55   A    
N10   Ni3   S    
C19   C20   A    
C68   C69   S    
C6    C41   S    
C21   H7    S    
C67   H23   S    
C1    C65   A    
C43   H24   S    
C32   C38   A    
C4    C12   A    
C53   C65   S    
C4    H3    S    
C45   H37   S    
C68   H42   S    
N10   N13   A    
N6    N16   A    
C28   C34   A    
C59   C60   A    
C48   H19   S    
C21   C22   A    
C16   H15   S    
C41   C43   A    
C54   H29   S    
C67   N10   A    
C7    C56   A    
C49   H20   S    
N11   Ni4   S    
C44   C46   A    
C54   C59   A    
C53   C55   A    
C5    N15   A    
C57   H32   S    
C1    H1    S    
N5    Ni1   S    
C12   C27   S    
C17   C24   S    
C14   H2    S    
C9    C71   A    
N8    Ni1   S    
C60   H26   S    
C5    C7    A    
C12   C63   A    
C53   C57   A    
C25   C26   A    
C71   N12   A    
N6    Ni4   S    
C5    H46   S    
N1    Ni1   S    
C1    N1    A    
N2    Ni3   S    
N9    Ni2   S    
N15   Ni3   S    
C37   C38   A    
C10   H47   S    
N9    N15   A    
C40   H33   S    
C69   H39   S    
C2    N13   A    
C47   C48   A    
N13   Ni1   S    
C71   H44   S    
C9    C70   A    
C63   N6    A    
C4    N16   A    
C39   C49   A    
N14   Ni4   S    
C16   C23   A    
C64   N7    A    
C41   C44   A    
C22   C24   A    
C58   C59   A    
C42   C43   A    
N3    N5    A    
C56   H12   S    
C28   N3    A    
C28   H27   S    
C15   C17   A    
C40   N4    A    
N4    Ni2   S    
C46   C47   A    
N7    Ni3   S    
C18   H5    S    
C44   H25   S    
C2    C8    A    
N8    N14   A    
C2    C66   S    
C70   H34   S    
N3    Ni4   S    
C50   H22   S    
C26   H10   S    
C46   C50   A    
C34   C52   A    
C31   C38   S    
C37   H18   S    
C64   C65   A    
C62   H30   S    
N11   N12   A    
C33   H16   S    
C13   C34   S    
C32   C33   A    
C52   N5    A    
C57   C58   A    
C45   N8    A    
C23   C39   S    
C32   H14   S    
C33   C35   A    
C42   H21   S    
C42   C47   A    
C56   N9    A    
C30   H13   S    
C61   C62   A    
N2    N4    A    
C10   C11   A    
C52   H35   S    
C29   H11   S    
C66   O1    D    
C20   C21   A    
C8    C67   A    
C7    C20   S    
C14   C15   A    
C39   C48   A    
H38   O2    S    
C51   C60   A    
C3    N14   A    
C13   C14   A    
C63   H36   S    
C8    C35   S    
C68   H43   S    
N12   Ni2   S    
