data_mof_unit_14710.cif
_audit_creation_date              2012-12-10T19:09:26-0500
_audit_creation_method            fapswitch 2.2
_symmetry_space_group_name_H-M    P1
_symmetry_Int_Tables_number       1
_space_group_crystal_system       triclinic
_cell_length_a                    15.160869
_cell_length_b                    15.013577
_cell_length_c                    9.681723
_cell_angle_alpha                 90.269731
_cell_angle_beta                  89.999946
_cell_angle_gamma                 89.999974
_cell_volume                      2203.71846873

loop_
_atom_site_label
_atom_site_type_symbol
_atom_type_description
_atom_site_fract_x
_atom_site_fract_y
_atom_site_fract_z
_atom_type_partial_charge
C1    C     C_R   0.120392 0.377880 0.499523 0.870228
C2    C     C_R   0.120394 0.622118 0.500477 0.870235
C3    C     C_R   0.620625 0.878163 0.499415 0.868140
C4    C     C_R   0.620625 0.121837 0.500585 0.868145
C5    C     C_3   0.907668 0.499926 0.081416 -0.236234
C6    C     C_3   0.907667 0.500203 0.918584 -0.236222
C7    C     C_3   0.452849 0.079360 0.081897 -0.239697
C8    C     C_3   0.453854 0.079931 0.919261 -0.235146
C9    C     C_R   0.878468 0.379068 0.500257 0.860867
C10   C     C_R   0.878468 0.620932 0.499743 0.860874
C11   C     C_R   0.378629 0.878947 0.500117 0.862079
C12   C     C_R   0.378628 0.121052 0.499883 0.862083
C13   C     C_3   0.782176 0.291738 0.653153 -0.448145
C14   C     C_3   0.846708 0.224944 0.434730 -0.474398
C15   C     C_3   0.782177 0.708263 0.346846 -0.448155
C16   C     C_3   0.846708 0.775056 0.565272 -0.474396
C17   C     C_3   0.282751 0.791483 0.652306 -0.450019
C18   C     C_3   0.346636 0.724933 0.433616 -0.475143
C19   C     C_3   0.282745 0.208511 0.347697 -0.450034
C20   C     C_3   0.346634 0.275067 0.566377 -0.475152
C21   C     C_3   0.215163 0.716683 0.654509 0.081239
C22   C     C_3   0.274212 0.652542 0.430715 0.041847
C23   C     C_3   0.215157 0.283310 0.345492 0.081228
C24   C     C_3   0.274209 0.347456 0.569281 0.041847
C25   C     C_3   0.715852 0.215614 0.655332 0.080332
C26   C     C_3   0.774289 0.152607 0.430671 0.041897
C27   C     C_3   0.715854 0.784388 0.344668 0.080310
C28   C     C_3   0.774288 0.847391 0.569335 0.041905
C29   C     C_3   0.729116 0.344686 0.420327 -0.418084
C30   C     C_3   0.729114 0.655312 0.579669 -0.418082
C31   C     C_3   0.229217 0.844936 0.419928 -0.415635
C32   C     C_3   0.229218 0.155064 0.580082 -0.415632
C33   C     C_3   0.810342 0.311213 0.501920 0.127957
C34   C     C_3   0.810342 0.688787 0.498080 0.127968
C35   C     C_3   0.310516 0.811164 0.501241 0.128420
C36   C     C_3   0.310514 0.188834 0.498760 0.128422
C37   C     C_3   0.188486 0.690501 0.501412 0.085483
C38   C     C_3   0.188483 0.309496 0.498589 0.085492
C39   C     C_3   0.688683 0.190153 0.502079 0.085252
C40   C     C_3   0.688683 0.809846 0.497921 0.085254
C41   C     C_3   0.157158 0.773340 0.418395 -0.410290
C42   C     C_3   0.157156 0.226658 0.581611 -0.410297
C43   C     C_3   0.656835 0.273352 0.420405 -0.412138
C44   C     C_3   0.656833 0.726646 0.579592 -0.412139
C45   C     C_3   0.044236 0.420622 0.080588 -0.228400
C46   C     C_3   0.043887 0.420289 0.918139 -0.254590
C47   C     C_3   0.044345 0.579315 0.919411 -0.228444
C48   C     C_3   0.043999 0.579644 0.081860 -0.254636
C49   C     C_3   0.453756 0.920126 0.080739 -0.235100
C50   C     C_3   0.452750 0.920698 0.918104 -0.239675
C51   C     C_3   0.589725 0.999101 0.918739 -0.243012
C52   C     C_3   0.589726 0.000786 0.081259 -0.243067
H1    H     H_    0.754244 0.353028 0.701122 0.185027
H2    H     H_    0.870965 0.239516 0.328695 0.189818
H3    H     H_    0.754244 0.646972 0.298876 0.185022
H4    H     H_    0.870968 0.760483 0.671308 0.189813
H5    H     H_    0.256088 0.853036 0.701340 0.186479
H6    H     H_    0.370224 0.739547 0.327219 0.188138
H7    H     H_    0.256079 0.146956 0.298671 0.186483
H8    H     H_    0.370226 0.260456 0.672773 0.188138
H9    H     H_    0.840405 0.272335 0.716601 0.148585
H10   H     H_    0.903831 0.200046 0.495633 0.134603
H11   H     H_    0.840407 0.727666 0.283398 0.148584
H12   H     H_    0.903831 0.799956 0.504368 0.134602
H13   H     H_    0.340992 0.770800 0.714761 0.146130
H14   H     H_    0.404203 0.700095 0.493558 0.134933
H15   H     H_    0.340983 0.229191 0.285235 0.146132
H16   H     H_    0.404199 0.299904 0.506428 0.134936
H17   H     H_    0.249651 0.657382 0.697630 0.086011
H18   H     H_    0.297301 0.594980 0.493299 0.111121
H19   H     H_    0.249644 0.342610 0.302366 0.086025
H20   H     H_    0.297296 0.405019 0.506696 0.111120
H21   H     H_    0.751798 0.156674 0.696681 0.084230
H22   H     H_    0.797385 0.094571 0.492289 0.111198
H23   H     H_    0.751801 0.843328 0.303324 0.084239
H24   H     H_    0.797383 0.905430 0.507723 0.111197
H25   H     H_    0.703313 0.407232 0.467579 0.150690
H26   H     H_    0.747699 0.359939 0.311711 0.170266
H27   H     H_    0.703311 0.592767 0.532413 0.150691
H28   H     H_    0.747696 0.640056 0.688287 0.170259
H29   H     H_    0.203153 0.907044 0.468186 0.150942
H30   H     H_    0.247853 0.861070 0.311648 0.169651
H31   H     H_    0.203154 0.092953 0.531832 0.150943
H32   H     H_    0.247857 0.138935 0.688361 0.169654
H33   H     H_    0.094608 0.801487 0.456994 0.164914
H34   H     H_    0.141811 0.754961 0.309791 0.159352
H35   H     H_    0.094608 0.198508 0.543016 0.164915
H36   H     H_    0.141810 0.245040 0.690214 0.159350
H37   H     H_    0.594970 0.301687 0.461457 0.165333
H38   H     H_    0.640194 0.255312 0.312105 0.161259
H39   H     H_    0.594969 0.698312 0.538539 0.165328
H40   H     H_    0.640191 0.744685 0.687892 0.161261
H41   H     H_    0.011879 0.359120 0.119178 0.167467
H42   H     H_    0.011224 0.358754 0.879115 0.139181
H43   H     H_    0.012064 0.640861 0.880835 0.167527
H44   H     H_    0.011427 0.641225 0.120888 0.139198
H45   H     H_    0.384744 0.917188 0.119402 0.140470
H46   H     H_    0.383213 0.919614 0.881514 0.143616
H47   H     H_    0.627509 0.057068 0.879219 0.163331
H48   H     H_    0.625069 0.061243 0.117847 0.167378
H49   H     H_    0.113668 0.419435 0.117449 0.161891
H50   H     H_    0.113063 0.417961 0.880452 0.167543
H51   H     H_    0.113779 0.580415 0.882537 0.161868
H52   H     H_    0.113177 0.581868 0.119542 0.167599
H53   H     H_    0.487021 0.858779 0.118090 0.163908
H54   H     H_    0.484185 0.858854 0.877790 0.138731
H55   H     H_    0.624994 0.938598 0.882154 0.167350
H56   H     H_    0.627439 0.942772 0.120774 0.163354
H57   H     H_    0.871191 0.440523 0.119028 0.140466
H58   H     H_    0.870891 0.441103 0.879723 0.143028
H59   H     H_    0.871272 0.559662 0.880978 0.140474
H60   H     H_    0.870979 0.559079 0.120273 0.143049
H61   H     H_    0.383313 0.080532 0.118485 0.143630
H62   H     H_    0.384845 0.082956 0.880602 0.140487
H63   H     H_    0.487194 0.141236 0.881909 0.163968
H64   H     H_    0.484360 0.141163 0.122211 0.138736
N1    N     N_3   0.998760 0.500000 0.138610 -0.029008
N2    N     N_3   0.998760 0.500000 0.861390 -0.028990
N3    N     N_3   0.498760 1.000000 0.138610 -0.028077
N4    N     N_3   0.498760 0.000000 0.861390 -0.028084
O1    O     O_R   0.092530 0.407440 0.616040 -0.615887
O2    O     O_R   0.092530 0.407440 0.383960 -0.606600
O3    O     O_R   0.092530 0.592560 0.383960 -0.615891
O4    O     O_R   0.092530 0.592560 0.616040 -0.606599
O5    O     O_R   0.592530 0.907440 0.616040 -0.615885
O6    O     O_R   0.592530 0.907440 0.383960 -0.604145
O7    O     O_R   0.592530 0.092560 0.383960 -0.615884
O8    O     O_R   0.592530 0.092560 0.616040 -0.604146
O9    O     O_R   0.907330 0.407420 0.616040 -0.639636
O10   O     O_R   0.907330 0.407420 0.383960 -0.634871
O11   O     O_R   0.907330 0.592580 0.383960 -0.639640
O12   O     O_R   0.907330 0.592580 0.616040 -0.634874
O13   O     O_R   0.407330 0.907420 0.616040 -0.640577
O14   O     O_R   0.407330 0.907420 0.383960 -0.636302
O15   O     O_R   0.407330 0.092580 0.383960 -0.640576
O16   O     O_R   0.407330 0.092580 0.616040 -0.636300
Zn1   Zn    Zn3+2 0.999890 0.500000 0.654960 0.910378
Zn2   Zn    Zn3+2 0.999890 0.500000 0.345040 0.910372
Zn3   Zn    Zn3+2 0.499890 0.000000 0.654960 0.910195
Zn4   Zn    Zn3+2 0.499890 0.000000 0.345040 0.910197
N5    N     N_2   0.144262 0.736154 0.752843 -0.284726
H65   H     H_    0.166328 0.740121 0.853574 0.203188
C53   C     C_3   0.076394 0.800772 0.722358 -0.813254
H66   H     H_    0.039755 0.817589 0.818370 0.212944
H67   H     H_    0.028107 0.770993 0.650320 0.241027
H68   H     H_    0.104782 0.863163 0.680574 0.237576
N6    N     N_2   0.258715 0.621771 0.289336 -0.274557
H69   H     H_    0.247050 0.671318 0.218270 0.225150
C54   C     C_3   0.318741 0.554500 0.237638 -0.851632
H70   H     H_    0.296948 0.532259 0.133536 0.227399
H71   H     H_    0.318888 0.495723 0.306542 0.233132
H72   H     H_    0.386591 0.581963 0.229870 0.242050
N7    N     N_2   0.144255 0.263836 0.247161 -0.284729
H73   H     H_    0.166321 0.259857 0.146433 0.203188
C55   C     C_3   0.076383 0.199226 0.277657 -0.813262
H74   H     H_    0.039738 0.182414 0.181651 0.212950
H75   H     H_    0.028103 0.229011 0.349700 0.241028
H76   H     H_    0.104766 0.136833 0.319439 0.237576
N8    N     N_2   0.258713 0.378227 0.710662 -0.274542
H77   H     H_    0.247052 0.328680 0.781728 0.225146
C56   C     C_3   0.318734 0.445502 0.762357 -0.851603
H78   H     H_    0.296939 0.467744 0.866457 0.227402
H79   H     H_    0.318879 0.504278 0.693451 0.233122
H80   H     H_    0.386586 0.418043 0.770128 0.242044
N9    N     N_2   0.645156 0.232524 0.755331 -0.278119
H81   H     H_    0.667303 0.234907 0.856107 0.203788
C57   C     C_3   0.576038 0.296309 0.727402 -0.807423
H82   H     H_    0.539164 0.310898 0.824047 0.211325
H83   H     H_    0.528268 0.266895 0.654097 0.240984
H84   H     H_    0.603213 0.359863 0.687899 0.234765
N10   N     N_2   0.758789 0.122762 0.288873 -0.275420
H85   H     H_    0.746756 0.172758 0.218711 0.227102
C58   C     C_3   0.819213 0.056135 0.236185 -0.858564
H86   H     H_    0.798279 0.035166 0.131049 0.226727
H87   H     H_    0.818863 0.996529 0.303414 0.234342
H88   H     H_    0.887115 0.083656 0.230386 0.244000
N11   N     N_2   0.645161 0.767479 0.244664 -0.278122
H89   H     H_    0.667314 0.765089 0.143890 0.203774
C59   C     C_3   0.576034 0.703702 0.272593 -0.807336
H90   H     H_    0.539155 0.689118 0.175949 0.211315
H91   H     H_    0.528269 0.733122 0.345904 0.240976
H92   H     H_    0.603206 0.640143 0.312091 0.234747
N12   N     N_2   0.758784 0.877230 0.711136 -0.275419
H93   H     H_    0.746757 0.827229 0.781294 0.227092
C60   C     C_3   0.819201 0.943861 0.763830 -0.858555
H94   H     H_    0.798262 0.964826 0.868966 0.226730
H95   H     H_    0.818847 0.003469 0.696604 0.234340
H96   H     H_    0.887105 0.916347 0.769630 0.243998

loop_
_geom_bond_atom_site_label_1
_geom_bond_atom_site_label_2
_ccdc_geom_bond_type
C16   C28   S    
C53   H68   S    
N10   H85   S    
N9    H81   S    
C55   H75   S    
C29   H25   S    
C6    H59   S    
N1    Zn2   S    
N6    H69   S    
C45   H41   S    
C14   C33   S    
C56   H78   S    
C24   N8    S    
C7    C8    S    
C57   H83   S    
C45   C46   S    
O5    Zn3   S    
C41   H34   S    
N10   C58   S    
O3    Zn2   S    
O6    Zn4   S    
C43   H37   S    
C31   H30   S    
C50   N4    S    
N3    Zn4   S    
C32   C36   S    
C17   C35   S    
N6    C54   S    
O8    Zn3   S    
C38   C42   S    
C19   C36   S    
C54   H71   S    
O14   Zn4   S    
C5    C6    S    
C26   C39   S    
C60   H95   S    
C14   H10   S    
C28   C40   S    
C53   H66   S    
C48   H52   S    
C29   C33   S    
C46   N2    S    
O1    Zn1   S    
C32   H31   S    
C1    O2    A    
C8    H63   S    
C16   C34   S    
C10   O11   A    
C18   H6    S    
C47   N2    S    
C29   H26   S    
C20   C24   S    
N11   C59   S    
C12   O15   A    
C24   C38   S    
N8    C56   S    
C19   H15   S    
C12   C36   S    
N2    Zn1   S    
C48   H44   S    
C18   C35   S    
C15   C34   S    
C44   H40   S    
C8    H62   S    
C59   H92   S    
C30   H28   S    
N9    C57   S    
C29   C43   S    
C55   H76   S    
C9    C33   S    
C6    H58   S    
C13   H9    S    
C30   C44   S    
O16   Zn3   S    
C27   H23   S    
C56   H79   S    
C57   H84   S    
C13   H1    S    
C58   H87   S    
C51   H47   S    
O15   Zn4   S    
C32   H32   S    
C28   N12   S    
C3    O6    A    
C43   H38   S    
C50   H46   S    
C30   C34   S    
C51   C52   S    
C47   C48   S    
C7    N3    S    
O4    Zn1   S    
C47   H51   S    
O2    Zn2   S    
C11   O14   A    
C57   H82   S    
C4    O8    A    
C60   H96   S    
C49   H53   S    
C19   H7    S    
O12   Zn1   S    
C58   H86   S    
C22   C37   S    
C52   H48   S    
C17   C21   S    
C21   H17   S    
N5    C53   S    
C15   H3    S    
C7    H64   S    
C19   C23   S    
N12   H93   S    
C16   H4    S    
C13   C33   S    
C23   H19   S    
N12   C60   S    
C46   H50   S    
C15   C27   S    
N8    H77   S    
C46   H42   S    
C4    C39   S    
C27   C40   S    
C51   N4    S    
C21   C37   S    
C10   C34   S    
N4    Zn3   S    
C14   C26   S    
N7    C55   S    
C44   H39   S    
C45   H49   S    
C1    C38   S    
N11   H89   S    
C30   H27   S    
C14   H2    S    
C26   N10   S    
O13   Zn3   S    
C42   H36   S    
C2    O4    A    
C23   N7    S    
C31   C35   S    
C54   H72   S    
C20   H8    S    
O7    Zn4   S    
O10   Zn2   S    
C56   H80   S    
C24   H20   S    
C58   H88   S    
C45   N1    S    
C53   H67   S    
C8    N4    S    
C15   H11   S    
C31   C41   S    
C4    O7    A    
C18   C22   S    
C20   H16   S    
C27   N11   S    
C13   C25   S    
C3    C40   S    
C39   C43   S    
C3    O5    A    
C48   N1    S    
C5    H60   S    
C9    O9    A    
C18   H14   S    
C23   C38   S    
C41   H33   S    
C17   H13   S    
C31   H29   S    
C25   N9    S    
C7    H61   S    
C11   O13   A    
C21   N5    S    
O11   Zn2   S    
C54   H70   S    
C25   C39   S    
C2    C37   S    
C60   H94   S    
C49   N3    S    
C5    H57   S    
C32   C42   S    
C11   C35   S    
C26   H22   S    
C22   H18   S    
C25   H21   S    
C37   C41   S    
C10   O12   A    
C1    O1    A    
C49   H45   S    
C59   H90   S    
C20   C36   S    
C52   N3    S    
C9    O10   A    
C40   C44   S    
O9    Zn1   S    
C22   N6    S    
C52   H56   S    
C51   H55   S    
C49   C50   S    
C12   O16   A    
C5    N1    S    
C55   H74   S    
C50   H54   S    
C47   H43   S    
C42   H35   S    
C16   H12   S    
N7    H73   S    
N5    H65   S    
C6    N2    S    
C2    O3    A    
C17   H5    S    
C59   H91   S    
C28   H24   S    
