data_mof_unit_41471.cif
_audit_creation_date              2012-10-26T19:19:35-0400
_audit_creation_method            fapswitch 2.2
_symmetry_space_group_name_H-M    P1
_symmetry_Int_Tables_number       1
_space_group_crystal_system       triclinic
_cell_length_a                    15.894181
_cell_length_b                    10.904606
_cell_length_c                    9.916008
_cell_angle_alpha                 89.944164
_cell_angle_beta                  90.921664
_cell_angle_gamma                 93.519346
_cell_volume                      1715.17726972

loop_
_atom_site_label
_atom_site_type_symbol
_atom_type_description
_atom_site_fract_x
_atom_site_fract_y
_atom_site_fract_z
_atom_type_partial_charge
C1    C     C_R   0.499387 0.265814 0.499750 0.557554
C2    C     C_2   0.508715 0.867125 0.499010 -0.121741
C3    C     C_2   0.511741 0.066556 0.390979 0.229056
C4    C     C_R   0.340476 0.498980 0.499304 0.514594
C5    C     C_2   0.490928 0.132706 0.498522 -0.127541
C6    C     C_2   0.456722 0.419179 0.920373 0.485866
C7    C     C_2   0.466670 0.410732 0.074224 0.464795
C8    C     C_R   0.500580 0.734126 0.499774 0.549033
C9    C     C_R   0.659168 0.501621 0.500968 0.503400
C10   C     C_3   0.049694 0.439039 0.654293 0.515712
C11   C     C_3   0.040960 0.399732 0.401076 0.111684
C12   C     C_3   0.947862 0.437987 0.658984 0.560346
C13   C     C_3   0.943456 0.409484 0.397773 0.151718
C14   C     C_1   0.748590 0.501233 0.504423 -0.047792
C15   C     C_3   0.081573 0.491952 0.510211 0.047842
C16   C     C_3   0.828089 0.292646 0.695470 -0.083050
C17   C     C_3   0.107171 0.622158 0.774366 -0.000434
C18   C     C_3   0.135768 0.663540 0.915358 -0.410162
C19   C     C_3   0.923416 0.470785 0.896581 0.005872
C20   C     C_3   0.858558 0.532767 0.979887 -0.403947
C21   C     C_3   0.386292 0.945367 0.221553 -0.098384
C22   C     C_3   0.608129 0.050771 0.219469 -0.090077
C23   C     C_3   0.915689 0.489896 0.518042 0.021545
C24   C     C_3   0.323092 0.344350 0.859556 -0.114850
C25   C     C_3   0.600222 0.652692 0.850727 0.008868
C26   C     C_3   0.362641 0.288175 0.174440 -0.086292
C27   C     C_3   0.081769 0.257104 0.779081 -0.047007
C28   C     C_3   0.593883 0.658156 0.141985 0.030743
C29   C     C_3   0.119640 0.333553 0.221567 -0.036662
C30   C     C_3   0.157638 0.374692 0.089763 -0.378379
C31   C     C_3   0.873460 0.250122 0.275199 -0.018743
C32   C     C_3   0.843582 0.115260 0.283141 -0.375605
C33   C     C_3   0.089578 0.830148 0.444746 -0.024332
C34   C     C_3   0.954795 0.622757 0.498111 -0.301346
C35   C     C_3   0.134072 0.938644 0.518279 -0.367689
C36   C     C_3   0.049236 0.620732 0.466485 0.084767
C37   C     C_1   0.823827 0.497684 0.510620 -0.019320
C38   C     C_1   0.174391 0.493993 0.502921 0.046399
C39   C     C_1   0.250218 0.496386 0.499013 -0.032508
C40   C     C_2   0.487225 0.933203 0.390721 0.226005
Cu1   Cu    Cu3+1 0.500020 0.500020 0.638630 1.004062
Cu2   Cu    Cu3+1 0.499980 0.499980 0.361370 1.038279
H1    H     H_    0.922792 0.668077 0.412303 0.073657
H2    H     H_    0.796620 0.262351 0.599516 0.169314
H3    H     H_    0.050036 0.670783 0.748137 0.200251
H4    H     H_    0.161882 0.646869 0.710098 0.207899
H5    H     H_    0.193868 0.618232 0.945292 0.153573
H6    H     H_    0.150187 0.764502 0.915610 0.099611
H7    H     H_    0.086096 0.641871 0.990362 0.150717
H8    H     H_    0.985572 0.493068 0.943873 0.176442
H9    H     H_    0.910212 0.370343 0.905552 0.137357
H10   H     H_    0.794335 0.512616 0.936556 0.166546
H11   H     H_    0.860059 0.498275 0.085142 0.081155
H12   H     H_    0.537236 0.911708 0.588021 0.030472
H13   H     H_    0.872738 0.633780 0.980797 0.147749
H14   H     H_    0.414457 0.022685 0.161088 0.178651
H15   H     H_    0.344062 0.979692 0.299881 0.083869
H16   H     H_    0.346636 0.885915 0.151963 0.134651
H17   H     H_    0.575436 0.980768 0.152734 0.152883
H18   H     H_    0.648725 0.006284 0.295402 0.074857
H19   H     H_    0.650165 0.110115 0.155261 0.132621
H20   H     H_    0.306224 0.423823 0.922246 0.070735
H21   H     H_    0.290647 0.258856 0.897320 0.105010
H22   H     H_    0.297510 0.356427 0.756373 0.168154
H23   H     H_    0.462541 0.088138 0.586273 0.060474
H24   H     H_    0.549590 0.716370 0.869799 0.141547
H25   H     H_    0.620988 0.661993 0.746908 0.159680
H26   H     H_    0.658567 0.686471 0.904712 0.039878
H27   H     H_    0.326347 0.216959 0.114440 0.090479
H28   H     H_    0.330285 0.375719 0.169638 0.091947
H29   H     H_    0.360647 0.255552 0.280245 0.139028
H30   H     H_    0.032899 0.280587 0.851317 0.138056
H31   H     H_    0.145612 0.281800 0.820083 0.119076
H32   H     H_    0.076374 0.156027 0.765151 0.112230
H33   H     H_    0.642799 0.595704 0.110899 0.121828
H34   H     H_    0.052401 0.302910 0.428776 0.197338
H35   H     H_    0.605328 0.673962 0.248882 0.154756
H36   H     H_    0.606367 0.750747 0.097822 0.059012
H37   H     H_    0.077930 0.249248 0.203297 0.120313
H38   H     H_    0.171796 0.312311 0.292590 0.123460
H39   H     H_    0.203068 0.454679 0.106782 0.155819
H40   H     H_    0.189784 0.297314 0.046397 0.054297
H41   H     H_    0.107394 0.401865 0.019635 0.182680
H42   H     H_    0.924301 0.260058 0.199276 0.126048
H43   H     H_    0.819446 0.303750 0.242086 0.134343
H44   H     H_    0.792952 0.102521 0.358666 0.156591
H45   H     H_    0.925912 0.459626 0.303774 0.115244
H46   H     H_    0.818618 0.083215 0.183180 0.074482
H47   H     H_    0.896929 0.059429 0.313329 0.147515
H48   H     H_    0.022455 0.850680 0.428296 0.126433
H49   H     H_    0.120239 0.819959 0.345567 0.128945
H50   H     H_    0.201864 0.922337 0.533648 0.154187
H51   H     H_    0.128636 0.023733 0.457891 0.097139
H52   H     H_    0.104836 0.951145 0.617932 0.153872
H53   H     H_    0.054579 0.626950 0.354481 0.175034
H54   H     H_    0.944862 0.680196 0.588214 0.179779
H55   H     H_    0.797234 0.372769 0.736581 0.146146
H56   H     H_    0.817513 0.216309 0.768432 0.097643
N1    N     N_2   0.499090 0.498660 0.846910 -0.038689
N2    N     N_2   0.499070 0.498630 0.153040 -0.048442
O1    O     O_R   0.500010 0.321960 0.617040 -0.461395
O2    O     O_3   0.090821 0.494085 0.772266 -0.599800
O3    O     O_3   0.920503 0.517496 0.762741 -0.597570
O4    O     O_3   0.449633 0.874959 0.277925 -0.529275
O5    O     O_3   0.549574 0.124879 0.280118 -0.502167
O6    O     O_3   0.409977 0.325836 0.853853 -0.554190
O7    O     O_3   0.577597 0.530899 0.894077 -0.499015
O8    O     O_3   0.447016 0.296619 0.130782 -0.523997
O9    O     O_3   0.072161 0.313340 0.651954 -0.575029
O10   O     O_3   0.511509 0.612396 0.101209 -0.480345
O11   O     O_3   0.072821 0.428816 0.271251 -0.616752
O12   O     O_R   0.499990 0.321920 0.382900 -0.418549
O13   O     O_3   0.902676 0.290052 0.403976 -0.541002
O14   O     O_3   0.096691 0.722824 0.523346 -0.601859
O15   O     O_R   0.379450 0.500030 0.617120 -0.500379
O16   O     O_R   0.379420 0.499980 0.382980 -0.507189
O17   O     O_R   0.500010 0.678080 0.617100 -0.549664
O18   O     O_R   0.499990 0.678040 0.382960 -0.440084
O19   O     O_R   0.620580 0.500020 0.617020 -0.499159
O20   O     O_R   0.620550 0.499970 0.382880 -0.531277
O21   O     O_3   0.916139 0.312444 0.676546 -0.527920

loop_
_geom_bond_atom_site_label_1
_geom_bond_atom_site_label_2
_ccdc_geom_bond_type
N2    O10   S    
C31   H43   S    
Cu1   Cu2   S    
C4    O15   A    
C19   C20   S    
C25   H25   S    
C9    C14   S    
C36   O14   S    
C18   H5    S    
C8    O18   A    
C3    O5    S    
C12   C23   S    
C33   O14   S    
C1    C5    S    
C17   H3    S    
C11   H34   S    
C33   H49   S    
C1    O12   A    
C22   H18   S    
C38   C39   T    
C19   H8    S    
C16   H55   S    
C32   H46   S    
C13   C23   S    
C10   O9    S    
C30   H41   S    
Cu2   O12   S    
C21   O4    S    
C19   O3    S    
C12   O21   S    
C31   C32   S    
Cu1   N1    S    
C27   H32   S    
C28   H36   S    
C16   H2    S    
C35   H50   S    
C24   H22   S    
C26   H29   S    
C25   H26   S    
C11   C15   S    
Cu1   O15   S    
C20   H13   S    
C29   O11   S    
C8    O17   A    
C35   H51   S    
C7    N2    D    
C25   H24   S    
C11   O11   S    
C10   O2    S    
C17   H4    S    
C12   O3    S    
C5    H23   S    
C2    H12   S    
C26   O8    S    
C22   H17   S    
Cu2   O18   S    
C28   O10   S    
C23   C37   S    
C31   H42   S    
C30   H40   S    
C17   O2    S    
C15   C38   S    
C21   H15   S    
C29   C30   S    
Cu2   N2    S    
C40   O4    S    
C32   H47   S    
C29   H37   S    
C4    C39   S    
C23   C34   S    
C32   H44   S    
C13   H45   S    
C17   C18   S    
C6    O6    S    
Cu1   O19   S    
C28   H35   S    
C10   C12   S    
Cu2   O16   S    
C3    C40   S    
C24   H21   S    
C26   H28   S    
C24   O6    S    
C1    O1    A    
C15   C36   S    
C25   O7    S    
C35   H52   S    
C9    O20   A    
C16   O21   S    
C24   H20   S    
C4    O16   A    
C2    C8    S    
C34   H1    S    
C34   H54   S    
C20   H11   S    
C3    C5    D    
C18   H6    S    
C21   H14   S    
C6    C7    S    
C22   O5    S    
N1    O7    S    
C10   C15   S    
C6    N1    D    
C30   H39   S    
C21   H16   S    
C20   H10   S    
C33   H48   S    
C22   H19   S    
C11   C13   S    
C36   H53   S    
Cu2   O20   S    
C29   H38   S    
C19   H9    S    
C9    O19   A    
C33   C35   S    
Cu1   O1    S    
C34   C36   S    
C16   H56   S    
C2    C40   D    
C27   O9    S    
C26   H27   S    
C7    O8    S    
Cu1   O17   S    
C27   H31   S    
C28   H33   S    
C31   O13   S    
C13   O13   S    
C27   H30   S    
C18   H7    S    
C14   C37   T    
