data_mof_unit_48181.cif
_audit_creation_date              2012-12-11T15:54:37-0500
_audit_creation_method            fapswitch 2.2
_symmetry_space_group_name_H-M    P1
_symmetry_Int_Tables_number       1
_space_group_crystal_system       triclinic
_cell_length_a                    6.96675
_cell_length_b                    14.534495
_cell_length_c                    16.03613
_cell_angle_alpha                 90.106879
_cell_angle_beta                  90.007023
_cell_angle_gamma                 90.393343
_cell_volume                      1623.74844276

loop_
_atom_site_label
_atom_site_type_symbol
_atom_type_description
_atom_site_fract_x
_atom_site_fract_y
_atom_site_fract_z
_atom_type_partial_charge
O1    O     O_R   0.638180 0.333920 0.163320 -0.539747
O2    O     O_R   0.361820 0.666080 0.836680 -0.541989
O3    O     O_R   0.308470 0.344960 0.336080 -0.547704
O4    O     O_R   0.691530 0.655040 0.663920 -0.545361
O5    O     O_R   0.138140 0.166110 0.336680 -0.542140
O6    O     O_R   0.861860 0.833890 0.663320 -0.535269
C1    C     C_R   0.477608 0.367097 0.364895 0.668322
C2    C     C_R   0.522478 0.632702 0.635335 0.673169
O7    O     O_R   0.308460 0.344950 0.163930 -0.542330
O8    O     O_R   0.691540 0.655050 0.836070 -0.548921
O9    O     O_R   0.138140 0.166100 0.163310 -0.508854
O10   O     O_R   0.861860 0.833900 0.836690 -0.507032
C3    C     C_R   0.477718 0.367112 0.135081 0.696989
C4    C     C_R   0.522194 0.632812 0.864831 0.690048
O11   O     O_R   0.638180 0.333930 0.336700 -0.539553
O12   O     O_R   0.361820 0.666070 0.663300 -0.540227
O13   O     O_3   0.471670 0.191340 0.250000 -0.355857
O14   O     O_3   0.528330 0.808660 0.750000 -0.353571
V1    V     V_3+5 0.196830 0.260900 0.250000 1.423846
V2    V     V_3+5 0.803170 0.739100 0.750000 1.426544
O15   O     O_R   0.808420 0.155070 0.163920 -0.542547
O16   O     O_R   0.191580 0.844930 0.836080 -0.544141
C5    C     C_R   0.977749 0.131090 0.136474 0.730928
C6    C     C_R   0.023661 0.864584 0.866841 0.734753
O17   O     O_R   0.808420 0.155080 0.336070 -0.548100
O18   O     O_R   0.191580 0.844920 0.663930 -0.546565
C7    C     C_R   0.974634 0.137327 0.368226 0.693169
C8    C     C_R   0.024231 0.864321 0.633342 0.678327
V3    V     V_3+5 0.696830 0.239130 0.250000 1.418252
V4    V     V_3+5 0.303170 0.760870 0.750000 1.419849
O19   O     O_3   0.971850 0.308690 0.250010 -0.375040
O20   O     O_3   0.028150 0.691310 0.749990 -0.380791
H1    H     H_    0.776724 0.840610 0.257850 0.118449
H2    H     H_    0.188714 0.164097 0.744421 0.128738
C9    C     C_R   0.988784 0.188179 0.552227 0.131668
C10   C     C_R   0.957918 0.808574 0.452960 0.102860
C11   C     C_R   0.065622 0.211825 0.630373 -0.132068
C12   C     C_R   0.876867 0.788695 0.374377 -0.092464
C13   C     C_R   0.134725 0.144988 0.683433 -0.170761
C14   C     C_R   0.833318 0.857775 0.318824 -0.200941
C15   C     C_R   0.118220 0.053040 0.661648 -0.143394
C16   C     C_R   0.869571 0.948603 0.339232 -0.167643
C17   C     C_R   0.049761 0.025873 0.582007 0.056959
C18   C     C_R   0.939060 0.974003 0.418887 0.069442
C19   C     C_R   0.005700 0.095289 0.522325 0.022772
C20   C     C_R   0.971300 0.903595 0.479768 0.010370
C21   C     C_R   0.020359 0.931207 0.563024 -0.169104
C22   C     C_R   0.972976 0.068521 0.437808 -0.173921
H3    H     H_    0.059149 0.281946 0.653173 0.120597
H4    H     H_    0.851913 0.719123 0.353215 0.123683
H5    H     H_    0.160767 0.004031 0.708533 0.126601
H6    H     H_    0.839682 0.998261 0.291098 0.118192
C23   C     C_R   0.182181 0.966780 0.974263 -0.332096
C24   C     C_R   0.825925 0.017954 0.037309 -0.342562
H7    H     H_    0.321930 0.947779 0.950623 0.197011
H8    H     H_    0.686963 0.039023 0.058528 0.196647
C25   C     C_R   0.171047 0.023822 0.045130 0.458574
C26   C     C_R   0.839534 0.944764 0.980526 0.466633
C27   C     C_R   0.991540 0.058649 0.070777 -0.198332
C28   C     C_R   0.014700 0.928558 0.939329 -0.199276
C29   C     C_R   0.565402 0.523615 0.420580 -0.169132
C30   C     C_R   0.436411 0.475815 0.580102 -0.156355
H9    H     H_    0.615381 0.543305 0.359159 0.098195
H10   H     H_    0.386378 0.456158 0.641518 0.099988
C31   C     C_R   0.577305 0.587476 0.486376 -0.158238
C32   C     C_R   0.426004 0.411702 0.514481 -0.170258
H11   H     H_    0.633232 0.655799 0.474369 0.114671
H12   H     H_    0.371724 0.343098 0.526845 0.109901
C33   C     C_R   0.512841 0.564243 0.566651 -0.027048
C34   C     C_R   0.488062 0.435324 0.433896 -0.024279
C35   C     C_R   0.324671 0.483075 0.039788 -0.163415
C36   C     C_R   0.674622 0.516187 0.959510 -0.155942
H13   H     H_    0.187421 0.471607 0.069866 0.117803
H14   H     H_    0.811933 0.527783 0.929534 0.119457
C37   C     C_R   0.335471 0.546795 0.974545 -0.161879
C38   C     C_R   0.664031 0.452823 0.025034 -0.152639
H15   H     H_    0.206225 0.582738 0.956609 0.118772
H16   H     H_    0.793508 0.417312 0.043301 0.121096
C39   C     C_R   0.510658 0.564270 0.933541 -0.047943
C40   C     C_R   0.488904 0.435348 0.066063 -0.049994
C41   C     C_3   0.853506 0.258562 0.515489 -0.400261
C42   C     C_3   0.961527 0.342629 0.483400 -0.702395
H17   H     H_    0.863277 0.390429 0.451646 0.233011
H18   H     H_    0.029445 0.380791 0.535701 0.208821
H19   H     H_    0.071694 0.320335 0.438808 0.241895
H20   H     H_    0.758869 0.229308 0.467113 0.191839
H21   H     H_    0.752868 0.281686 0.565011 0.183460
C43   C     C_3   0.043861 0.729190 0.502671 -0.362345
C44   C     C_3   0.089567 0.641399 0.453487 -0.771264
H22   H     H_    0.957708 0.606233 0.431287 0.219940
H23   H     H_    0.185559 0.657204 0.400004 0.233444
H24   H     H_    0.162237 0.592032 0.495139 0.243238
H25   H     H_    0.183814 0.752381 0.528465 0.189622
H26   H     H_    0.945582 0.709925 0.554072 0.198492
O21   O     O_3   0.334473 0.043445 0.090896 -0.562641
C45   C     C_3   0.381778 0.966336 0.140902 0.073884
H27   H     H_    0.529877 0.977031 0.164586 0.135878
H28   H     H_    0.379284 0.901396 0.104431 0.100445
C46   C     C_3   0.250867 0.954857 0.216912 -0.330876
H29   H     H_    0.233470 0.021769 0.249054 0.225042
H30   H     H_    0.108122 0.929243 0.196157 0.172461
C47   C     C_3   0.336561 0.886387 0.278419 -0.820399
H31   H     H_    0.370446 0.820361 0.246836 0.222698
H32   H     H_    0.235367 0.872343 0.329907 0.255685
H33   H     H_    0.468270 0.916197 0.306390 0.239242
O22   O     O_3   0.687320 0.884059 0.970771 -0.567192
C48   C     C_3   0.686660 0.820402 0.038155 0.059358
H34   H     H_    0.546450 0.783542 0.036739 0.131428
H35   H     H_    0.697558 0.855603 0.099648 0.092631
C49   C     C_3   0.846530 0.748105 0.032333 -0.327459
H36   H     H_    0.839812 0.712767 0.971208 0.206117
H37   H     H_    0.989625 0.781419 0.038621 0.171922
C50   C     C_3   0.827745 0.676918 0.101803 -0.842521
H38   H     H_    0.850195 0.710024 0.163510 0.225921
H39   H     H_    0.937935 0.622836 0.093377 0.228909
H40   H     H_    0.683411 0.644064 0.100585 0.244120

loop_
_geom_bond_atom_site_label_1
_geom_bond_atom_site_label_2
_ccdc_geom_bond_type
C7    C22   S    
C29   C34   A    
C32   H12   S    
C8    C21   S    
O13   V3    S    
O21   C45   S    
O4    C2    A    
V1    O19   S    
C1    C34   S    
C41   C42   S    
C9    C41   S    
C13   C15   A    
C32   C34   A    
C10   C43   S    
C5    C27   S    
O9    V1    S    
C2    C33   S    
C37   C39   A    
C12   C14   A    
C38   H16   S    
C36   C39   A    
O3    C1    A    
V2    O20   S    
C25   C27   A    
O22   C48   S    
O12   V4    S    
C45   C46   S    
C47   H33   S    
C29   H9    S    
O7    C3    A    
C49   H36   S    
C30   H10   S    
O5    C7    A    
O7    V1    S    
O6    C8    A    
O8    V2    S    
C31   H11   S    
C45   H28   S    
C48   H34   S    
O3    V1    S    
O14   V4    S    
C44   H23   S    
C41   H20   S    
C36   C38   A    
C50   H40   S    
C14   C16   A    
C3    C40   S    
C2    O12   A    
C43   H25   S    
V3    O19   S    
C15   C17   A    
C16   C18   A    
C35   C40   A    
C23   C28   A    
C18   C20   A    
O11   V3    S    
C24   H8    S    
C24   C27   A    
C23   H7    S    
O17   V3    S    
C43   H26   S    
H1    C14   S    
C30   C32   A    
H2    C13   S    
V4    O20   S    
C36   H14   S    
O8    C4    A    
C35   H13   S    
C23   C25   A    
C1    O11   A    
O15   V3    S    
C30   C33   A    
C26   O22   S    
C47   H32   S    
C11   H3    S    
C46   H29   S    
C6    C28   S    
C45   H27   S    
O10   V2    S    
O1    V3    S    
C4    C39   S    
C44   H24   S    
C10   C20   A    
C37   H15   S    
C49   C50   S    
C41   H21   S    
O5    V1    S    
C46   H30   S    
O18   V4    S    
C42   H18   S    
O15   C5    A    
C48   C49   S    
O16   C6    A    
O1    C3    A    
C9    C19   A    
C50   H38   S    
C24   C26   A    
C19   C22   A    
C20   C21   A    
O16   V4    S    
C9    C11   A    
C38   C40   A    
C12   H4    S    
O17   C7    A    
C42   H19   S    
O6    V2    S    
O10   C6    A    
O18   C8    A    
O2    V4    S    
C10   C12   A    
C17   C19   A    
C35   C37   A    
C48   H35   S    
C17   C21   A    
C31   C33   A    
O9    C5    A    
O13   V1    S    
O14   V2    S    
C47   H31   S    
O2    C4    A    
C49   H37   S    
O4    V2    S    
C29   C31   A    
C46   C47   S    
C43   C44   S    
C11   C13   A    
C42   H17   S    
C25   O21   S    
C44   H22   S    
C26   C28   A    
C15   H5    S    
C18   C22   A    
C16   H6    S    
C50   H39   S    
