data_mof_unit_15180.cif
_audit_creation_date              2012-12-11T14:08:37-0500
_audit_creation_method            fapswitch 2.2
_symmetry_space_group_name_H-M    P1
_symmetry_Int_Tables_number       1
_space_group_crystal_system       triclinic
_cell_length_a                    28.237216
_cell_length_b                    7.226947
_cell_length_c                    17.53349
_cell_angle_alpha                 90.121997
_cell_angle_beta                  101.960112
_cell_angle_gamma                 89.978677
_cell_volume                      3500.35973733

loop_
_atom_site_label
_atom_site_type_symbol
_atom_type_description
_atom_site_fract_x
_atom_site_fract_y
_atom_site_fract_z
_atom_type_partial_charge
O1    O     O_R   0.000700 0.436510 0.857920 -0.525498
O2    O     O_R   0.999300 0.563490 0.142080 -0.524595
O3    O     O_R   0.999300 0.936510 0.642080 -0.522103
O4    O     O_R   0.000700 0.063490 0.357920 -0.522919
O5    O     O_R   0.930080 0.766380 0.721890 -0.520554
O6    O     O_R   0.069920 0.233620 0.278110 -0.518384
O7    O     O_R   0.069920 0.266380 0.778110 -0.519723
O8    O     O_R   0.930080 0.733620 0.221890 -0.517499
C1    C     C_R   0.910713 0.597314 0.710264 0.840889
C2    C     C_R   0.089513 0.402311 0.291075 0.832061
C3    C     C_R   0.089340 0.097106 0.788547 0.838290
C4    C     C_R   0.910432 0.902620 0.209589 0.831493
O9    O     O_R   0.996180 0.766230 0.862310 -0.545486
O10   O     O_R   0.003820 0.233770 0.137690 -0.544438
O11   O     O_R   0.003820 0.266230 0.637690 -0.544740
O12   O     O_R   0.996180 0.733770 0.362310 -0.542613
O13   O     O_R   0.065870 0.936460 0.783500 -0.513248
O14   O     O_R   0.934130 0.063540 0.216500 -0.512848
O15   O     O_R   0.934130 0.436460 0.716500 -0.512619
O16   O     O_R   0.065870 0.563540 0.283500 -0.511710
C5    C     C_R   0.999058 0.596003 0.894318 0.709430
C6    C     C_R   0.001216 0.403958 0.105791 0.711850
C7    C     C_R   0.000790 0.095770 0.605691 0.717777
C8    C     C_R   0.998754 0.904163 0.394136 0.715672
O17   O     O_3   0.022790 0.603020 0.723980 -0.363450
O18   O     O_3   0.977210 0.396980 0.276020 -0.364051
O19   O     O_3   0.977210 0.103020 0.776020 -0.367036
O20   O     O_3   0.022790 0.896980 0.223980 -0.366802
V1    V     V_3+5 0.995770 0.877900 0.754830 1.709456
V2    V     V_3+5 0.004230 0.122100 0.245170 1.713394
V3    V     V_3+5 0.004230 0.377900 0.745170 1.710905
V4    V     V_3+5 0.995770 0.622100 0.254830 1.716601
C9    C     C_2   0.996822 0.081591 0.519238 -0.227444
C10   C     C_2   0.001765 0.917431 0.480318 -0.231493
C11   C     C_2   0.002605 0.582044 0.980750 -0.227153
C12   C     C_2   0.998277 0.417375 0.019541 -0.230299
C13   C     C_R   0.680010 0.917033 0.027898 0.731110
C14   C     C_R   0.312565 0.021281 0.953145 0.728869
C15   C     C_R   0.317569 0.410746 0.477606 0.738655
C16   C     C_R   0.677797 0.613086 0.562438 0.721869
O21   O     O_2   0.708494 0.930799 0.975152 -0.465128
O22   O     O_2   0.280478 0.062770 0.997843 -0.467087
O23   O     O_2   0.287529 0.430500 0.527742 -0.470750
O24   O     O_2   0.703433 0.670672 0.510074 -0.464228
N1    N     N_R   0.699843 0.938944 0.105678 -0.516324
N2    N     N_R   0.295224 0.965698 0.877204 -0.519697
N3    N     N_R   0.299217 0.422947 0.399073 -0.511111
N4    N     N_R   0.701042 0.524318 0.629450 -0.527059
C17   C     C_R   0.669268 0.974484 0.156006 0.673606
C18   C     C_R   0.324087 0.841662 0.848499 0.708480
C19   C     C_R   0.330394 0.438138 0.348770 0.650147
C20   C     C_R   0.674990 0.383176 0.654130 0.707273
C21   C     C_R   0.778336 0.074738 0.180095 -0.128550
C22   C     C_R   0.214678 0.915923 0.777223 -0.118586
C23   C     C_R   0.222586 0.563186 0.321626 -0.129052
C24   C     C_R   0.782599 0.448844 0.722024 -0.099665
C25   C     C_R   0.829317 0.060514 0.208303 0.295281
C26   C     C_R   0.163908 0.940538 0.763379 0.269969
C27   C     C_R   0.171473 0.555250 0.294121 0.297115
C28   C     C_R   0.833716 0.453079 0.732775 0.274840
C29   C     C_R   0.830831 0.776716 0.133685 0.300897
C30   C     C_R   0.174322 0.212144 0.846347 0.307507
C31   C     C_R   0.168117 0.271006 0.367604 0.295509
C32   C     C_R   0.828103 0.720693 0.648412 0.294176
C33   C     C_R   0.780029 0.782859 0.110328 0.392253
C34   C     C_R   0.224887 0.187940 0.859192 0.420590
C35   C     C_R   0.218854 0.272251 0.390786 0.399763
C36   C     C_R   0.777489 0.716846 0.639357 0.426580
C37   C     C_R   0.752752 0.931423 0.132807 0.107734
C38   C     C_R   0.245442 0.020871 0.837124 0.068395
C39   C     C_R   0.246729 0.419456 0.369995 0.102851
C40   C     C_R   0.753327 0.560244 0.662844 0.069470
C41   C     C_R   0.598876 0.946398 0.050853 -0.043176
C42   C     C_R   0.394720 0.939943 0.943468 -0.037770
C43   C     C_R   0.399320 0.429752 0.457336 -0.030240
C44   C     C_R   0.599641 0.501259 0.578143 -0.035500
C45   C     C_R   0.629688 0.885175 0.002621 -0.114914
C46   C     C_R   0.363317 0.022845 0.986276 -0.097842
C47   C     C_R   0.367714 0.380840 0.506079 -0.108876
C48   C     C_R   0.626592 0.625336 0.542568 -0.099110
C49   C     C_R   0.609691 0.803071 0.930051 -0.098729
C50   C     C_R   0.383139 0.091557 0.062188 -0.124705
C51   C     C_R   0.386851 0.309761 0.581536 -0.123281
C52   C     C_R   0.601687 0.757869 0.489066 -0.094601
C53   C     C_R   0.619432 0.013281 0.126125 -0.124926
C54   C     C_R   0.374826 0.846813 0.873300 -0.155351
C55   C     C_R   0.380615 0.471086 0.377852 -0.127174
C56   C     C_R   0.623742 0.382859 0.637027 -0.148639
C57   C     C_R   0.856138 0.912636 0.184297 -0.273855
C58   C     C_R   0.143177 0.081268 0.802000 -0.273026
C59   C     C_R   0.143690 0.410047 0.317695 -0.275087
C60   C     C_R   0.856819 0.585388 0.693728 -0.276073
C61   C     C_R   0.475753 0.834953 0.933002 -0.045754
C62   C     C_R   0.517747 0.034800 0.067845 0.009536
C63   C     C_R   0.521872 0.353560 0.582815 -0.060289
C64   C     C_R   0.479352 0.533513 0.446053 -0.030607
C65   C     C_R   0.465920 0.021867 0.044827 0.074199
C66   C     C_R   0.527231 0.852393 0.953344 0.053562
C67   C     C_R   0.526218 0.590004 0.485910 0.078778
C68   C     C_R   0.469937 0.360706 0.561580 0.063203
C69   C     C_R   0.445725 0.938233 0.972649 0.064986
C70   C     C_R   0.547781 0.942187 0.024319 0.075889
C71   C     C_R   0.549075 0.484804 0.550333 0.044504
C72   C     C_R   0.449448 0.441058 0.488486 0.058099
C73   C     C_R   0.452674 0.705079 0.878202 0.350467
C74   C     C_R   0.541139 0.153111 0.128328 0.331222
C75   C     C_R   0.547913 0.219097 0.632454 0.360859
C76   C     C_R   0.462660 0.557331 0.365100 0.328709
C77   C     C_R   0.405568 0.738615 0.836957 -0.084422
C78   C     C_R   0.589918 0.122646 0.165208 -0.089679
C79   C     C_R   0.596279 0.252851 0.670159 -0.081108
C80   C     C_R   0.413042 0.533218 0.330668 -0.074815
O25   O     O_2   0.304856 0.691629 0.808936 -0.462339
O26   O     O_2   0.686627 0.971615 0.233576 -0.491806
O27   O     O_2   0.697290 0.226904 0.682615 -0.445511
O28   O     O_2   0.312828 0.420691 0.271702 -0.513314
C81   C     C_R   0.558850 0.792703 0.903564 -0.082813
C82   C     C_R   0.433460 0.071949 0.094246 -0.054865
C83   C     C_R   0.437863 0.296435 0.609524 -0.071027
C84   C     C_R   0.550368 0.749644 0.465660 -0.012753
C85   C     C_2   0.983302 0.255765 0.476253 0.858634
O29   O     O_2   0.014335 0.347877 0.454679 -0.541264
O30   O     O_R   0.935040 0.313489 0.460569 -0.606085
H1    H     H_    0.929983 0.432412 0.429361 0.336250
C86   C     C_2   0.013854 0.741208 0.522460 0.881092
O31   O     O_2   0.982344 0.654387 0.545292 -0.545977
O32   O     O_R   0.061022 0.672571 0.533636 -0.594952
H2    H     H_    0.065432 0.553958 0.565087 0.341827
C87   C     C_2   0.014874 0.757018 0.023956 0.859008
O33   O     O_2   0.982902 0.848591 0.043286 -0.541316
O34   O     O_R   0.063091 0.814810 0.043348 -0.607480
H3    H     H_    0.067268 0.933494 0.074966 0.334131
C88   C     C_2   0.986874 0.241193 0.976891 0.873642
O35   O     O_2   0.019128 0.153085 0.956599 -0.548158
O36   O     O_R   0.939264 0.176206 0.960697 -0.595347
H4    H     H_    0.935464 0.057782 0.928913 0.340102
Cl1   Cl    Cl    0.862505 0.601104 0.093754 -0.484164
Cl2   Cl    Cl    0.151027 0.405158 0.888934 -0.469015
Cl3   Cl    Cl    0.135668 0.097597 0.406949 -0.482133
Cl4   Cl    Cl    0.854578 0.897557 0.601077 -0.472212
Cl5   Cl    Cl    0.751671 0.601053 0.050318 -0.494633
Cl6   Cl    Cl    0.262399 0.378330 0.895714 -0.433583
Cl7   Cl    Cl    0.247254 0.083724 0.446207 -0.475231
Cl8   Cl    Cl    0.747196 0.930074 0.617352 -0.401058
C89   C     C_2   0.641739 0.708009 0.885632 0.967688
O37   O     O_2   0.659537 0.559497 0.909028 -0.510190
O38   O     O_R   0.650238 0.784613 0.816611 -0.621598
H5    H     H_    0.669960 0.701020 0.788783 0.337225
C90   C     C_2   0.351368 0.181028 0.108681 0.999813
O39   O     O_2   0.338834 0.341731 0.095610 -0.477015
O40   O     O_R   0.333622 0.077946 0.163885 -0.634891
H6    H     H_    0.308157 0.146340 0.185819 0.361301
C91   C     C_2   0.353314 0.231302 0.627776 0.967403
O41   O     O_2   0.328783 0.097108 0.602514 -0.489522
O42   O     O_R   0.349716 0.309553 0.699310 -0.630102
H7    H     H_    0.325757 0.241902 0.725051 0.342175
C92   C     C_2   0.628895 0.911850 0.463179 0.991011
O43   O     O_2   0.645502 0.034709 0.508977 -0.508027
O44   O     O_R   0.635861 0.914687 0.386647 -0.598040
H8    H     H_    0.656728 0.022625 0.376968 0.348512
Cl9   Cl    Cl    0.126511 0.810524 0.687940 -0.542262
Cl10  Cl    Cl    0.859680 0.230254 0.274046 -0.515693
Cl11  Cl    Cl    0.868919 0.308565 0.804864 -0.527759
Cl12  Cl    Cl    0.142315 0.729706 0.230051 -0.514611
C93   C     C_2   0.232803 0.826311 0.713089 1.044489
O45   O     O_2   0.223988 0.663075 0.697453 -0.456844
O46   O     O_R   0.257536 0.931820 0.667542 -0.619758
H9    H     H_    0.264250 0.859089 0.621421 0.373837
C94   C     C_2   0.752028 0.244819 0.195839 1.024884
O47   O     O_2   0.761164 0.319228 0.259894 -0.476695
O48   O     O_R   0.715413 0.316838 0.137442 -0.629274
H10   H     H_    0.700449 0.433585 0.154258 0.342202
C95   C     C_2   0.763818 0.378785 0.789329 1.016940
O49   O     O_2   0.768806 0.215781 0.808194 -0.442745
O50   O     O_R   0.743993 0.502905 0.834946 -0.640228
H11   H     H_    0.737659 0.442217 0.883867 0.379293
C96   C     C_2   0.250897 0.722885 0.300795 1.022496
O51   O     O_2   0.242596 0.783943 0.234367 -0.474495
O52   O     O_R   0.288518 0.798945 0.356544 -0.632242
H12   H     H_    0.305687 0.903760 0.335017 0.333121
C97   C     C_2   0.393711 0.691402 0.752210 0.976042
O53   O     O_2   0.422187 0.600776 0.723895 -0.525338
O54   O     O_R   0.353094 0.765867 0.702671 -0.622024
H13   H     H_    0.350256 0.725660 0.646441 0.333902
C98   C     C_2   0.609079 0.224450 0.238905 0.954880
O55   O     O_2   0.584260 0.237389 0.288096 -0.489737
O56   O     O_R   0.653994 0.312258 0.251242 -0.644299
H14   H     H_    0.662227 0.378601 0.303329 0.342765
C99   C     C_2   0.613225 0.181818 0.751190 0.980575
O57   O     O_2   0.587782 0.075983 0.778912 -0.512621
O58   O     O_R   0.655297 0.250253 0.799302 -0.628082
H15   H     H_    0.661787 0.193473 0.853314 0.351426
C100  C     C_2   0.395353 0.594295 0.248652 0.979226
O59   O     O_2   0.415827 0.544121 0.197231 -0.462355
O60   O     O_R   0.355748 0.713566 0.230399 -0.629013
H16   H     H_    0.345330 0.734049 0.172162 0.356315
Cl13  Cl    Cl    0.474810 0.475731 0.882640 -0.548578
Cl14  Cl    Cl    0.514859 0.370954 0.140863 -0.473135
Cl15  Cl    Cl    0.525621 0.989974 0.629130 -0.592964
Cl16  Cl    Cl    0.505938 0.586625 0.306186 -0.500008
C101  C     C_2   0.540311 0.745148 0.819784 0.978004
O61   O     O_2   0.509438 0.842036 0.780036 -0.504405
O62   O     O_R   0.559175 0.594985 0.785466 -0.630622
H17   H     H_    0.546835 0.590193 0.726948 0.335446
C102  C     C_2   0.450396 0.066606 0.180816 0.881391
O63   O     O_2   0.433524 0.170462 0.223407 -0.518425
O64   O     O_R   0.486113 0.940271 0.213603 -0.615504
H18   H     H_    0.496879 0.958611 0.271756 0.349683
C103  C     C_2   0.456016 0.236942 0.692037 0.995801
O65   O     O_2   0.489785 0.318159 0.733112 -0.498437
O66   O     O_R   0.433668 0.092106 0.723762 -0.637010
H19   H     H_    0.445255 0.082125 0.782312 0.331211
C104  C     C_2   0.521143 0.917158 0.433526 0.812061
O67   O     O_2   0.477899 0.924097 0.433963 -0.538122
O68   O     O_R   0.542905 0.071596 0.407420 -0.636326
H20   H     H_    0.519239 0.176427 0.390283 0.338954

loop_
_geom_bond_atom_site_label_1
_geom_bond_atom_site_label_2
_ccdc_geom_bond_type
O17   V3    S    
C67   C71   A    
O48   H10   S    
C78   C98   S    
O1    C5    A    
C93   O45   D    
C23   C27   A    
O19   V1    S    
O13   V1    S    
C94   O47   D    
O3    C7    A    
O38   H5    S    
C68   C72   A    
C48   C52   A    
C35   Cl7   S    
C12   C88   S    
C89   O37   D    
C98   O55   D    
O30   H1    S    
C34   C38   A    
C95   O49   D    
O7    C3    A    
C73   Cl13  S    
C92   O43   D    
C25   C57   A    
C32   C36   A    
O9    V1    S    
N4    C40   S    
C14   O22   S    
N4    C20   A    
C90   O40   S    
O44   H8    S    
C32   Cl4   S    
O4    C8    A    
C98   O56   S    
C64   C67   A    
C49   C81   A    
O1    V3    S    
C28   Cl11  S    
C52   C84   A    
O2    V4    S    
C101  O61   D    
C51   C83   A    
C65   C82   A    
O3    V1    S    
C73   C77   A    
C27   Cl12  S    
C61   C73   A    
C67   C84   A    
C56   C79   A    
C1    O15   A    
C62   C74   A    
C25   Cl10  S    
C11   C12   D    
C63   C71   A    
C24   C40   A    
O2    C6    A    
O40   H6    S    
C16   C48   A    
O14   V2    S    
C45   C49   A    
C91   O42   S    
C11   C87   S    
C100  O59   D    
C21   C94   S    
C74   Cl14  S    
C28   C60   A    
C44   C71   A    
O11   C7    A    
C17   O26   S    
C64   C76   A    
O15   V3    S    
O12   C8    A    
C9    C85   S    
C101  O62   S    
C31   C59   A    
C75   C79   A    
O10   V2    S    
O16   V4    S    
C81   C101  S    
C1    C60   S    
C89   O38   S    
C29   C57   A    
C103  O65   D    
O5    V1    S    
C95   O50   S    
C31   C35   A    
C83   C103  S    
O7    V3    S    
C30   C34   A    
N1    C37   S    
O64   H18   S    
O8    V4    S    
C17   C53   A    
C4    C57   S    
O36   H4    S    
C54   C77   A    
C76   Cl16  S    
C53   C78   A    
C97   O54   S    
C2    O16   A    
O46   H9    S    
C21   C25   A    
O18   V4    S    
O60   H16   S    
N3    C19   A    
C55   C80   A    
C14   C46   A    
C62   C65   A    
C7    C9    S    
C21   C37   A    
C104  O67   D    
C13   C45   A    
C8    C10   S    
C44   C56   A    
C76   C80   A    
C36   C40   A    
C15   C47   A    
C97   O53   D    
O54   H13   S    
C61   C69   A    
O5    C1    A    
C88   O35   D    
C33   Cl5   S    
C46   C50   A    
C65   C69   A    
O66   H19   S    
C22   C38   A    
N1    C17   A    
O8    C4    A    
N3    C39   S    
C82   C102  S    
C100  O60   S    
C9    C10   D    
O9    C5    A    
C68   C83   A    
C27   C59   A    
C42   C54   A    
C26   C58   A    
C41   C53   A    
C85   O29   D    
C63   C75   A    
C42   C69   A    
C5    C11   S    
C43   C55   A    
C41   C70   A    
C30   Cl2   S    
C2    C59   S    
C79   C99   S    
O62   H17   S    
C49   C89   S    
C19   C55   A    
C86   O31   D    
C22   C26   A    
C92   O44   S    
C50   C82   A    
C22   C93   S    
C13   N1    A    
O32   H2    S    
C85   O30   S    
C66   C81   A    
C15   N3    A    
C87   O33   D    
C74   C78   A    
C20   O27   S    
C77   C97   S    
O58   H15   S    
C16   N4    A    
C102  O63   D    
C3    O13   A    
O6    V2    S    
C63   C68   A    
C31   Cl3   S    
C44   C48   A    
O6    C2    A    
C15   O23   S    
C52   C92   S    
O11   V3    S    
C34   Cl6   S    
O12   V4    S    
C6    C12   S    
N2    C18   A    
C19   O28   S    
C24   C95   S    
C18   O25   S    
C23   C96   S    
O10   C6    A    
C64   C72   A    
C84   C104  S    
C104  O68   S    
O56   H14   S    
O50   H11   S    
C66   C70   A    
C90   O39   D    
C14   N2    A    
C75   Cl15  S    
C26   Cl9   S    
C3    C58   S    
C29   Cl1   S    
C51   C91   S    
C43   C72   A    
C10   C86   S    
C33   C37   A    
C30   C58   A    
O20   V2    S    
C103  O66   S    
C96   O52   S    
C36   Cl8   S    
C35   C39   A    
O68   H20   S    
C13   O21   S    
C99   O57   D    
C20   C56   A    
O4    V2    S    
C80   C100  S    
N2    C38   S    
C50   C90   S    
C18   C54   A    
O52   H12   S    
C47   C51   A    
C29   C33   A    
C16   O24   S    
C24   C28   A    
C62   C70   A    
C93   O46   S    
C96   O51   D    
C42   C46   A    
C4    O14   A    
O42   H7    S    
C86   O32   S    
C88   O36   S    
C41   C45   A    
C32   C60   A    
C99   O58   S    
C91   O41   D    
C102  O64   S    
C43   C47   A    
C61   C66   A    
C23   C39   A    
O34   H3    S    
C87   O34   S    
C94   O48   S    
