data_mof_unit_50267.cif
_audit_creation_date              2012-12-11T15:09:17-0500
_audit_creation_method            fapswitch 2.2
_symmetry_space_group_name_H-M    P1
_symmetry_Int_Tables_number       1
_space_group_crystal_system       triclinic
_cell_length_a                    25.967554
_cell_length_b                    27.591816
_cell_length_c                    8.491909
_cell_angle_alpha                 89.999751
_cell_angle_beta                  96.294454
_cell_angle_gamma                 90.027234
_cell_volume                      6047.704664

loop_
_atom_site_label
_atom_site_type_symbol
_atom_type_description
_atom_site_fract_x
_atom_site_fract_y
_atom_site_fract_z
_atom_type_partial_charge
Ba1   Ba    Ba6+2 0.999910 0.465960 0.844870 1.682242
Ba2   Ba    Ba6+2 0.999910 0.534040 0.344870 1.690307
Ba3   Ba    Ba6+2 0.499910 0.965960 0.844870 1.682175
Ba4   Ba    Ba6+2 0.499910 0.034040 0.344870 1.690255
C1    C     C_3   0.043254 0.241676 0.685530 -0.304590
C2    C     C_R   0.849063 0.644959 0.595467 -0.128430
C3    C     C_3   0.512510 0.215383 0.113181 0.294866
C4    C     C_R   0.911310 0.386388 0.304291 -0.216319
C5    C     C_R   0.909327 0.612506 0.807234 -0.164250
C6    C     C_R   0.411340 0.886367 0.304241 -0.216783
C7    C     C_R   0.409328 0.112505 0.807232 -0.164253
C8    C     C_2   0.235624 0.461205 0.379986 0.549350
C9    C     C_2   0.237783 0.534717 0.884379 0.550660
C10   C     C_2   0.735623 0.961204 0.379984 0.549351
C11   C     C_2   0.737784 0.034713 0.884383 0.550663
C12   C     C_3   0.797014 0.575635 0.923131 0.207319
C13   C     C_R   0.350344 0.854318 0.093555 -0.119525
C14   C     C_3   0.799525 0.423194 0.424633 0.215400
C15   C     C_3   0.296982 0.075625 0.922994 0.207058
C16   C     C_3   0.299785 0.923186 0.424949 0.217050
C17   C     C_2   0.744716 0.426934 0.969911 0.482243
C18   C     C_2   0.744247 0.571233 0.467668 0.487521
C19   C     C_2   0.244700 0.926949 0.970097 0.482386
C20   C     C_2   0.244222 0.071251 0.467540 0.487003
C21   C     C_2   0.014287 0.282717 0.430185 0.555557
C22   C     C_2   0.014379 0.717204 0.938718 0.398300
C23   C     C_2   0.514293 0.782702 0.430167 0.555503
C24   C     C_R   0.349073 0.144964 0.595449 -0.128469
C25   C     C_2   0.514379 0.217205 0.938728 0.398298
C26   C     C_2   0.853860 0.204039 0.237766 0.503809
C27   C     C_2   0.851611 0.794568 0.740768 0.502473
C28   C     C_2   0.353857 0.704050 0.237697 0.503803
C29   C     C_2   0.351608 0.294575 0.740844 0.502487
C30   C     C_R   0.840117 0.313607 0.188217 -0.019702
C31   C     C_R   0.838057 0.685136 0.691321 -0.021496
C32   C     C_R   0.340099 0.813617 0.188245 -0.019677
C33   C     C_R   0.338068 0.185142 0.691298 -0.021501
C34   C     C_R   0.865174 0.311715 0.344576 -0.163361
C35   C     C_R   0.862606 0.686743 0.848357 -0.176746
C36   C     C_R   0.365169 0.811718 0.344583 -0.163332
C37   C     C_3   0.038464 0.761034 0.186872 -0.448177
C38   C     C_R   0.362611 0.186746 0.848342 -0.176735
C39   C     C_R   0.901361 0.347237 0.400464 0.004919
C40   C     C_R   0.898775 0.651242 0.904351 0.068485
C41   C     C_R   0.401380 0.847224 0.400433 0.004682
C42   C     C_R   0.398776 0.151243 0.904346 0.068488
C43   C     C_R   0.804676 0.225422 0.162733 -0.054385
C44   C     C_R   0.802407 0.773132 0.665953 -0.047997
C45   C     C_R   0.304666 0.725432 0.162717 -0.054379
C46   C     C_R   0.302411 0.273138 0.665980 -0.048006
C47   C     C_R   0.262607 0.693835 0.115642 -0.047576
C48   C     C_3   0.543282 0.741685 0.685538 -0.304595
C49   C     C_R   0.260273 0.304629 0.619219 -0.046110
C50   C     C_R   0.762615 0.193826 0.115664 -0.047563
C51   C     C_R   0.760271 0.804625 0.619186 -0.046123
C52   C     C_R   0.216148 0.710846 0.033270 0.033175
C53   C     C_R   0.213741 0.287513 0.537347 0.027492
C54   C     C_R   0.716163 0.210836 0.033240 0.033180
C55   C     C_R   0.713731 0.787505 0.537371 0.027495
C56   C     C_R   0.212361 0.760323 0.997531 -0.075377
C57   C     C_R   0.210054 0.238002 0.501596 -0.078958
C58   C     C_R   0.712390 0.260310 0.997432 -0.075390
C59   C     C_3   0.538460 0.261036 0.186882 -0.448190
C60   C     C_R   0.710032 0.737990 0.501694 -0.078982
C61   C     C_R   0.753192 0.291996 0.044910 -0.056785
C62   C     C_R   0.750980 0.706411 0.548607 -0.059810
C63   C     C_R   0.253160 0.792012 0.045023 -0.056785
C64   C     C_R   0.251006 0.206425 0.548495 -0.059749
C65   C     C_3   0.979086 0.295212 0.026488 0.363423
C66   C     C_3   0.980800 0.704792 0.522200 0.334195
C67   C     C_3   0.479088 0.795210 0.026473 0.363366
C68   C     C_3   0.480800 0.204792 0.522212 0.334206
C69   C     C_R   0.799672 0.276106 0.130173 -0.007698
C70   C     C_R   0.884908 0.391267 0.153031 0.053998
C71   C     C_R   0.797479 0.722459 0.633435 -0.005328
C72   C     C_R   0.299650 0.776119 0.130217 -0.007704
C73   C     C_R   0.297493 0.222468 0.633400 -0.005333
C74   C     C_R   0.143860 0.681809 0.830321 -0.153325
C75   C     C_R   0.140695 0.316017 0.336007 -0.109810
C76   C     C_R   0.643868 0.181803 0.830305 -0.153322
C77   C     C_R   0.640690 0.816012 0.336022 -0.109831
C78   C     C_R   0.103688 0.649311 0.780269 0.076672
C79   C     C_R   0.100400 0.348406 0.286292 0.027311
C80   C     C_R   0.603691 0.149308 0.780263 0.076671
C81   C     C_R   0.883889 0.608192 0.654527 0.034409
C82   C     C_R   0.600398 0.848404 0.286299 0.027277
C83   C     C_R   0.117219 0.607754 0.033980 0.045715
C84   C     C_R   0.115575 0.391307 0.536817 0.064413
C85   C     C_R   0.617222 0.107754 0.033977 0.045711
C86   C     C_R   0.615574 0.891307 0.536820 0.064432
C87   C     C_R   0.158358 0.639472 0.082640 -0.092192
C88   C     C_R   0.156610 0.359507 0.585568 -0.085787
C89   C     C_R   0.658364 0.139469 0.082629 -0.092192
C90   C     C_R   0.656607 0.859505 0.585576 -0.085789
C91   C     C_R   0.172039 0.677147 0.982040 -0.012335
C92   C     C_R   0.384911 0.891264 0.153022 0.053929
C93   C     C_R   0.169489 0.321134 0.486556 -0.016145
C94   C     C_R   0.672049 0.177140 0.982022 -0.012316
C95   C     C_R   0.669483 0.821129 0.486571 -0.016167
C96   C     C_R   0.090047 0.613295 0.883858 -0.224813
C97   C     C_R   0.087061 0.384708 0.389095 -0.313673
C98   C     C_R   0.590048 0.113295 0.883857 -0.224803
C99   C     C_R   0.587060 0.884707 0.389097 -0.313691
C100  C     C_3   0.951720 0.246717 0.998081 -0.319369
C101  C     C_3   0.953182 0.753461 0.507787 -0.361644
C102  C     C_3   0.451726 0.746713 0.998045 -0.319334
C103  C     C_R   0.383894 0.108193 0.654520 0.034470
C104  C     C_3   0.453182 0.253460 0.507813 -0.361673
C105  C     C_3   0.148594 0.469842 0.225490 0.233758
C106  C     C_3   0.150826 0.528922 0.727821 0.234461
C107  C     C_3   0.648592 0.969842 0.225492 0.233761
C108  C     C_3   0.650828 0.028921 0.727821 0.234461
C109  C     C_3   0.198548 0.440196 0.249769 -0.266523
C110  C     C_3   0.201684 0.557182 0.754595 -0.266880
C111  C     C_3   0.698546 0.940194 0.249772 -0.266530
C112  C     C_3   0.701688 0.057179 0.754596 -0.266875
C113  C     C_3   0.807613 0.491190 0.900016 0.658441
C114  C     C_R   0.850364 0.354308 0.093531 -0.119613
C115  C     C_3   0.808253 0.507800 0.399409 0.656650
C116  C     C_3   0.307603 0.991179 0.900038 0.658490
C117  C     C_3   0.308241 0.007809 0.399446 0.656459
C118  C     C_3   0.752961 0.479691 0.945860 -0.249866
C119  C     C_3   0.753252 0.518587 0.443542 -0.251153
C120  C     C_3   0.252954 0.979699 0.945945 -0.249882
C121  C     C_3   0.253244 0.018598 0.443597 -0.250755
C122  C     C_3   0.015045 0.285660 0.606749 0.260176
C123  C     C_3   0.012512 0.715381 0.113171 0.294862
C124  C     C_3   0.515062 0.785659 0.606730 0.260219
H1    H     H_    0.037715 0.318024 0.650819 0.021373
H2    H     H_    0.220703 0.557499 0.643573 0.088280
H3    H     H_    0.623473 0.049188 0.642019 0.043302
H4    H     H_    0.249839 0.497956 0.370144 0.054999
H5    H     H_    0.250961 0.497699 0.872723 0.051419
H6    H     H_    0.749839 0.997954 0.370135 0.055006
H7    H     H_    0.750961 0.997695 0.872729 0.051416
H8    H     H_    0.827306 0.579172 0.025525 0.040271
H9    H     H_    0.757904 0.573283 0.963321 0.029869
H10   H     H_    0.796443 0.609566 0.854306 0.082272
H11   H     H_    0.760545 0.424993 0.465964 0.023631
H12   H     H_    0.830171 0.420222 0.526274 0.050404
H13   H     H_    0.717285 0.939873 0.138242 0.086291
H14   H     H_    0.799341 0.389173 0.356352 0.083651
H15   H     H_    0.327224 0.079155 0.025513 0.040267
H16   H     H_    0.257844 0.073294 0.962973 0.030080
H17   H     H_    0.296465 0.109551 0.854172 0.082270
H18   H     H_    0.261086 0.925069 0.468077 0.021968
H19   H     H_    0.330824 0.920102 0.525400 0.050568
H20   H     H_    0.299185 0.889194 0.356389 0.083713
H21   H     H_    0.750846 0.401550 0.876242 -0.080092
H22   H     H_    0.750789 0.596897 0.375150 -0.079633
H23   H     H_    0.250807 0.901549 0.876446 -0.080064
H24   H     H_    0.720708 0.057494 0.643575 0.088286
H25   H     H_    0.250758 0.096889 0.374941 -0.079426
H26   H     H_    0.005075 0.315159 0.362233 -0.165815
H27   H     H_    0.021703 0.750707 0.877838 0.023711
H28   H     H_    0.505082 0.815139 0.362194 -0.165664
H29   H     H_    0.521702 0.250709 0.877849 0.023706
H30   H     H_    0.889017 0.225299 0.254122 -0.003243
H31   H     H_    0.886713 0.773271 0.757543 -0.015690
H32   H     H_    0.389010 0.725316 0.254061 -0.003244
H33   H     H_    0.386716 0.273283 0.757587 -0.015691
H34   H     H_    0.816199 0.463732 0.811290 -0.001777
H35   H     H_    0.816651 0.535273 0.310493 -0.000332
H36   H     H_    0.316177 0.963703 0.811345 -0.001836
H37   H     H_    0.316642 0.035277 0.310514 -0.000332
H38   H     H_    0.723504 0.491842 0.849096 0.068029
H39   H     H_    0.724239 0.506131 0.345993 0.068530
H40   H     H_    0.223492 0.991840 0.849179 0.067916
H41   H     H_    0.035416 0.683983 0.164416 0.072565
H42   H     H_    0.224225 0.006099 0.346127 0.068857
H43   H     H_    0.746036 0.499344 0.055820 0.107891
H44   H     H_    0.746199 0.498790 0.553138 0.109210
H45   H     H_    0.246043 0.999377 0.055875 0.107862
H46   H     H_    0.246201 0.998846 0.553282 0.109546
H47   H     H_    0.020863 0.207927 0.656213 0.154515
H48   H     H_    0.077389 0.766008 0.146083 0.083885
H49   H     H_    0.520896 0.707930 0.656259 0.154511
H50   H     H_    0.577384 0.266012 0.146096 0.083885
H51   H     H_    0.082410 0.238050 0.645333 0.092602
H52   H     H_    0.537729 0.818029 0.650758 0.021335
H53   H     H_    0.044373 0.757892 0.317265 0.167413
H54   H     H_    0.582436 0.738060 0.645324 0.092560
H55   H     H_    0.544367 0.257894 0.317275 0.167407
H56   H     H_    0.960404 0.222898 0.102766 0.161692
H57   H     H_    0.961361 0.774050 0.619975 0.120730
H58   H     H_    0.460403 0.722894 0.102733 0.161691
H59   H     H_    0.461363 0.274048 0.620004 0.120718
H60   H     H_    0.179971 0.634331 0.197858 0.092452
H61   H     H_    0.178855 0.365241 0.699486 0.091575
H62   H     H_    0.679977 0.134327 0.197848 0.092440
H63   H     H_    0.535414 0.183985 0.164428 0.072573
H64   H     H_    0.678853 0.865239 0.699493 0.091583
H65   H     H_    0.266592 0.655366 0.139188 0.155747
H66   H     H_    0.264272 0.343093 0.642737 0.157208
H67   H     H_    0.766592 0.155360 0.139256 0.155733
H68   H     H_    0.764276 0.843091 0.642658 0.157226
H69   H     H_    0.831164 0.357645 0.974478 0.067462
H70   H     H_    0.830216 0.641897 0.475884 0.072035
H71   H     H_    0.331130 0.857662 0.974522 0.067377
H72   H     H_    0.330229 0.141900 0.475862 0.072055
H73   H     H_    0.177161 0.774946 0.935182 0.074769
H74   H     H_    0.189583 0.402210 0.278118 0.064044
H75   H     H_    0.174835 0.223260 0.439645 0.094229
H76   H     H_    0.677197 0.274933 0.935038 0.074769
H77   H     H_    0.674804 0.723248 0.439793 0.094226
H78   H     H_    0.747600 0.329578 0.016831 0.122003
H79   H     H_    0.745526 0.668787 0.520522 0.124966
H80   H     H_    0.247558 0.829598 0.017012 0.121973
H81   H     H_    0.245562 0.168805 0.520330 0.124971
H82   H     H_    0.153772 0.709855 0.749732 0.080134
H83   H     H_    0.150504 0.287951 0.255379 0.088051
H84   H     H_    0.653782 0.209845 0.749707 0.080116
H85   H     H_    0.193862 0.595256 0.784899 0.059558
H86   H     H_    0.650496 0.787942 0.255403 0.088071
H87   H     H_    0.855990 0.283246 0.424588 0.081499
H88   H     H_    0.853217 0.715103 0.928464 0.078354
H89   H     H_    0.355981 0.783253 0.424604 0.081520
H90   H     H_    0.353221 0.215104 0.928451 0.078353
H91   H     H_    0.058999 0.588410 0.844995 0.074427
H92   H     H_    0.056085 0.409617 0.350082 0.068730
H93   H     H_    0.558998 0.088412 0.845000 0.074435
H94   H     H_    0.556086 0.909618 0.350080 0.068737
H95   H     H_    0.048701 0.246015 0.815458 0.145317
H96   H     H_    0.689580 0.902209 0.278127 0.064049
H97   H     H_    0.014450 0.793557 0.153818 0.141846
H98   H     H_    0.548734 0.746035 0.815462 0.145338
H99   H     H_    0.514445 0.293558 0.153826 0.141844
H100  H     H_    0.938231 0.414238 0.350205 0.071809
H101  H     H_    0.936397 0.584765 0.852897 0.073059
H102  H     H_    0.438279 0.914206 0.350127 0.071816
H103  H     H_    0.436394 0.084762 0.852902 0.073077
H104  H     H_    0.970507 0.318109 0.920543 0.109089
H105  H     H_    0.974691 0.685189 0.409321 0.102223
H106  H     H_    0.470512 0.818109 0.920532 0.109136
H107  H     H_    0.693867 0.095253 0.784898 0.059562
H108  H     H_    0.474689 0.185191 0.409330 0.102214
H109  H     H_    0.962923 0.313305 0.126421 -0.019725
H110  H     H_    0.962306 0.682993 0.609589 0.067078
H111  H     H_    0.462920 0.813299 0.126402 -0.019672
H112  H     H_    0.462308 0.182991 0.609602 0.067079
H113  H     H_    0.909237 0.252603 0.976382 0.063436
H114  H     H_    0.910766 0.747540 0.482885 0.081325
H115  H     H_    0.409243 0.752598 0.976313 0.063452
H116  H     H_    0.410765 0.247540 0.482920 0.081329
H117  H     H_    0.964626 0.228163 0.893669 0.144903
H118  H     H_    0.217289 0.439877 0.138241 0.086298
H119  H     H_    0.966166 0.775281 0.410150 0.147630
H120  H     H_    0.464643 0.728160 0.893646 0.144922
H121  H     H_    0.466162 0.275282 0.410176 0.147625
H122  H     H_    0.131967 0.473530 0.339535 0.012053
H123  H     H_    0.134211 0.524772 0.841795 0.007193
H124  H     H_    0.631965 0.973530 0.339538 0.012058
H125  H     H_    0.634213 0.024772 0.841794 0.007193
H126  H     H_    0.120692 0.450762 0.138080 0.058885
H127  H     H_    0.123470 0.549188 0.642019 0.043306
H128  H     H_    0.620690 0.950762 0.138084 0.058891
O1    O     O_2   0.898940 0.431940 0.867860 -0.481192
O2    O     O_3   0.034187 0.711704 0.566480 -0.602297
O3    O     O_3   0.532833 0.787863 0.058716 -0.583882
O4    O     O_3   0.534188 0.211704 0.566485 -0.602296
O5    O     O_3   0.058810 0.523750 0.066650 -0.495121
O6    O     O_3   0.058810 0.476250 0.566650 -0.494288
O7    O     O_3   0.558810 0.023750 0.066650 -0.495115
O8    O     O_3   0.558810 0.976250 0.566650 -0.494288
O9    O     O_3   0.941140 0.476130 0.123050 -0.455987
O10   O     O_3   0.941140 0.523870 0.623050 -0.453989
O11   O     O_3   0.441140 0.976130 0.123050 -0.455974
O12   O     O_2   0.898940 0.568060 0.367860 -0.482527
O13   O     O_3   0.441140 0.023870 0.623050 -0.454009
O14   O     O_3   0.982430 0.389880 0.635700 -0.487212
O15   O     O_3   0.982430 0.610120 0.135700 -0.471373
O16   O     O_3   0.482430 0.889880 0.635700 -0.487191
O17   O     O_3   0.482430 0.110120 0.135700 -0.471367
O18   O     O_2   0.896130 0.351101 0.724631 -0.502291
O19   O     O_2   0.895502 0.647885 0.229412 -0.514818
O20   O     O_2   0.396136 0.851091 0.724602 -0.502364
O21   O     O_2   0.395500 0.147883 0.229404 -0.514797
O22   O     O_3   0.844405 0.491866 0.036063 -0.622730
O23   O     O_2   0.398940 0.931940 0.867860 -0.481202
O24   O     O_3   0.844662 0.507856 0.536315 -0.622388
O25   O     O_3   0.344405 0.991866 0.036062 -0.622739
O26   O     O_3   0.344657 0.007862 0.536341 -0.622535
O27   O     O_3   0.963827 0.287345 0.648166 -0.628294
O28   O     O_3   0.960410 0.713085 0.146309 -0.619286
O29   O     O_3   0.463848 0.787342 0.648176 -0.628250
O30   O     O_3   0.460407 0.213084 0.146313 -0.619287
O31   O     O_2   0.100770 0.431440 0.821660 -0.465290
O32   O     O_2   0.100770 0.568560 0.321660 -0.465686
O33   O     O_2   0.600770 0.931440 0.821660 -0.465288
O34   O     O_2   0.398940 0.068060 0.367860 -0.482515
O35   O     O_2   0.600770 0.068560 0.321660 -0.465684
O36   O     O_3   0.017130 0.389790 0.053700 -0.509327
O37   O     O_3   0.017130 0.610210 0.553700 -0.494452
O38   O     O_3   0.517130 0.889790 0.053700 -0.509296
O39   O     O_3   0.517130 0.110210 0.553700 -0.494449
O40   O     O_2   0.099944 0.347360 0.954392 -0.492512
O41   O     O_2   0.098865 0.653129 0.445518 -0.503431
O42   O     O_2   0.599946 0.847360 0.954400 -0.492507
O43   O     O_2   0.598864 0.153130 0.445511 -0.503432
O44   O     O_2   0.250165 0.437197 0.497175 -0.577380
O45   O     O_3   0.161306 0.483631 0.665845 -0.626137
O46   O     O_2   0.252650 0.557828 0.003301 -0.574535
O47   O     O_2   0.750164 0.937197 0.497176 -0.577374
O48   O     O_2   0.752652 0.057825 0.003303 -0.574538
O49   O     O_3   0.807499 0.536760 0.822233 -0.653824
O50   O     O_3   0.809058 0.462112 0.322700 -0.653924
O51   O     O_3   0.307497 0.036738 0.822187 -0.653838
O52   O     O_3   0.309009 0.962121 0.322732 -0.654059
O53   O     O_2   0.729380 0.412544 0.092418 -0.572888
O54   O     O_2   0.727832 0.585216 0.589027 -0.570093
O55   O     O_2   0.229380 0.912582 0.092663 -0.572689
O56   O     O_3   0.160548 0.515387 0.167850 -0.627601
O57   O     O_2   0.227801 0.085267 0.588854 -0.570118
O58   O     O_2   0.023929 0.245134 0.363245 -0.577969
O59   O     O_2   0.005659 0.680340 0.862942 -0.666597
O60   O     O_2   0.523924 0.745112 0.363250 -0.577952
O61   O     O_2   0.505664 0.180340 0.862953 -0.666598
O62   O     O_2   0.855924 0.161834 0.281356 -0.540971
O63   O     O_2   0.853746 0.836833 0.783737 -0.549047
O64   O     O_2   0.355932 0.661841 0.281233 -0.540959
O65   O     O_2   0.353732 0.336832 0.783887 -0.549060
O66   O     O_3   0.661306 0.983630 0.665844 -0.626134
O67   O     O_3   0.660547 0.015385 0.167851 -0.627603
O68   O     O_3   0.032831 0.287864 0.058713 -0.583855
P1    P     P_3+3 0.893960 0.447890 0.040050 1.034146
P2    P     P_3+3 0.065030 0.655018 0.584604 0.981747
P3    P     P_3+3 0.563808 0.844167 0.087478 0.954994
P4    P     P_3+3 0.565030 0.155018 0.584603 0.981748
P5    P     P_3+3 0.933936 0.654832 0.104505 0.978792
P6    P     P_3+3 0.935421 0.344355 0.601977 0.927492
P7    P     P_3+3 0.433936 0.154831 0.104503 0.978821
P8    P     P_3+3 0.435432 0.844347 0.601961 0.927323
P9    P     P_3+3 0.893960 0.552110 0.540050 1.035082
P10   P     P_3+3 0.393960 0.947890 0.040050 1.034076
P11   P     P_3+3 0.393960 0.052110 0.540050 1.035007
P12   P     P_3+3 0.105800 0.447360 0.649510 1.001211
P13   P     P_3+3 0.105800 0.552640 0.149510 1.001127
P14   P     P_3+3 0.605800 0.947360 0.649510 1.001215
P15   P     P_3+3 0.605800 0.052640 0.149510 1.001132
P16   P     P_3+3 0.063808 0.344167 0.087474 0.955011

loop_
_geom_bond_atom_site_label_1
_geom_bond_atom_site_label_2
_ccdc_geom_bond_type
C87   H60   S    
C111  H13   S    
C3    C25   S    
C115  O50   S    
C51   C55   A    
C79   P16   S    
C110  H85   S    
C102  H115  S    
C18   H22   S    
C89   H62   S    
Ba2   O15   S    
C2    C81   A    
O8    P14   S    
O9    P1    S    
C83   C87   A    
C82   C99   A    
C64   C73   A    
C2    C31   A    
O20   P8    D    
C67   H106  S    
C33   C38   A    
C1    H51   S    
C120  H40   S    
C65   O68   S    
C96   H91   S    
C45   C47   A    
C1    C122  S    
O39   P4    S    
Ba4   O39   S    
C124  H52   S    
O33   P14   D    
C77   C82   A    
Ba2   P9    S    
C49   H66   S    
C110  H2    S    
C40   P5    S    
C46   C49   A    
C59   H55   S    
O68   P16   S    
C111  H96   S    
C102  H58   S    
C65   H104  S    
Ba1   P12   S    
O35   P15   D    
C59   H99   S    
C77   C95   A    
C122  H1    S    
C29   C46   S    
Ba3   P10   S    
O1    P1    D    
C68   H108  S    
C60   C62   A    
C29   H33   S    
C21   C122  S    
C23   C124  S    
C74   C78   A    
Ba3   O23   S    
C14   H14   S    
Ba2   O12   S    
C122  O27   S    
C4    C70   A    
C29   O65   D    
C13   C92   A    
C116  O25   S    
C37   H48   S    
C27   C44   S    
C16   H18   S    
C46   C73   A    
C88   H61   S    
C23   H28   S    
O38   P3    S    
C7    H103  S    
C8    H4    S    
C21   H26   S    
C9    H5    S    
C75   C93   A    
C12   H10   S    
Ba3   O38   S    
C48   H54   S    
C38   H90   S    
C66   C101  S    
C53   C57   A    
C120  H45   S    
C115  C119  S    
C60   H77   S    
O26   P11   S    
C39   P6    S    
Ba4   O35   S    
C34   C39   A    
C3    O30   S    
C62   H79   S    
C108  O66   S    
Ba2   O6    S    
C112  H107  S    
O42   P3    D    
C13   H71   S    
C108  H3    S    
C30   C69   S    
C67   C102  S    
C7    C42   A    
O2    P2    S    
C30   C114  A    
C52   C91   S    
O13   P11   S    
O43   P4    D    
C80   C98   A    
C37   C123  S    
C54   C94   S    
Ba3   P14   S    
C4    H100  S    
O56   P13   S    
Ba4   O11   S    
O32   P13   D    
C14   O50   S    
Ba4   O17   S    
C26   O62   D    
C21   O58   D    
C67   O3    S    
C100  H113  S    
C105  H126  S    
C6    H102  S    
C86   P14   S    
C48   H49   S    
C5    C81   A    
C68   C104  S    
C56   C63   A    
C16   H20   S    
C13   C32   A    
C17   H21   S    
O27   P6    S    
C106  C110  S    
O22   P1    S    
C119  H44   S    
C70   P1    S    
C74   H82   S    
C76   H84   S    
C51   H68   S    
O18   P6    D    
C80   P4    S    
Ba2   O37   S    
C22   H27   S    
Ba4   P15   S    
C121  H46   S    
O10   P9    S    
C88   C93   A    
C70   C114  A    
C45   C72   A    
C15   O51   S    
C47   H65   S    
C107  H124  S    
C66   H105  S    
C123  O28   S    
C113  C118  S    
C117  C121  S    
C113  O22   S    
O11   P10   S    
O66   P14   S    
O24   P9    S    
O6    P12   S    
Ba4   O8    S    
C58   H76   S    
C6    C41   A    
C14   H12   S    
C83   P13   S    
C3    C59   S    
C48   H98   S    
O15   P5    S    
C9    O46   D    
Ba3   Ba4   S    
C12   H8    S    
C108  C112  S    
C83   C96   A    
C79   C97   A    
C35   C40   A    
C113  H34   S    
C123  H41   S    
C117  H37   S    
C22   O59   D    
Ba3   O13   S    
C81   P9    S    
C24   C33   A    
O36   P16   S    
Ba1   P1    S    
C116  O51   S    
C78   P2    S    
C22   C123  S    
C85   C89   A    
Ba4   O34   S    
C28   C45   S    
C116  H36   S    
C87   C91   A    
Ba1   O6    S    
C12   O49   S    
Ba4   P11   S    
C118  H43   S    
C106  O45   S    
C66   H110  S    
C63   H80   S    
C54   C58   A    
C44   C51   A    
O7    P15   S    
C15   H16   S    
C36   H89   S    
C103  P11   S    
C4    C39   A    
O4    P4    S    
C34   H87   S    
C76   C80   A    
C37   H53   S    
C48   C124  S    
C18   C119  S    
C75   H83   S    
C59   H50   S    
O14   P6    S    
C124  O29   S    
C10   C111  S    
C38   C42   A    
C17   C118  S    
C101  H119  S    
Ba1   O10   S    
C10   O47   D    
C9    C110  S    
C16   O52   S    
O16   P8    S    
C17   O53   D    
C1    H47   S    
C3    H63   S    
O28   P5    S    
C86   C90   A    
Ba1   O1    S    
C36   C41   A    
C37   H97   S    
C105  H122  S    
O19   P5    D    
C43   C69   A    
C115  O24   S    
C49   C53   A    
Ba2   P13   S    
C25   H29   S    
C33   C73   S    
C52   C56   A    
C67   H111  S    
C31   C35   A    
C74   C91   A    
O12   P9    D    
C24   H72   S    
C109  H74   S    
C121  H42   S    
C43   C50   A    
C100  H56   S    
C113  O49   S    
C101  H114  S    
Ba1   O31   S    
C20   H25   S    
Ba2   O32   S    
C107  H128  S    
C50   H67   S    
C76   C94   A    
C107  O67   S    
C20   O57   D    
O21   P7    D    
C92   P10   S    
C104  H121  S    
C75   C79   A    
C97   H92   S    
C62   C71   A    
C105  O56   S    
O45   P12   S    
C86   C99   A    
C56   H73   S    
C66   O2    S    
C11   C112  S    
C102  H120  S    
C98   H93   S    
O67   P15   S    
C118  H38   S    
C85   C98   A    
C55   C95   S    
O40   P16   D    
C104  H59   S    
O3    P3    S    
C12   H9    S    
Ba3   O8    S    
C82   P3    S    
C84   C97   A    
O31   P12   D    
C61   H78   S    
O29   P8    S    
C31   C71   S    
C55   C60   A    
C15   H17   S    
C35   H88   S    
C11   O48   D    
C47   C52   A    
C99   H94   S    
Ba2   O5    S    
C11   H7    S    
C24   C103  A    
C109  H118  S    
C61   C69   A    
C5    H101  S    
Ba1   Ba2   S    
C101  H57   S    
C32   C72   S    
C84   C88   A    
C68   H112  S    
C19   O55   D    
C106  H127  S    
C105  C109  S    
C119  H39   S    
C53   C93   S    
C8    O44   D    
O37   P2    S    
C44   C71   A    
C64   H81   S    
C25   O61   D    
O25   P10   S    
C26   C43   S    
C32   C36   A    
C115  H35   S    
C2    H70   S    
Ba1   O14   S    
C10   H6    S    
Ba2   O9    S    
Ba3   O16   S    
Ba1   O36   S    
O34   P11   D    
O5    P13   S    
C77   H86   S    
C6    C92   A    
C104  H116  S    
C16   H19   S    
C18   O54   D    
C84   P12   S    
C41   P8    S    
Ba1   O5    S    
C1    H95   S    
C68   O4    S    
C117  O52   S    
Ba3   O7    S    
C23   O60   D    
C7    C103  A    
C20   C121  S    
C117  O26   S    
Ba3   O33   S    
C112  H24   S    
C8    C109  S    
C50   C54   A    
C65   C100  S    
C26   H30   S    
C19   H23   S    
C5    C40   A    
C15   H15   S    
C58   C61   A    
C30   C34   A    
C78   C96   A    
C19   C120  S    
C106  H123  S    
C57   H75   S    
O30   P7    S    
C57   C64   A    
C108  H125  S    
C90   C95   A    
Ba4   O7    S    
C42   P7    S    
O23   P10   D    
C14   H11   S    
C90   H64   S    
C27   O63   D    
C28   O64   D    
C85   P15   S    
C100  H117  S    
O17   P7    S    
C107  C111  S    
C63   C72   A    
C114  H69   S    
C65   H109  S    
C89   C94   A    
C27   H31   S    
C116  C120  S    
O41   P2    D    
C28   H32   S    
