data_mof_unit_50628.cif
_audit_creation_date              2012-12-10T17:04:30-0500
_audit_creation_method            fapswitch 2.2
_symmetry_space_group_name_H-M    P1
_symmetry_Int_Tables_number       1
_space_group_crystal_system       triclinic
_cell_length_a                    14.95565
_cell_length_b                    10.683387
_cell_length_c                    10.006441
_cell_angle_alpha                 92.52136
_cell_angle_beta                  90.047042
_cell_angle_gamma                 90.496233
_cell_volume                      1597.19021761

loop_
_atom_site_label
_atom_site_type_symbol
_atom_type_description
_atom_site_fract_x
_atom_site_fract_y
_atom_site_fract_z
_atom_type_partial_charge
C1    C     C_R   0.499629 0.261853 0.496396 0.964815
C2    C     C_R   0.907068 0.607621 0.563640 0.165130
C3    C     C_R   0.949932 0.299828 0.381445 0.491949
C4    C     C_R   0.042767 0.300217 0.380219 -0.259890
C5    C     C_R   0.091395 0.400380 0.440738 0.041424
C6    C     C_R   0.046172 0.503596 0.501628 -0.020112
C7    C     C_R   0.094223 0.606110 0.561500 0.151247
C8    C     C_R   0.048163 0.707299 0.622187 -0.200610
C9    C     C_R   0.955629 0.707637 0.624004 -0.235493
C10   C     C_R   0.184486 0.399069 0.441401 0.012638
C11   C     C_R   0.231450 0.501784 0.500125 -0.132538
C12   C     C_R   0.327061 0.500338 0.499994 0.868338
C13   C     C_R   0.187371 0.605593 0.559550 0.005351
C14   C     C_2   0.438814 0.926887 0.400361 0.017950
C15   C     C_2   0.463438 0.867116 0.511315 -0.175910
C16   C     C_2   0.444343 0.065136 0.397726 0.527998
C17   C     C_2   0.498458 0.128205 0.485592 -0.443184
C18   C     C_2   0.550918 0.573323 0.928388 -0.204036
C19   C     C_2   0.558063 0.563229 0.078361 0.146641
C20   C     C_R   0.489914 0.736893 0.502762 0.889014
C21   C     C_R   0.672764 0.502809 0.500250 0.881882
C22   C     C_R   0.813806 0.608124 0.563807 0.030681
C23   C     C_R   0.767861 0.506793 0.500845 -0.099533
C24   C     C_R   0.812112 0.406944 0.438022 -0.266648
C25   C     C_R   0.904635 0.403229 0.439943 -0.013977
C26   C     C_R   0.952633 0.504706 0.501915 -0.022670
H1    H     H_    0.544697 0.082491 0.550418 0.125009
H2    H     H_    0.593111 0.641913 0.881553 0.156637
H3    H     H_    0.466804 0.429738 0.895340 0.170351
H4    H     H_    0.443385 0.471240 0.100209 0.140258
H5    H     H_    0.773513 0.331074 0.390136 0.175234
H6    H     H_    0.076264 0.221370 0.331160 0.198368
H7    H     H_    0.083247 0.786697 0.669189 0.177816
H8    H     H_    0.922497 0.787039 0.672585 0.173311
N1    N     N_2   0.500970 0.501330 0.852150 -0.195784
N2    N     N_2   0.500990 0.501360 0.147810 -0.197045
O1    O     O_R   0.499990 0.319060 0.613040 -0.615079
O2    O     O_R   0.500010 0.319100 0.386900 -0.572211
O3    O     O_R   0.367830 0.499950 0.613080 -0.618595
O4    O     O_R   0.367860 0.499990 0.386940 -0.626845
O5    O     O_R   0.499990 0.680900 0.613100 -0.623927
O6    O     O_R   0.500010 0.680940 0.386960 -0.611271
O7    O     O_R   0.632140 0.500010 0.613060 -0.618342
O8    O     O_R   0.632170 0.500050 0.386920 -0.587986
Zn1   Zn    Zn3+2 0.499980 0.499970 0.650990 0.931745
Zn2   Zn    Zn3+2 0.500020 0.500030 0.349010 0.951029
N3    N     N_3   0.766573 0.712770 0.624151 -0.486986
H9    H     H_    0.723854 0.748885 0.552860 0.176840
H10   H     H_    0.728259 0.681616 0.703572 0.202784
N4    N     N_3   0.453215 0.926616 0.642440 -0.467087
H11   H     H_    0.403993 0.877780 0.693557 0.202032
H12   H     H_    0.513339 0.918491 0.694724 0.186685
O9    O     O_3   0.393462 0.130977 0.307853 -0.613032
C27   C     C_3   0.413547 0.093956 0.173356 0.154448
H13   H     H_    0.358097 0.033955 0.132281 0.173664
H14   H     H_    0.478023 0.042742 0.161008 0.117925
C28   C     C_3   0.420458 0.208073 0.089074 -0.864316
H15   H     H_    0.482757 0.260031 0.116055 0.259739
H16   H     H_    0.423889 0.178263 0.981464 0.208323
H17   H     H_    0.361456 0.269137 0.105417 0.251619
N5    N     N_3   0.629750 0.628307 0.146846 -0.375891
H18   H     H_    0.689807 0.595790 0.105415 0.176838
H19   H     H_    0.624701 0.723365 0.127566 0.151269
O10   O     O_3   0.904194 0.201370 0.317036 -0.617365
C29   C     C_3   0.879519 0.111616 0.410631 0.075904
H20   H     H_    0.813733 0.071116 0.379330 0.165335
H21   H     H_    0.870483 0.151379 0.514821 0.125407
C30   C     C_3   0.947081 0.005568 0.410022 -0.839574
H22   H     H_    0.011852 0.039889 0.452331 0.244668
H23   H     H_    0.921515 0.929447 0.471911 0.222082
H24   H     H_    0.957614 0.967254 0.306317 0.269974
N6    N     N_3   0.230769 0.291633 0.385728 -0.442216
H25   H     H_    0.272607 0.257254 0.459153 0.215740
H26   H     H_    0.269481 0.319235 0.305220 0.236999
N7    N     N_3   0.236570 0.711910 0.615122 -0.475662
H27   H     H_    0.278779 0.745795 0.541498 0.178613
H28   H     H_    0.275263 0.683706 0.695202 0.208596
N8    N     N_3   0.403208 0.858939 0.284275 -0.481539
H29   H     H_    0.358538 0.789141 0.312824 0.206245
H30   H     H_    0.455180 0.821107 0.226110 0.198807

loop_
_geom_bond_atom_site_label_1
_geom_bond_atom_site_label_2
_ccdc_geom_bond_type
C20   O5    A    
C7    C8    A    
N3    H10   S    
C3    O10   S    
O4    Zn2   S    
C19   N2    D    
C5    C6    A    
N8    H30   S    
C28   H16   S    
C16   C17   D    
C18   C19   S    
O6    Zn2   S    
C15   N4    S    
N5    H19   S    
C16   O9    S    
C21   O7    A    
C13   N7    S    
C8    C9    A    
C29   H21   S    
C2    C22   A    
N4    H12   S    
C23   C24   A    
N2    Zn2   S    
C18   N1    D    
C1    O1    A    
O3    Zn1   S    
C22   N3    S    
O8    Zn2   S    
C15   C20   S    
C27   H14   S    
C17   H1    S    
C3    C25   A    
C18   H2    S    
C24   C25   A    
N6    H26   S    
N8    H29   S    
N6    H25   S    
C28   H17   S    
C25   C26   A    
O9    C27   S    
C12   O4    A    
N7    H27   S    
C21   O8    A    
O7    Zn1   S    
N3    H9    S    
C29   C30   S    
N4    H11   S    
C2    C26   A    
N7    H28   S    
C4    H6    S    
C1    O2    A    
C21   C23   S    
C9    H8    S    
C14   C16   S    
O1    Zn1   S    
C3    C4    A    
N1    Zn1   S    
C27   H13   S    
C22   C23   A    
C30   H22   S    
C4    C5    A    
C20   O6    A    
C11   C12   S    
C6    C7    A    
H3    N1    S    
C1    C17   S    
H4    N2    S    
O10   C29   S    
C12   O3    A    
C24   H5    S    
C5    C10   A    
C11   C13   A    
C28   H15   S    
C6    C26   A    
C19   N5    S    
C30   H24   S    
C8    H7    S    
C14   N8    S    
N5    H18   S    
O2    Zn2   S    
C10   C11   A    
C7    C13   A    
C30   H23   S    
C29   H20   S    
O5    Zn1   S    
C14   C15   D    
C2    C9    A    
C27   C28   S    
C10   N6    S    
