data_mof_unit_41429.cif
_audit_creation_date              2013-03-05T16:12:48-0500
_audit_creation_method            fapswitch 2.2
_symmetry_space_group_name_H-M    P1
_symmetry_Int_Tables_number       1
_space_group_crystal_system       triclinic
_cell_length_a                    10.702362
_cell_length_b                    9.819141
_cell_length_c                    27.761483
_cell_angle_alpha                 90.068577
_cell_angle_beta                  90.145561
_cell_angle_gamma                 90.000681
_cell_volume                      2917.38726268

loop_
_atom_site_label
_atom_site_type_symbol
_atom_site_description
_atom_site_fract_x
_atom_site_fract_y
_atom_site_fract_z
_atom_type_partial_charge
O1    O     O_R   0.316770 0.614620 0.500000 -0.628101
O2    O     O_R   0.683230 0.385380 0.500000 -0.628097
O3    O     O_R   0.683230 0.614620 0.500000 -0.626248
O4    O     O_R   0.316770 0.385380 0.500000 -0.626259
C1    C     C_R   0.259831 0.500003 0.499969 0.875320
C2    C     C_R   0.740169 0.499997 0.500031 0.875306
O5    O     O_R   0.500030 0.614650 0.428760 -0.622247
O6    O     O_R   0.499970 0.385350 0.571240 -0.622325
O7    O     O_R   0.499970 0.614650 0.571240 -0.624890
O8    O     O_R   0.500030 0.385350 0.428760 -0.624910
C3    C     C_R   0.499619 0.499897 0.405993 0.907572
C4    C     C_R   0.500390 0.500102 0.594008 0.907504
Zn1   Zn    Zn3+2 0.500000 0.653120 0.500000 0.953411
Zn2   Zn    Zn3+2 0.500000 0.346880 0.500000 0.953383
C5    C     C_R   0.382076 0.501237 0.177715 0.541774
C6    C     C_R   0.618115 0.499073 0.822288 0.543343
O9    O     O_2   0.274620 0.502633 0.203031 -0.511460
O10   O     O_2   0.725582 0.498043 0.796976 -0.511559
N1    N     N_R   0.493233 0.499762 0.201823 -0.344655
N2    N     N_R   0.506964 0.500185 0.798174 -0.344515
C7    C     C_R   0.604916 0.498198 0.178466 0.565284
C8    C     C_R   0.395269 0.501387 0.821524 0.564573
C9    C     C_R   0.483387 0.621794 0.278056 -0.192705
C10   C     C_R   0.515948 0.378091 0.721943 -0.193285
C11   C     C_R   0.485251 0.622370 0.328046 -0.204725
C12   C     C_R   0.514046 0.377530 0.671955 -0.204721
C13   C     C_R   0.506314 0.375922 0.328120 -0.315787
C14   C     C_R   0.494619 0.624149 0.671884 -0.316445
C15   C     C_R   0.501846 0.374765 0.277823 0.589965
C16   C     C_R   0.499210 0.625283 0.722188 0.589864
C17   C     C_R   0.492798 0.498702 0.253082 0.221209
C18   C     C_R   0.507407 0.501259 0.746917 0.221970
C19   C     C_R   0.495051 0.499918 0.101971 -0.121632
C20   C     C_R   0.505103 0.499999 0.898026 -0.121645
C21   C     C_R   0.380101 0.500982 0.127012 -0.143160
C22   C     C_R   0.620067 0.499296 0.872990 -0.143448
C23   C     C_R   0.267362 0.501320 0.100875 0.563908
C24   C     C_R   0.732795 0.499295 0.899135 0.564034
C25   C     C_R   0.608030 0.498063 0.128213 -0.006308
C26   C     C_R   0.392135 0.501501 0.871776 -0.006006
C27   C     C_R   0.497184 0.499469 0.353386 -0.107111
C28   C     C_R   0.502891 0.500524 0.646617 -0.106776
H1    H     H_    0.517936 0.280586 0.347199 0.175794
H2    H     H_    0.483542 0.719547 0.652797 0.175484
C29   C     C_R   0.385856 0.500430 0.973576 0.097875
C30   C     C_R   0.614265 0.499279 0.026418 0.097854
C31   C     C_R   0.616648 0.500679 0.975296 -0.027284
C32   C     C_R   0.383473 0.499355 0.024703 -0.027227
C33   C     C_R   0.502609 0.499835 0.949167 0.073110
C34   C     C_R   0.497522 0.500057 0.050829 0.073077
C35   C     C_R   0.274905 0.504315 0.945726 -0.214560
C36   C     C_R   0.725215 0.494840 0.054254 -0.214681
C37   C     C_R   0.278351 0.504274 0.895957 -0.140515
C38   C     C_R   0.721799 0.494864 0.104024 -0.140601
O11   O     O_2   0.287698 0.502452 0.795990 -0.541826
O12   O     O_2   0.712496 0.496823 0.203991 -0.541434
C39   C     C_R   0.270186 0.496100 0.050754 -0.319872
C40   C     C_R   0.729936 0.504440 0.949256 -0.319889
H3    H     H_    0.520860 0.280980 0.653228 0.170959
H4    H     H_    0.477755 0.718850 0.346774 0.170882
H5    H     H_    0.523346 0.282887 0.741409 0.155904
H6    H     H_    0.475350 0.716929 0.258589 0.155845
H7    H     H_    0.190619 0.507361 0.876435 0.193780
H8    H     H_    0.809534 0.491409 0.123538 0.194155
H9    H     H_    0.182662 0.509189 0.960859 0.140487
H10   H     H_    0.817412 0.489393 0.039099 0.140626
H11   H     H_    0.180345 0.487642 0.033658 0.155026
H12   H     H_    0.819730 0.513359 0.966369 0.155117
C41   C     C_R   0.063892 0.379285 0.489476 -0.185515
C42   C     C_R   0.936108 0.620714 0.510524 -0.185543
C43   C     C_R   0.935965 0.379264 0.489525 -0.185224
C44   C     C_R   0.064035 0.620736 0.510475 -0.185242
H13   H     H_    0.112644 0.285604 0.480948 0.154604
H14   H     H_    0.887356 0.714395 0.519052 0.154591
H15   H     H_    0.887098 0.285561 0.481038 0.159723
H16   H     H_    0.112902 0.714439 0.518962 0.159712
C45   C     C_R   0.872561 0.499986 0.500038 -0.013711
C46   C     C_R   0.127439 0.500014 0.499962 -0.013714
C47   C     C_R   0.576222 0.072128 0.530572 -0.072343
C48   C     C_R   0.423778 0.927872 0.469428 -0.072241
C49   C     C_R   0.423778 0.071929 0.469427 -0.072595
C50   C     C_R   0.576221 0.928071 0.530573 -0.072645
H17   H     H_    0.637088 0.126959 0.554983 0.126847
H18   H     H_    0.362911 0.873041 0.445017 0.126823
H19   H     H_    0.362907 0.126599 0.445017 0.123370
H20   H     H_    0.637091 0.873400 0.554983 0.123270
N3    N     N_R   0.500000 0.857200 0.500000 -0.080371
N4    N     N_R   0.500000 0.142800 0.500000 -0.080389
O13   O     O_3   0.516107 0.254725 0.252297 -0.596947
C51   C     C_3   0.406432 0.176311 0.256983 -0.301592
H21   H     H_    0.321999 0.234647 0.245695 0.195402
H22   H     H_    0.395294 0.137822 0.294387 0.151672
H23   H     H_    0.413918 0.086433 0.232905 0.199698
O14   O     O_3   0.485838 0.745387 0.747767 -0.597271
C52   C     C_3   0.595272 0.823924 0.742509 -0.300476
H24   H     H_    0.604379 0.863509 0.705164 0.151457
H25   H     H_    0.680344 0.765319 0.752921 0.195065
H26   H     H_    0.589061 0.913107 0.766972 0.199746
O15   O     O_3   0.153144 0.495302 0.124091 -0.559313
C53   C     C_3   0.094466 0.623631 0.120666 -0.228508
H27   H     H_    0.063557 0.644739 0.083140 0.127932
H28   H     H_    0.156243 0.706942 0.134014 0.161144
H29   H     H_    0.009981 0.622843 0.143714 0.206996
O16   O     O_3   0.847008 0.505599 0.875928 -0.559228
C54   C     C_3   0.905892 0.377377 0.879327 -0.228589
H30   H     H_    0.844186 0.293928 0.866044 0.161010
H31   H     H_    0.937020 0.356398 0.916834 0.127909
H32   H     H_    0.990243 0.378270 0.856208 0.206999

loop_
_geom_bond_atom_site_label_1
_geom_bond_atom_site_label_2
_geom_bond_distance
_ccdc_geom_bond_type
C47   H17   1.081821 S    
C10   H5    1.083149 S    
C13   C15   1.397052 A    
C52   H24   1.112154 S    
C23   O15   1.384649 S    
C44   H16   1.083711 S    
O3    C2    1.279887 A    
N1    C17   1.423104 S    
C15   O13   1.383228 S    
C52   H26   1.109635 S    
C32   C39   1.413721 A    
C31   C33   1.418213 A    
O5    C3    1.291279 A    
C54   H31   1.111921 S    
C19   C25   1.410189 A    
O1    C1    1.279819 A    
N1    C7    1.361356 A    
C10   C12   1.387821 A    
C48   N3    1.365742 A    
C25   C38   1.392329 A    
C29   C35   1.415841 A    
C50   N3    1.365707 A    
C30   C36   1.415797 A    
C35   H9    1.074914 S    
C14   C28   1.404171 A    
C41   C43   1.369119 A    
O7    Zn1   2.013921 S    
O16   C54   1.411098 S    
C4    C28   1.460674 S    
C24   C40   1.392695 A    
C9    H6    1.083089 S    
C42   H14   1.083771 S    
C44   C46   1.396767 A    
C41   H13   1.083771 S    
C11   H4    1.083172 S    
C16   C18   1.401326 A    
C12   H3    1.083236 S    
O3    Zn1   1.997104 S    
C6    N2    1.363571 A    
C32   C34   1.418258 A    
C42   C45   1.396690 A    
C41   C46   1.396690 A    
O2    C2    1.279817 A    
C39   H11   1.074369 S    
C5    C21   1.407675 A    
C47   N4    1.365741 A    
C36   C38   1.382254 A    
C54   H32   1.109022 S    
C48   H18   1.081822 S    
O8    Zn2   2.013927 S    
C11   C27   1.403244 A    
O4    C1    1.279887 A    
C2    C45   1.416912 S    
C19   C34   1.420080 A    
C50   H20   1.081862 S    
C14   H2    1.083134 S    
C53   H29   1.109048 S    
C35   C37   1.382247 A    
C9    C17   1.396437 A    
C5    N1    1.363591 A    
C10   C18   1.396437 A    
C7    O12   1.350499 S    
C13   C27   1.404097 A    
C51   H22   1.112138 S    
O15   C53   1.411106 S    
C7    C25   1.395582 A    
C29   C33   1.422962 A    
O6    C4    1.291295 A    
C8    C26   1.395582 A    
Zn1   N3    2.003890 S    
C53   H28   1.114294 S    
C6    O10   1.349374 S    
C40   H12   1.074467 S    
N2    C8    1.361337 A    
C20   C26   1.410154 A    
O1    Zn1   1.997096 S    
C43   C45   1.396766 A    
C36   H10   1.074976 S    
C12   C28   1.403276 A    
C51   H23   1.109480 S    
N2    C18   1.423045 S    
C29   C32   1.419710 A    
C5    O9    1.349378 S    
C30   C31   1.419597 A    
C20   C33   1.420086 A    
O6    Zn2   2.013033 S    
C21   C23   1.406375 A    
C48   C49   1.414512 A    
C47   C50   1.414512 A    
C24   O16   1.384615 S    
C52   H25   1.114777 S    
C8    O11   1.350504 S    
C54   H30   1.114253 S    
C30   C34   1.422911 A    
C22   C24   1.406367 A    
O13   C51   1.410148 S    
Zn2   N4    2.003890 S    
C16   O14   1.383488 S    
C6    C22   1.407683 A    
C31   C40   1.413689 A    
C43   H15   1.083711 S    
C37   H7    1.083374 S    
C51   H21   1.114391 S    
C38   H8    1.083414 S    
C14   C16   1.397287 A    
C53   H27   1.111958 S    
C19   C21   1.414644 A    
C3    C27   1.460618 S    
C20   C22   1.414662 A    
C9    C11   1.387872 A    
O4    Zn2   1.997104 S    
O14   C52   1.410264 S    
O2    Zn2   1.997096 S    
O7    C4    1.290865 A    
C23   C39   1.392720 A    
C49   N4    1.365708 A    
O8    C3    1.290842 A    
C13   H1    1.083129 S    
O5    Zn1   2.013039 S    
C15   C17   1.401347 A    
C26   C37   1.392278 A    
C42   C44   1.369119 A    
C1    C46   1.416913 S    
C49   H19   1.081864 S    
