data_mof_unit_41403.cif
_audit_creation_date              2012-12-11T14:42:15-0500
_audit_creation_method            fapswitch 2.2
_symmetry_space_group_name_H-M    P1
_symmetry_Int_Tables_number       1
_space_group_crystal_system       triclinic
_cell_length_a                    19.000989
_cell_length_b                    10.996167
_cell_length_c                    18.746733
_cell_angle_alpha                 89.720189
_cell_angle_beta                  90.337579
_cell_angle_gamma                 90.081416
_cell_volume                      3916.78731383

loop_
_atom_site_label
_atom_site_type_symbol
_atom_type_description
_atom_site_fract_x
_atom_site_fract_y
_atom_site_fract_z
_atom_type_partial_charge
C1    C     C_R   0.727807 0.953616 0.853029 0.540804
C2    C     C_R   0.251714 0.398186 0.920093 0.029187
C3    C     C_3   0.941112 0.910474 0.452678 -0.372960
C4    C     C_R   0.248480 0.898974 0.079843 0.030038
C5    C     C_R   0.751714 0.898186 0.920093 0.029187
C6    C     C_R   0.791070 0.310771 0.047871 -0.125712
C7    C     C_R   0.209341 0.309406 0.952397 -0.127189
C8    C     C_R   0.291070 0.810771 0.047871 -0.125712
C9    C     C_R   0.709341 0.809406 0.952397 -0.127189
C10   C     C_R   0.780927 0.280490 0.977037 -0.128891
C11   C     C_R   0.219610 0.279110 0.023348 -0.128832
C12   C     C_R   0.280927 0.780490 0.977037 -0.128891
C13   C     C_R   0.272215 0.953975 0.146924 0.543994
C14   C     C_R   0.719610 0.779110 0.023348 -0.128832
C15   C     C_R   0.727747 0.336768 0.936823 0.028467
C16   C     C_R   0.272698 0.335941 0.063242 0.027157
C17   C     C_R   0.227747 0.836768 0.936823 0.028467
C18   C     C_R   0.772698 0.835941 0.063242 0.027157
C19   C     C_R   0.450523 0.268672 0.557224 0.016571
C20   C     C_R   0.446028 0.282877 0.483249 0.007089
C21   C     C_R   0.950523 0.768674 0.557223 0.016571
C22   C     C_R   0.946028 0.782879 0.483248 0.007090
C23   C     C_R   0.454522 0.177915 0.439486 0.026958
C24   C     C_R   0.227807 0.453615 0.853029 0.540805
C25   C     C_R   0.483761 0.164354 0.584102 0.028438
C26   C     C_R   0.954523 0.677916 0.439486 0.026959
C27   C     C_R   0.983761 0.664356 0.584102 0.028438
C28   C     C_R   0.476359 0.067751 0.469937 -0.162627
C29   C     C_R   0.492736 0.061756 0.541485 -0.163045
C30   C     C_R   0.976359 0.567752 0.469937 -0.162628
C31   C     C_R   0.992736 0.561757 0.541484 -0.163045
C32   C     C_R   0.817270 0.419155 0.547913 -0.155157
C33   C     C_R   0.224265 0.297852 0.473453 -0.130885
C34   C     C_R   0.317270 0.919153 0.547913 -0.155159
C35   C     C_R   0.772215 0.453975 0.146924 0.543994
C36   C     C_R   0.724272 0.797844 0.473455 -0.130885
C37   C     C_R   0.821936 0.422518 0.474420 -0.153390
C38   C     C_R   0.219480 0.320159 0.545428 -0.147002
C39   C     C_R   0.321936 0.922514 0.474419 -0.153388
C40   C     C_R   0.719487 0.820151 0.545430 -0.146999
C41   C     C_R   0.529978 0.177405 0.850769 0.542583
C42   C     C_R   0.469966 0.177869 0.149199 0.557295
C43   C     C_R   0.029978 0.677405 0.850769 0.542584
C44   C     C_R   0.969966 0.677869 0.149199 0.557296
C45   C     C_R   0.762074 0.442285 0.431503 0.038537
C46   C     C_R   0.690276 0.445418 0.042196 -0.145503
C47   C     C_R   0.243377 0.430899 0.572093 0.031582
C48   C     C_R   0.262073 0.942284 0.431503 0.038541
C49   C     C_R   0.743379 0.930896 0.572094 0.031585
C50   C     C_R   0.696490 0.464322 0.464275 -0.027204
C51   C     C_R   0.274245 0.517796 0.524936 -0.037805
C52   C     C_R   0.196490 0.964322 0.464275 -0.027201
C53   C     C_R   0.774241 0.017798 0.524935 -0.037808
C54   C     C_R   0.692200 0.456783 0.538447 -0.119495
C55   C     C_R   0.274176 0.496942 0.452455 -0.133063
C56   C     C_R   0.192200 0.956783 0.538447 -0.119492
C57   C     C_R   0.309910 0.445115 0.957433 -0.145871
C58   C     C_R   0.774173 0.996941 0.452455 -0.133064
C59   C     C_R   0.751475 0.426425 0.579759 -0.001053
C60   C     C_R   0.250878 0.387270 0.427302 0.020977
C61   C     C_R   0.251474 0.926424 0.579759 -0.001053
C62   C     C_R   0.750880 0.887265 0.427303 0.020977
C63   C     C_R   0.724027 0.312646 0.860074 0.565944
C64   C     C_R   0.276147 0.312344 0.140108 0.568267
C65   C     C_R   0.224027 0.812646 0.860074 0.565944
C66   C     C_R   0.776147 0.812344 0.140108 0.568267
C67   C     C_R   0.726334 0.960556 0.645468 0.547527
C68   C     C_R   0.190276 0.945418 0.042196 -0.145503
C69   C     C_R   0.274088 0.960752 0.355180 0.542077
C70   C     C_R   0.226334 0.460558 0.645467 0.547527
C71   C     C_R   0.774089 0.460753 0.355181 0.542077
C72   C     C_R   0.526309 0.175577 0.647766 0.550463
C73   C     C_R   0.438561 0.181318 0.363225 0.561889
C74   C     C_R   0.026308 0.675578 0.647767 0.550465
C75   C     C_R   0.938561 0.681318 0.363224 0.561889
C76   C     C_R   0.740579 0.368538 0.648919 0.543653
C77   C     C_R   0.260898 0.357735 0.354234 0.548968
C78   C     C_R   0.240579 0.868537 0.648919 0.543654
C79   C     C_R   0.809910 0.945115 0.957433 -0.145871
C80   C     C_R   0.760898 0.857734 0.354234 0.548968
C81   C     C_2   0.497495 0.167652 0.920933 -0.108261
C82   C     C_2   0.502581 0.168985 0.079083 -0.108784
C83   C     C_2   0.997495 0.667652 0.920933 -0.108261
C84   C     C_2   0.002581 0.668985 0.079083 -0.108784
C85   C     C_2   0.492579 0.069760 0.038658 -0.157277
C86   C     C_2   0.509200 0.069636 0.962379 -0.156526
C87   C     C_2   0.992579 0.569760 0.038658 -0.157277
C88   C     C_2   0.009200 0.569636 0.962379 -0.156526
C89   C     C_R   0.679917 0.414519 0.970739 -0.138295
C90   C     C_R   0.748480 0.398974 0.079843 0.030038
C91   C     C_R   0.320412 0.414139 0.028978 -0.139071
C92   C     C_R   0.179917 0.914519 0.970739 -0.138295
C93   C     C_R   0.820412 0.914139 0.028978 -0.139071
C94   C     C_3   0.630067 0.490037 0.422679 -0.390928
C95   C     C_3   0.304441 0.635534 0.547939 -0.363654
C96   C     C_3   0.130067 0.990036 0.422679 -0.390929
C97   C     C_3   0.804430 0.135542 0.547937 -0.363648
C98   C     C_3   0.425135 0.366674 0.607362 -0.369450
C99   C     C_3   0.441110 0.410473 0.452678 -0.372961
C100  C     C_3   0.925135 0.866677 0.607361 -0.369454
Cr1   Cr    Cr6+3 0.769270 0.163730 0.750710 0.993568
Cr2   Cr    Cr6+3 0.385840 0.322500 0.252290 0.999098
Cr3   Cr    Cr6+3 0.114160 0.822500 0.747710 1.003922
Cr4   Cr    Cr6+3 0.885840 0.822500 0.252290 0.999098
Cr5   Cr    Cr6+3 0.230730 0.163730 0.249290 0.998886
Cr6   Cr    Cr6+3 0.269270 0.663730 0.750710 0.993569
Cr7   Cr    Cr6+3 0.730730 0.663730 0.249290 0.998887
Cr8   Cr    Cr6+3 0.612620 0.009790 0.748780 1.009964
Cr9   Cr    Cr6+3 0.387380 0.009790 0.251220 1.010186
Cr10  Cr    Cr6+3 0.112620 0.509790 0.748780 1.009964
Cr11  Cr    Cr6+3 0.887380 0.509790 0.251220 1.010185
Cr12  Cr    Cr6+3 0.614160 0.322500 0.747710 1.003922
H1    H     H_    0.470635 0.986891 0.061202 0.157374
H2    H     H_    0.363551 0.455615 0.058030 0.130993
H3    H     H_    0.136657 0.955503 0.941499 0.131081
H4    H     H_    0.863551 0.955615 0.058030 0.130992
H5    H     H_    0.655152 0.510135 0.066664 0.117031
H6    H     H_    0.344794 0.510536 0.932706 0.117005
H7    H     H_    0.155152 0.010135 0.066664 0.117031
H8    H     H_    0.844794 0.010536 0.932706 0.117005
H9    H     H_    0.817000 0.217171 0.952787 0.124642
H10   H     H_    0.183572 0.215624 0.047986 0.124830
H11   H     H_    0.317000 0.717171 0.952787 0.124642
H12   H     H_    0.532535 0.987726 0.940681 0.157707
H13   H     H_    0.683572 0.715624 0.047986 0.124830
H14   H     H_    0.863767 0.396694 0.578999 0.133524
H15   H     H_    0.207785 0.210403 0.453768 0.142365
H16   H     H_    0.363767 0.896690 0.578998 0.133525
H17   H     H_    0.707796 0.710391 0.453771 0.142364
H18   H     H_    0.585254 0.502340 0.459366 0.104670
H19   H     H_    0.633987 0.576194 0.392163 0.161124
H20   H     H_    0.618404 0.413541 0.385997 0.153640
H21   H     H_    0.333809 0.681377 0.504452 0.108151
H22   H     H_    0.258617 0.691276 0.561483 0.181703
H23   H     H_    0.970635 0.486891 0.061202 0.157374
H24   H     H_    0.342810 0.623530 0.592161 0.163554
H25   H     H_    0.085254 0.002340 0.459365 0.104669
H26   H     H_    0.133986 0.076192 0.392162 0.161123
H27   H     H_    0.118404 0.913540 0.385998 0.153639
H28   H     H_    0.833794 0.181390 0.504449 0.108158
H29   H     H_    0.758603 0.191275 0.561483 0.181698
H30   H     H_    0.842802 0.123545 0.592157 0.163557
H31   H     H_    0.641142 0.464908 0.563440 0.140974
H32   H     H_    0.294923 0.563956 0.415365 0.117274
H33   H     H_    0.141142 0.964909 0.563440 0.140972
H34   H     H_    0.032535 0.487726 0.940681 0.157707
H35   H     H_    0.794916 0.063958 0.415363 0.117274
H36   H     H_    0.526402 0.250358 0.056530 0.109142
H37   H     H_    0.472498 0.248093 0.942712 0.108937
H38   H     H_    0.026402 0.750358 0.056530 0.109143
H39   H     H_    0.972498 0.748093 0.942712 0.108937
H40   H     H_    0.835249 0.270535 0.076077 0.133301
H41   H     H_    0.165175 0.268957 0.924400 0.131974
H42   H     H_    0.335249 0.770535 0.076077 0.133301
H43   H     H_    0.665175 0.768957 0.924400 0.131974
H44   H     H_    0.463989 0.441960 0.611049 0.140520
H45   H     H_    0.872790 0.406281 0.451057 0.133798
H46   H     H_    0.375098 0.402978 0.587930 0.133821
H47   H     H_    0.414444 0.329589 0.661464 0.140491
H48   H     H_    0.394320 0.419696 0.419816 0.175065
H49   H     H_    0.440024 0.484065 0.492653 0.103836
H50   H     H_    0.486954 0.429548 0.418687 0.150414
H51   H     H_    0.963997 0.941948 0.611061 0.140535
H52   H     H_    0.875108 0.903004 0.587920 0.133819
H53   H     H_    0.914428 0.829585 0.661457 0.140482
H54   H     H_    0.894320 0.919702 0.419818 0.175063
H55   H     H_    0.940031 0.984067 0.492652 0.103832
H56   H     H_    0.196621 0.251646 0.580047 0.128932
H57   H     H_    0.986955 0.929547 0.418684 0.150418
H58   H     H_    0.485479 0.987913 0.437718 0.135186
H59   H     H_    0.517013 0.979616 0.562131 0.138540
H60   H     H_    0.985480 0.487914 0.437719 0.135186
H61   H     H_    0.017013 0.479617 0.562131 0.138540
H62   H     H_    0.372790 0.906276 0.451057 0.133798
H63   H     H_    0.696632 0.751636 0.580050 0.128930
H64   H     H_    0.636657 0.455503 0.941499 0.131081
O1    O     O_R   0.784320 0.290430 0.830510 -0.515260
O2    O     O_R   0.456080 0.282180 0.333210 -0.526744
O3    O     O_R   0.043920 0.782180 0.666790 -0.522711
O4    O     O_R   0.956080 0.782180 0.333210 -0.526744
O5    O     O_R   0.679040 0.374160 0.674430 -0.498690
O6    O     O_R   0.320960 0.374160 0.325570 -0.528745
O7    O     O_R   0.179040 0.874160 0.674430 -0.498690
O8    O     O_R   0.820960 0.874160 0.325570 -0.528744
O9    O     O_3   0.665350 0.165340 0.749070 -0.261642
O10   O     O_3   0.334650 0.165340 0.250930 -0.287449
O11   O     O_3   0.165350 0.665340 0.749070 -0.261642
O12   O     O_R   0.215680 0.290430 0.169490 -0.510220
O13   O     O_3   0.834650 0.665340 0.250930 -0.287450
O14   O     O_R   0.762640 0.040960 0.825200 -0.522079
O15   O     O_R   0.237360 0.040960 0.174800 -0.520365
O16   O     O_R   0.262640 0.540960 0.825200 -0.522079
O17   O     O_R   0.737360 0.540960 0.174800 -0.520365
O18   O     O_R   0.667400 0.923970 0.829950 -0.523014
O19   O     O_R   0.332600 0.923970 0.170050 -0.521045
O20   O     O_R   0.167400 0.423970 0.829950 -0.523014
O21   O     O_R   0.832600 0.423970 0.170050 -0.521044
O22   O     O_R   0.553960 0.081340 0.821780 -0.497971
O23   O     O_R   0.284320 0.790430 0.830510 -0.515259
O24   O     O_R   0.446040 0.081340 0.178220 -0.489677
O25   O     O_R   0.053960 0.581340 0.821780 -0.497971
O26   O     O_R   0.946040 0.581340 0.178220 -0.489677
O27   O     O_R   0.543180 0.283240 0.826740 -0.529249
O28   O     O_R   0.456820 0.283240 0.173260 -0.520652
O29   O     O_R   0.043180 0.783240 0.826740 -0.529249
O30   O     O_R   0.956820 0.783240 0.173260 -0.520652
O31   O     O_R   0.678360 0.375140 0.822710 -0.502534
O32   O     O_R   0.321640 0.375140 0.177290 -0.498342
O33   O     O_R   0.178360 0.875140 0.822710 -0.502534
O34   O     O_R   0.715680 0.790430 0.169490 -0.510220
O35   O     O_R   0.821640 0.875140 0.177290 -0.498341
O36   O     O_R   0.785050 0.289380 0.670560 -0.532301
O37   O     O_R   0.214950 0.289380 0.329440 -0.519235
O38   O     O_R   0.285050 0.789380 0.670560 -0.532301
O39   O     O_R   0.714950 0.789380 0.329440 -0.519234
O40   O     O_R   0.763320 0.039990 0.676930 -0.514127
O41   O     O_R   0.236680 0.039990 0.323070 -0.511094
O42   O     O_R   0.263320 0.539990 0.676930 -0.514126
O43   O     O_R   0.736680 0.539990 0.323070 -0.511095
O44   O     O_R   0.668130 0.922920 0.670000 -0.516949
O45   O     O_R   0.554640 0.080370 0.673500 -0.506009
O46   O     O_R   0.331870 0.922920 0.330000 -0.529951
O47   O     O_R   0.168130 0.422920 0.670000 -0.516951
O48   O     O_R   0.831870 0.422920 0.330000 -0.529950
O49   O     O_R   0.445360 0.080370 0.326500 -0.501716
O50   O     O_R   0.054640 0.580370 0.673500 -0.506009
O51   O     O_R   0.945360 0.580370 0.326500 -0.501717
O52   O     O_R   0.543920 0.282180 0.666790 -0.522710

loop_
_geom_bond_atom_site_label_1
_geom_bond_atom_site_label_2
_ccdc_geom_bond_type
C58   C62   A    
C73   O49   A    
C87   C88   S    
C49   C53   A    
Cr12  O52   S    
C37   C45   A    
C45   C71   S    
C43   C83   S    
Cr5   O15   S    
C42   O28   A    
C2    C7    A    
C42   C82   S    
C84   C87   D    
C95   H21   S    
C48   C69   S    
C4    C8    A    
C10   H9    S    
C78   O38   A    
C96   H27   S    
C30   H60   S    
C2    C57   A    
C77   O37   A    
C46   C89   A    
C99   H48   S    
C85   C86   S    
C7    C11   A    
C64   O32   A    
C70   O42   A    
C14   H13   S    
Cr10  O25   S    
C69   O41   A    
Cr5   O12   S    
C62   C80   S    
C67   O44   A    
Cr6   O11   S    
C69   O46   A    
C10   C15   A    
C68   H7    S    
C96   H26   S    
C30   C31   A    
C36   C62   A    
C43   O29   A    
C24   O20   A    
Cr1   O40   S    
C32   H14   S    
C40   C49   A    
C33   H15   S    
C71   O43   A    
C78   O7    A    
C37   H45   S    
C56   H33   S    
C95   H22   S    
Cr2   O28   S    
C65   O23   A    
C74   O3    A    
C4    C13   S    
C12   H11   S    
C12   C17   A    
C43   O25   A    
C52   C96   S    
C71   O48   A    
Cr4   O30   S    
C66   O34   A    
C27   C74   S    
C8    H42   S    
C3    C22   S    
C97   H28   S    
C65   O33   A    
C81   C86   D    
Cr12  O27   S    
C6    H40   S    
C1    O14   A    
C76   O36   A    
C83   C88   D    
C21   C27   A    
C63   O31   A    
C21   C22   A    
Cr11  O13   S    
C44   O26   A    
Cr3   O33   S    
C67   O40   A    
C17   C92   A    
C23   C73   S    
C39   H62   S    
Cr1   O9    S    
Cr10  O47   S    
Cr11  O26   S    
C19   C98   S    
C77   O6    A    
C80   O39   A    
C83   H39   S    
C54   C59   A    
Cr1   O36   S    
C25   C29   A    
Cr10  O11   S    
C98   H44   S    
C60   C77   S    
Cr5   O37   S    
C27   C31   A    
C34   C39   A    
Cr2   O6    S    
C87   H23   S    
Cr8   O9    S    
C36   C40   A    
Cr3   O11   S    
C100  H52   S    
Cr1   O14   S    
Cr10  O50   S    
C96   H25   S    
Cr7   O34   S    
C21   C100  S    
Cr9   O49   S    
C58   H35   S    
C3    H57   S    
C47   C51   A    
C51   C55   A    
C53   C97   S    
C6    C90   A    
C34   C61   A    
C94   H20   S    
C63   O1    A    
C46   H5    S    
C100  H53   S    
C93   H4    S    
Cr5   O10   S    
Cr4   O13   S    
C38   H56   S    
C9    C14   A    
Cr6   O16   S    
C47   C70   S    
C5    C9    A    
C15   C89   A    
C99   H50   S    
C11   C16   A    
C7    H41   S    
C20   C23   A    
C61   C78   S    
C8    C12   A    
C41   C81   S    
C79   H8    S    
Cr7   O13   S    
C44   O30   A    
C70   O47   A    
C24   O16   A    
C25   C72   S    
Cr2   O10   S    
C32   C37   A    
C29   H59   S    
C75   O4    A    
C97   H29   S    
C38   C47   A    
C64   O12   A    
Cr7   O43   S    
C73   O2    A    
C28   H58   S    
Cr6   O42   S    
C26   C30   A    
C33   C60   A    
Cr5   O41   S    
C85   H1    S    
Cr10  O20   S    
Cr2   O2    S    
Cr3   O7    S    
C11   H10   S    
C5    C79   A    
C23   C28   A    
Cr8   O18   S    
C76   O5    A    
C94   H18   S    
C1    C5    S    
Cr12  O9    S    
C35   O21   A    
C4    C68   A    
C31   H61   S    
C99   H49   S    
C28   C29   A    
C15   C63   S    
C55   H32   S    
C57   C91   A    
Cr7   O17   S    
Cr4   O8    S    
C3    H55   S    
C14   C18   A    
C50   C94   S    
C33   C38   A    
Cr12  O31   S    
C41   O22   A    
C44   C84   S    
C13   O15   A    
C6    C10   A    
C40   H63   S    
C82   H36   S    
C53   C58   A    
C34   H16   S    
C49   C67   S    
Cr12  O5    S    
C46   C90   A    
Cr9   O10   S    
C18   C66   S    
C82   C85   D    
C100  H51   S    
C17   C65   S    
C94   H19   S    
Cr4   O35   S    
C91   H2    S    
Cr11  O51   S    
C19   C20   A    
C75   O51   A    
C1    O18   A    
C79   C93   A    
C50   C54   A    
C36   H17   S    
C72   O52   A    
Cr6   O38   S    
C86   H12   S    
Cr8   O45   S    
Cr4   O4    S    
C20   C99   S    
C52   C56   A    
C45   C50   A    
C81   H37   S    
C72   O45   A    
C32   C59   A    
C42   O24   A    
C95   H24   S    
C68   C92   A    
C41   O27   A    
C54   H31   S    
Cr9   O19   S    
Cr3   O3    S    
Cr11  O48   S    
C80   O8    A    
Cr8   O22   S    
C19   C25   A    
C92   H3    S    
C97   H30   S    
Cr6   O23   S    
Cr1   O1    S    
C35   O17   A    
C22   C26   A    
Cr8   O44   S    
C35   C90   S    
C98   H46   S    
Cr3   O29   S    
C48   C52   A    
Cr7   O39   S    
C98   H47   S    
C9    H43   S    
C16   C91   A    
C26   C75   S    
C13   O19   A    
C18   C93   A    
C88   H34   S    
C56   C61   A    
C39   C48   A    
Cr9   O24   S    
C2    C24   S    
C16   C64   S    
C89   H64   S    
C66   O35   A    
C55   C60   A    
Cr2   O32   S    
C59   C76   S    
Cr11  O21   S    
Cr9   O46   S    
C74   O50   A    
C3    H54   S    
C51   C95   S    
C57   H6    S    
C84   H38   S    
