data_mof_unit_60442.cif
_audit_creation_date              2012-10-26T21:25:40-0400
_audit_creation_method            fapswitch 2.2
_symmetry_space_group_name_H-M    P1
_symmetry_Int_Tables_number       1
_space_group_crystal_system       triclinic
_cell_length_a                    16.001951
_cell_length_b                    14.783661
_cell_length_c                    14.366589
_cell_angle_alpha                 89.999659
_cell_angle_beta                  89.988046
_cell_angle_gamma                 89.999967
_cell_volume                      3398.66680442

loop_
_atom_site_label
_atom_site_type_symbol
_atom_type_description
_atom_site_fract_x
_atom_site_fract_y
_atom_site_fract_z
_atom_type_partial_charge
C1    C     C_1   0.251698 0.499999 0.500022 -0.011983
C2    C     C_R   0.659180 0.500000 0.499977 0.550795
C3    C     C_R   0.499999 0.500000 0.330603 0.543142
C4    C     C_R   0.500001 0.500000 0.669397 0.543141
C5    C     C_1   0.500000 0.802471 0.500000 0.091959
C6    C     C_1   0.500000 0.197530 0.500000 0.091878
C7    C     C_1   0.499999 0.500001 0.228419 -0.023019
C8    C     C_1   0.500001 0.499999 0.771581 -0.023022
C9    C     C_1   0.499999 0.500001 0.143136 -0.021923
C10   C     C_1   0.500001 0.500000 0.856864 -0.021925
C11   C     C_1   0.499999 0.500001 0.042641 0.018290
C12   C     C_1   0.748301 0.499999 0.499978 -0.011983
C13   C     C_1   0.500000 0.500001 0.957359 0.018289
C14   C     C_R   0.575993 0.951591 0.509187 0.025199
C15   C     C_R   0.423676 0.048409 0.495273 0.025212
C16   C     C_R   0.424008 0.951591 0.490808 0.025204
C17   C     C_R   0.576323 0.048409 0.504723 0.025216
C18   C     C_R   0.956386 0.582094 0.499997 -0.093688
C19   C     C_R   0.043614 0.417897 0.500003 -0.093556
C20   C     C_R   0.043614 0.582094 0.500004 -0.093688
C21   C     C_R   0.956386 0.417897 0.499995 -0.093556
C22   C     C_2   0.656107 0.100281 0.501913 0.297308
C23   C     C_R   0.912794 0.499996 0.499992 0.035799
C24   C     C_2   0.345707 0.899720 0.473555 0.297337
C25   C     C_2   0.343892 0.100281 0.498079 0.297286
C26   C     C_2   0.654296 0.899720 0.526433 0.297315
C27   C     C_R   0.087206 0.499996 0.500008 0.035799
C28   C     C_1   0.823342 0.499997 0.499984 -0.042582
C29   C     C_1   0.176658 0.499997 0.500016 -0.042582
C30   C     C_R   0.500000 0.902916 0.499999 -0.098483
C31   C     C_R   0.500000 0.097085 0.500000 -0.098503
C32   C     C_R   0.340819 0.500000 0.500023 0.550795
Cu1   Cu    Cu3+1 0.500000 0.589220 0.500000 1.000317
Cu2   Cu    Cu3+1 0.500000 0.410780 0.500000 1.000131
H1    H     H_    0.076996 0.645863 0.500007 0.134399
H2    H     H_    0.923003 0.354128 0.499991 0.135777
H3    H     H_    0.923003 0.645863 0.499996 0.134399
H4    H     H_    0.076997 0.354128 0.500006 0.135777
H5    H     H_    0.660125 0.166560 0.534051 0.110442
H6    H     H_    0.337008 0.833464 0.504581 0.110398
H7    H     H_    0.339880 0.166571 0.465962 0.110448
H8    H     H_    0.662987 0.833457 0.495420 0.110405
N1    N     N_1   0.500000 0.276710 0.500000 -0.185360
N2    N     N_1   0.500000 0.723290 0.500000 -0.185302
O1    O     O_R   0.380310 0.575320 0.500020 -0.485127
O2    O     O_2   0.291911 0.928467 0.421055 -0.445525
O3    O     O_2   0.283086 0.071494 0.540027 -0.445837
O4    O     O_2   0.708104 0.928475 0.578913 -0.445536
O5    O     O_R   0.619690 0.424680 0.499980 -0.484491
O6    O     O_R   0.619690 0.575320 0.499980 -0.485129
O7    O     O_R   0.380310 0.424680 0.500020 -0.484495
O8    O     O_R   0.500000 0.575360 0.376050 -0.472042
O9    O     O_R   0.500000 0.424640 0.623950 -0.472622
O10   O     O_R   0.500000 0.575360 0.623950 -0.472044
O11   O     O_R   0.500000 0.424640 0.376050 -0.472620
O12   O     O_2   0.716902 0.071507 0.459938 -0.445831

loop_
_geom_bond_atom_site_label_1
_geom_bond_atom_site_label_2
_ccdc_geom_bond_type
C3    O8    A    
C32   O7    A    
C15   C31   A    
C2    O5    A    
C4    O9    A    
C27   C29   S    
Cu1   O1    S    
C32   O1    A    
C25   O3    D    
C18   C20   A    
C17   C22   S    
C26   O4    D    
C4    C8    S    
C2    C12   S    
C1    C29   T    
Cu1   Cu2   S    
C24   O2    D    
Cu2   O11   S    
C16   C24   S    
C21   H2    S    
C23   C28   S    
C14   C26   S    
Cu1   O8    S    
C9    C11   S    
C14   C17   A    
Cu2   O7    S    
C14   C30   A    
C22   H5    S    
C20   C27   A    
C18   H3    S    
C12   C28   T    
C6    C31   S    
C3    C7    S    
C6    N1    T    
C21   C23   A    
C17   C31   A    
Cu1   N2    S    
C15   C25   S    
C16   C30   A    
C18   C23   A    
C11   C13   T    
C19   H4    S    
C19   C27   A    
C26   H8    S    
Cu2   O9    S    
C8    C10   T    
C5    C30   S    
C25   H7    S    
Cu1   O10   S    
C7    C9    T    
Cu2   O5    S    
C22   O12   D    
C2    O6    A    
C24   H6    S    
Cu1   O6    S    
C4    O10   A    
C20   H1    S    
C3    O11   A    
C5    N2    T    
C1    C32   S    
Cu2   N1    S    
C15   C16   A    
C19   C21   A    
C10   C13   S    
