data_mof_unit_5613.cif
_audit_creation_date              2012-12-11T14:21:15-0500
_audit_creation_method            fapswitch 2.2
_symmetry_space_group_name_H-M    P1
_symmetry_Int_Tables_number       1
_space_group_crystal_system       triclinic
_cell_length_a                    11.541801
_cell_length_b                    11.483936
_cell_length_c                    19.501821
_cell_angle_alpha                 90.622981
_cell_angle_beta                  90.144883
_cell_angle_gamma                 59.95668
_cell_volume                      2237.44446214

loop_
_atom_site_label
_atom_site_type_symbol
_atom_type_description
_atom_site_fract_x
_atom_site_fract_y
_atom_site_fract_z
_atom_type_partial_charge
C1    C     C_R   0.640629 0.117978 0.599078 0.543407
C2    C     C_1   0.651554 0.683194 0.664015 0.003083
C3    C     C_1   0.146896 0.188042 0.863263 0.003316
C4    C     C_1   0.227756 0.144860 0.735689 -0.029813
C5    C     C_1   0.188088 0.163942 0.805157 -0.027213
C6    C     C_1   0.259023 0.132896 0.676035 0.000815
C7    C     C_1   0.678269 0.190666 0.860933 0.003851
C8    C     C_1   0.658215 0.167852 0.729009 -0.031643
C9    C     C_1   0.665259 0.180809 0.800393 -0.030949
C10   C     C_1   0.652854 0.150558 0.668500 0.002775
C11   C     C_R   0.659874 0.677016 0.191943 -0.011972
C12   C     C_R   0.613762 0.743367 0.597890 0.539363
C13   C     C_R   0.534999 0.721149 0.223429 0.023101
C14   C     C_R   0.534488 0.693448 0.292909 0.031308
C15   C     C_R   0.764044 0.648881 0.302892 -0.147173
C16   C     C_R   0.774042 0.639814 0.232301 -0.141249
C17   C     C_R   0.414588 0.774181 0.185594 -0.057614
C18   C     C_R   0.302586 0.776137 0.213205 -0.066547
C19   C     C_R   0.307621 0.730450 0.279328 -0.132658
C20   C     C_R   0.423165 0.686281 0.318402 -0.099838
C21   C     C_R   0.644195 0.677579 0.334079 -0.001590
C22   C     C_R   0.172205 0.180505 0.184386 -0.004657
C23   C     C_R   0.298333 0.120096 0.605437 0.562196
C24   C     C_R   0.246353 0.239302 0.208285 -0.033292
C25   C     C_R   0.278463 0.230842 0.278751 0.009956
C26   C     C_R   0.203306 0.067430 0.292529 -0.141658
C27   C     C_R   0.153448 0.093304 0.226411 -0.152128
C28   C     C_R   0.279627 0.315670 0.164395 -0.061706
C29   C     C_R   0.310454 0.408820 0.191349 0.376504
C30   C     C_R   0.321777 0.416761 0.261603 -0.122104
C31   C     C_R   0.317273 0.322652 0.304082 -0.163877
C32   C     C_R   0.263014 0.137008 0.320599 0.015284
C33   C     C_R   0.673351 0.185864 0.194546 0.003493
C34   C     C_R   0.648737 0.112150 0.403096 0.539625
C35   C     C_R   0.740288 0.052826 0.219157 0.021862
C36   C     C_R   0.766303 0.033172 0.289646 0.039024
C37   C     C_R   0.615492 0.272068 0.310951 -0.174906
C38   C     C_R   0.617689 0.294455 0.241191 -0.135276
C39   C     C_R   0.796710 0.939904 0.174315 -0.083289
C40   C     C_R   0.901128 0.817095 0.196031 -0.114582
C41   C     C_R   0.943473 0.802312 0.263672 -0.145233
C42   C     C_R   0.876418 0.908192 0.310408 -0.087605
C43   C     C_R   0.683551 0.141225 0.335530 0.002185
C44   C     C_R   0.084638 0.229423 0.929346 0.535476
C45   C     C_R   0.617009 0.735110 0.403084 0.537037
C46   C     C_R   0.708915 0.546251 0.922612 0.550920
C47   C     C_R   0.708035 0.206151 0.930301 0.534059
C48   C     C_R   0.088763 0.232469 0.123238 0.533904
C49   C     C_R   0.681239 0.616213 0.124265 0.532914
C50   C     C_R   0.706710 0.210293 0.126256 0.538531
C51   C     C_R   0.301867 0.116018 0.393516 0.560067
C52   C     C_1   0.698658 0.580987 0.851731 0.001797
C53   C     C_1   0.672952 0.644507 0.722239 -0.028054
C54   C     C_1   0.689062 0.608604 0.791868 -0.030130
Cr1   Cr    Cr6+3 0.404720 0.198220 0.499960 1.007241
Cr2   Cr    Cr6+3 0.698290 0.897110 0.500380 1.018341
Cr3   Cr    Cr6+3 0.396970 0.904720 0.499610 1.021972
Cr4   Cr    Cr6+3 0.926180 0.151990 0.028120 1.023853
Cr5   Cr    Cr6+3 0.921330 0.451820 0.027470 1.030302
Cr6   Cr    Cr6+3 0.626260 0.446870 0.028710 1.082973
H1    H     H_    0.849835 0.632115 0.333133 0.134983
H2    H     H_    0.346528 0.488044 0.283211 0.119488
H3    H     H_    0.342603 0.329079 0.356160 0.177092
H4    H     H_    0.560378 0.356501 0.345677 0.110863
H5    H     H_    0.766710 0.948713 0.121085 0.127938
H6    H     H_    0.574707 0.397108 0.223662 0.180767
H7    H     H_    0.951005 0.734198 0.159942 0.134524
H8    H     H_    0.026932 0.707687 0.280253 0.109757
H9    H     H_    0.918725 0.892415 0.361167 0.143222
H10   H     H_    0.409231 0.807930 0.133421 0.126020
H11   H     H_    0.872547 0.597813 0.209616 0.148670
H12   H     H_    0.212895 0.810426 0.182830 0.136447
H13   H     H_    0.221959 0.729019 0.300567 0.099194
H14   H     H_    0.424940 0.644136 0.367984 0.131911
H15   H     H_    0.185389 0.000314 0.323470 0.145389
H16   H     H_    0.276178 0.308199 0.109162 0.152478
H17   H     H_    0.093623 0.050014 0.209433 0.141166
O1    O     O_R   0.267740 0.231960 0.575440 -0.492113
O2    O     O_R   0.685970 0.784660 0.430010 -0.494634
O3    O     O_R   0.502530 0.767000 0.423990 -0.535738
O4    O     O_R   0.288330 0.026350 0.429250 -0.489688
O5    O     O_3   0.499990 0.000020 0.499980 -0.284762
O6    O     O_R   0.821500 0.119340 0.952830 -0.505829
O7    O     O_R   0.037130 0.162530 0.957360 -0.495766
O8    O     O_R   0.056440 0.344740 0.951340 -0.509953
O9    O     O_R   0.797900 0.560360 0.957470 -0.491451
O10   O     O_R   0.596130 0.579390 0.952730 -0.499499
O11   O     O_R   0.639060 0.321160 0.958670 -0.504632
O12   O     O_R   0.527280 0.186640 0.570530 -0.510355
O13   O     O_R   0.821240 0.124200 0.104370 -0.525348
O14   O     O_R   0.036890 0.167040 0.097840 -0.501727
O15   O     O_R   0.056180 0.349610 0.102880 -0.520828
O16   O     O_R   0.797660 0.564870 0.097950 -0.504335
O17   O     O_R   0.595880 0.584250 0.104270 -0.489133
O18   O     O_R   0.638830 0.325670 0.099150 -0.456225
O19   O     O_3   0.824590 0.350230 0.028100 -0.275793
O20   O     O_R   0.728090 0.003450 0.576380 -0.499773
O21   O     O_R   0.682970 0.789190 0.570490 -0.492009
O22   O     O_R   0.499290 0.771880 0.575530 -0.513154
O23   O     O_R   0.285330 0.030870 0.569730 -0.479492
O24   O     O_R   0.270980 0.227080 0.423890 -0.522709
O25   O     O_R   0.530280 0.182120 0.430050 -0.529192
O26   O     O_R   0.731330 0.998570 0.424830 -0.525283
F1    F     F_    0.330062 0.490807 0.149375 -0.644268

loop_
_geom_bond_atom_site_label_1
_geom_bond_atom_site_label_2
_ccdc_geom_bond_type
C25   C31   A    
C22   C48   S    
C26   C32   A    
C41   C42   A    
C36   C42   A    
C35   C36   A    
Cr2   O21   S    
C2    C12   S    
Cr6   O11   S    
C53   C54   S    
Cr1   O25   S    
C26   C27   A    
C29   C30   A    
Cr2   O2    S    
C14   C21   A    
C28   C29   A    
C30   C31   A    
C50   O18   A    
C15   C16   A    
Cr3   O22   S    
C46   C52   S    
C18   C19   A    
Cr4   O19   S    
C12   O22   A    
C50   O13   A    
C38   H6    S    
C8    C9    S    
C48   O14   A    
C47   O6    A    
C49   O17   A    
Cr4   O14   S    
C51   O4    A    
C12   O21   A    
C25   C32   A    
C23   O23   A    
C17   H10   S    
C13   C14   A    
C39   H5    S    
Cr3   O3    S    
C16   H11   S    
Cr2   O20   S    
Cr6   O10   S    
C52   C54   T    
C26   H15   S    
C41   H8    S    
C21   C45   S    
C18   H12   S    
C3    C44   S    
C34   C43   S    
C14   C20   A    
C19   H13   S    
C24   C25   A    
C4    C6    T    
C1    O20   A    
C39   C40   A    
Cr1   O1    S    
C27   H17   S    
C33   C50   S    
Cr3   O23   S    
C40   H7    S    
C42   H9    S    
C29   F1    S    
C7    C47   S    
C37   C43   A    
C35   C39   A    
Cr5   O8    S    
C32   C51   S    
C37   C38   A    
C11   C49   S    
Cr4   O7    S    
C11   C16   A    
C17   C18   A    
C15   H1    S    
C20   H14   S    
C45   O2    A    
C34   O25   A    
Cr1   O5    S    
Cr4   O13   S    
Cr6   O19   S    
C40   C41   A    
C22   C27   A    
C30   H2    S    
C22   C24   A    
Cr5   O19   S    
C44   O8    A    
C28   H16   S    
C3    C5    T    
C37   H4    S    
C46   O10   A    
C7    C9    T    
C1    O12   A    
C1    C10   S    
C24   C28   A    
Cr2   O26   S    
C4    C5    S    
C44   O7    A    
C2    C53   T    
Cr2   O5    S    
C51   O24   A    
C31   H3    S    
Cr1   O24   S    
C33   C38   A    
C13   C17   A    
C47   O11   A    
C19   C20   A    
Cr5   O9    S    
Cr1   O12   S    
Cr4   O6    S    
C11   C13   A    
C6    C23   S    
C34   O26   A    
C33   C35   A    
C45   O3    A    
Cr3   O4    S    
Cr5   O15   S    
C23   O1    A    
Cr6   O18   S    
C15   C21   A    
C8    C10   T    
C48   O15   A    
Cr3   O5    S    
C36   C43   A    
Cr5   O16   S    
C49   O16   A    
C46   O9    A    
Cr6   O17   S    
