data_mof_unit_31320.cif
_audit_creation_date              2012-10-26T20:21:45-0400
_audit_creation_method            fapswitch 2.2
_symmetry_space_group_name_H-M    P1
_symmetry_Int_Tables_number       1
_space_group_crystal_system       triclinic
_cell_length_a                    16.013565
_cell_length_b                    14.845457
_cell_length_c                    9.606738
_cell_angle_alpha                 93.472612
_cell_angle_beta                  89.666454
_cell_angle_gamma                 89.989071
_cell_volume                      2279.56492364

loop_
_atom_site_label
_atom_site_type_symbol
_atom_type_description
_atom_site_fract_x
_atom_site_fract_y
_atom_site_fract_z
_atom_type_partial_charge
C1    C     C_R   0.122873 0.385658 0.497136 0.586635
C2    C     C_R   0.999916 0.580260 0.933367 0.154988
C3    C     C_R   0.001657 0.579547 0.082578 0.135869
C4    C     C_R   0.998324 0.420454 0.917425 0.135892
C5    C     C_R   0.500096 0.919739 0.066632 0.154897
C6    C     C_R   0.499894 0.080259 0.933369 0.154973
C7    C     C_R   0.501651 0.079547 0.082577 0.135883
C8    C     C_R   0.498368 0.920452 0.917419 0.135865
C9    C     C_R   0.791303 0.263517 0.372863 -0.045318
C10   C     C_R   0.208734 0.736441 0.627157 -0.045295
C11   C     C_R   0.242056 0.686452 0.385512 -0.018861
C12   C     C_R   0.877131 0.614346 0.502865 0.586704
C13   C     C_R   0.757919 0.313580 0.614456 -0.018844
C14   C     C_R   0.238606 0.310601 0.617568 -0.056007
C15   C     C_R   0.761371 0.689373 0.382454 -0.055985
C16   C     C_R   0.786100 0.732094 0.629223 -0.039954
C17   C     C_R   0.213934 0.267941 0.370764 -0.039959
C18   C     C_R   0.291257 0.763568 0.372846 -0.045290
C19   C     C_R   0.708706 0.236474 0.627134 -0.045317
C20   C     C_R   0.742083 0.186414 0.385536 -0.018827
C21   C     C_R   0.257942 0.813554 0.614495 -0.018843
C22   C     C_R   0.738627 0.810623 0.617542 -0.056020
C23   C     C_R   0.877725 0.384991 0.497363 0.591527
C24   C     C_R   0.261397 0.189405 0.382435 -0.056044
C25   C     C_R   0.286077 0.232069 0.629235 -0.039935
C26   C     C_R   0.713892 0.767898 0.370777 -0.039930
C27   C     C_R   0.194611 0.677063 0.508240 0.052550
C28   C     C_R   0.805397 0.322929 0.491753 0.052541
C29   C     C_R   0.804224 0.675949 0.507956 0.054039
C30   C     C_R   0.195782 0.324058 0.492049 0.054012
C31   C     C_R   0.694608 0.177064 0.508243 0.052561
C32   C     C_R   0.305384 0.822944 0.491764 0.052572
C33   C     C_R   0.304223 0.175949 0.507953 0.054008
C34   C     C_R   0.122280 0.615003 0.502635 0.591564
C35   C     C_R   0.695772 0.824046 0.492042 0.054034
C36   C     C_2   0.004571 0.331697 0.134352 0.264712
C37   C     C_2   0.995484 0.668307 0.865637 0.264549
C38   C     C_2   0.008616 0.665219 0.167871 0.365199
C39   C     C_2   0.991259 0.334783 0.832148 0.365117
C40   C     C_2   0.504504 0.831691 0.134368 0.264446
C41   C     C_2   0.495445 0.168305 0.865643 0.264599
C42   C     C_2   0.508627 0.165220 0.167868 0.365200
C43   C     C_2   0.491491 0.834777 0.832111 0.365281
C44   C     C_2   0.824088 0.281463 0.232689 0.245287
C45   C     C_R   0.622868 0.885652 0.497135 0.586700
C46   C     C_2   0.175999 0.718448 0.767345 0.245284
C47   C     C_2   0.244567 0.613171 0.272519 0.299589
C48   C     C_2   0.755390 0.386890 0.727409 0.299576
C49   C     C_2   0.237009 0.380435 0.736043 0.260516
C50   C     C_2   0.762946 0.619513 0.264012 0.260445
C51   C     C_2   0.812295 0.709203 0.770644 0.229614
C52   C     C_2   0.187784 0.290870 0.229334 0.229714
C53   C     C_2   0.323983 0.781567 0.232653 0.245323
C54   C     C_2   0.675934 0.218521 0.767314 0.245332
C55   C     C_2   0.744599 0.113113 0.272568 0.299563
C56   C     C_R   0.377129 0.114344 0.502864 0.586631
C57   C     C_2   0.255442 0.886827 0.727501 0.299580
C58   C     C_2   0.737059 0.880489 0.735975 0.260404
C59   C     C_2   0.262985 0.119563 0.263969 0.260475
C60   C     C_2   0.312245 0.209153 0.770660 0.229667
C61   C     C_2   0.687682 0.790779 0.229358 0.229578
C62   C     C_R   0.377718 0.885000 0.497365 0.591608
C63   C     C_R   0.622277 0.115006 0.502636 0.591572
C64   C     C_R   0.000096 0.419742 0.066632 0.155067
Cu1   Cu    Cu3+1 1.000000 0.500000 0.640660 1.044448
Cu2   Cu    Cu3+1 0.000000 0.500000 0.359340 1.044532
Cu3   Cu    Cu3+1 0.500000 0.000000 0.640660 1.044617
Cu4   Cu    Cu3+1 0.500000 0.000000 0.359340 1.044532
H1    H     H_    0.998927 0.327531 0.244189 0.157214
H2    H     H_    0.141017 0.770050 0.827378 0.134854
H3    H     H_    0.244529 0.628621 0.163574 0.157370
H4    H     H_    0.755364 0.371465 0.836367 0.157406
H5    H     H_    0.229757 0.361462 0.842739 0.118206
H6    H     H_    0.770130 0.638466 0.157291 0.118239
H7    H     H_    0.839200 0.760507 0.841650 0.140207
H8    H     H_    0.160952 0.239571 0.158242 0.140241
H9    H     H_    0.358954 0.729964 0.172604 0.134872
H10   H     H_    0.640919 0.270130 0.827272 0.134802
H11   H     H_    0.744618 0.128549 0.163615 0.157386
H12   H     H_    0.001064 0.672458 0.755790 0.157275
H13   H     H_    0.255481 0.871368 0.836442 0.157346
H14   H     H_    0.729883 0.861545 0.842693 0.118216
H15   H     H_    0.270238 0.138528 0.157266 0.118167
H16   H     H_    0.339109 0.260452 0.841718 0.140210
H17   H     H_    0.660756 0.739474 0.158379 0.140178
H18   H     H_    0.954323 0.695113 0.219918 0.118220
H19   H     H_    0.045480 0.304886 0.779873 0.118272
H20   H     H_    0.498945 0.827548 0.244217 0.157319
H21   H     H_    0.501063 0.172462 0.755801 0.157258
H22   H     H_    0.454338 0.195125 0.219924 0.118191
H23   H     H_    0.545856 0.804868 0.780275 0.118130
H24   H     H_    0.859116 0.229854 0.172752 0.134784
N1    N     N_R   1.000000 0.500000 0.852070 -0.293254
N2    N     N_R   0.000000 0.500000 0.147930 -0.293252
N3    N     N_R   0.500000 0.000000 0.852070 -0.293215
N4    N     N_R   0.500000 1.000000 0.147930 -0.293219
O1    O     O_R   0.090170 0.409820 0.618740 -0.531797
O2    O     O_R   0.409830 0.090180 0.381260 -0.531778
O3    O     O_R   0.409830 0.090180 0.618740 -0.493726
O4    O     O_R   0.590170 0.909820 0.381260 -0.493706
O5    O     O_R   0.409830 0.909820 0.381260 -0.503290
O6    O     O_R   0.590170 0.090180 0.618740 -0.503254
O7    O     O_R   0.590170 0.090180 0.381260 -0.474928
O8    O     O_R   0.409830 0.909820 0.618740 -0.474787
O9    O     O_2   0.016097 0.259904 0.068334 -0.537901
O10   O     O_2   0.984072 0.740122 0.931652 -0.537853
O11   O     O_2   0.074576 0.706523 0.172043 -0.469187
O12   O     O_R   0.909830 0.590180 0.381260 -0.531760
O13   O     O_2   0.925288 0.293491 0.828210 -0.469180
O14   O     O_2   0.515860 0.759865 0.068356 -0.537868
O15   O     O_2   0.483981 0.240110 0.931657 -0.537913
O16   O     O_2   0.574594 0.206515 0.172021 -0.469112
O17   O     O_2   0.425527 0.793475 0.827734 -0.469116
O18   O     O_2   0.807209 0.351834 0.179583 -0.409799
O19   O     O_2   0.192869 0.648042 0.820355 -0.409809
O20   O     O_2   0.249488 0.534448 0.301420 -0.412199
O21   O     O_2   0.750526 0.465610 0.698459 -0.412252
O22   O     O_2   0.245464 0.460165 0.714563 -0.398011
O23   O     O_R   0.909830 0.590180 0.618740 -0.493680
O24   O     O_2   0.754542 0.539784 0.285546 -0.398085
O25   O     O_2   0.798137 0.634789 0.812729 -0.426970
O26   O     O_2   0.201907 0.365312 0.187336 -0.426851
O27   O     O_2   0.307116 0.851979 0.179658 -0.409826
O28   O     O_2   0.692810 0.148142 0.820399 -0.409811
O29   O     O_2   0.749458 0.034390 0.301497 -0.412272
O30   O     O_2   0.250531 0.965554 0.698617 -0.412216
O31   O     O_2   0.745459 0.960214 0.714434 -0.398100
O32   O     O_2   0.254524 0.039836 0.285464 -0.398015
O33   O     O_2   0.298106 0.134722 0.812692 -0.426890
O34   O     O_R   0.090170 0.409820 0.381260 -0.493700
O35   O     O_2   0.701850 0.865184 0.187248 -0.427003
O36   O     O_R   0.909830 0.409820 0.381260 -0.503221
O37   O     O_R   0.090170 0.590180 0.618740 -0.503255
O38   O     O_R   0.090170 0.590180 0.381260 -0.474937
O39   O     O_R   0.909830 0.409820 0.618740 -0.475080
O40   O     O_R   0.590170 0.909820 0.618740 -0.531734

loop_
_geom_bond_atom_site_label_1
_geom_bond_atom_site_label_2
_ccdc_geom_bond_type
C10   C27   A    
C41   H21   S    
C11   C18   A    
C12   C29   S    
C11   C47   S    
C8    C43   S    
C39   H19   S    
C19   C31   A    
Cu4   O7    S    
C22   C35   A    
Cu4   N4    S    
C46   O19   D    
C38   H18   S    
C50   O24   D    
C26   C61   S    
C59   H15   S    
C50   H6    S    
C7    C42   S    
C14   C49   S    
C20   C55   S    
C34   O38   A    
C15   C50   S    
C38   O11   D    
C42   O16   D    
C18   C53   S    
Cu2   O38   S    
C52   O26   D    
C55   O29   D    
C3    C38   S    
C9    C44   S    
C6    C41   S    
C10   C46   S    
C16   C51   S    
C13   C28   A    
C25   C60   S    
C56   O2    A    
Cu2   O36   S    
C44   H24   S    
Cu3   O3    S    
Cu2   N2    S    
C62   O5    A    
Cu2   O12   S    
C33   C56   S    
Cu1   N1    S    
C44   O18   D    
C58   O31   D    
C10   C21   A    
Cu3   N3    S    
C17   C30   A    
C8    N3    A    
C48   H4    S    
C63   O6    A    
C17   C52   S    
C21   C32   A    
Cu3   O8    S    
C15   C29   A    
C6    C7    A    
C62   O8    A    
C27   C34   S    
C47   O20   D    
C37   H12   S    
C17   C24   A    
C13   C19   A    
Cu3   Cu4   S    
C31   C63   S    
Cu4   O5    S    
C63   O7    A    
C1    O34   A    
C53   O27   D    
C1    O1    A    
C57   O30   D    
C12   O12   A    
C15   C26   A    
C40   O14   D    
C34   O37   A    
C16   C29   A    
C14   C30   A    
C43   H23   S    
C42   H22   S    
C53   H9    S    
Cu4   O4    S    
C21   C57   S    
C7    N4    A    
C5    C8    A    
C12   O23   A    
C55   H11   S    
C9    C20   A    
C49   O22   D    
C4    C39   S    
C11   C27   A    
Cu1   O23   S    
C23   C28   S    
C47   H3    S    
Cu1   O39   S    
C61   H17   S    
C19   C54   S    
Cu1   Cu2   S    
C51   O25   D    
C49   H5    S    
C18   C32   A    
C35   C45   S    
C5    N4    A    
C36   H1    S    
C54   O28   D    
C45   O40   A    
C16   C22   A    
C36   O9    D    
C2    N1    A    
C51   H7    S    
C52   H8    S    
C45   O4    A    
C60   O33   D    
C22   C58   S    
C13   C48   S    
C48   O21   D    
C4    C64   A    
C24   C33   A    
C23   O39   A    
C40   H20   S    
C58   H14   S    
C2    C3    A    
C59   O32   D    
Cu1   O1    S    
C37   O10   D    
C43   O17   D    
C60   H16   S    
C2    C37   S    
C24   C59   S    
C1    C30   S    
C23   O36   A    
Cu3   O40   S    
C3    N2    A    
C57   H13   S    
C14   C25   A    
Cu4   O2    S    
C46   H2    S    
C61   O35   D    
C64   N2    A    
C4    N1    A    
C26   C35   A    
C39   O13   D    
Cu3   O6    S    
C6    N3    A    
C41   O15   D    
C5    C40   S    
C32   C62   S    
C56   O3    A    
C54   H10   S    
C36   C64   S    
Cu1   O37   S    
C9    C28   A    
C25   C33   A    
Cu2   O34   S    
C20   C31   A    
