data_mof_unit_48429.cif
_audit_creation_date              2012-12-11T16:24:03-0500
_audit_creation_method            fapswitch 2.2
_symmetry_space_group_name_H-M    P1
_symmetry_Int_Tables_number       1
_space_group_crystal_system       triclinic
_cell_length_a                    14.684995
_cell_length_b                    14.730772
_cell_length_c                    33.148164
_cell_angle_alpha                 95.452128
_cell_angle_beta                  95.859617
_cell_angle_gamma                 61.325736
_cell_volume                      6249.67748229

loop_
_atom_site_label
_atom_site_type_symbol
_atom_type_description
_atom_site_fract_x
_atom_site_fract_y
_atom_site_fract_z
_atom_type_partial_charge
C1    C     C_R   0.390095 0.702389 0.446492 0.531145
C2    C     C_R   0.341622 0.371081 0.305757 0.054929
C3    C     C_R   0.392770 0.278141 0.326652 0.003658
C4    C     C_R   0.411673 0.282805 0.368968 -0.130331
C5    C     C_R   0.408441 0.275934 0.161097 0.002043
C6    C     C_R   0.393044 0.251091 0.120042 -0.124906
C7    C     C_R   0.212003 0.381733 0.120094 -0.117622
C8    C     C_R   0.224407 0.408523 0.161294 0.003003
C9    C     C_R   0.322219 0.351046 0.182181 0.043906
C10   C     C_1   0.330037 0.361135 0.225750 -0.048401
C11   C     C_1   0.334663 0.366739 0.262150 -0.036391
C12   C     C_R   0.406563 0.388127 0.433559 0.537242
C13   C     C_R   0.294270 0.300146 0.099984 -0.011237
C14   C     C_R   0.757446 0.373166 0.410143 -0.007167
C15   C     C_R   0.762925 0.444213 0.386595 -0.124777
C16   C     C_R   0.797584 0.415723 0.347321 -0.006459
C17   C     C_R   0.828771 0.312898 0.331684 0.054108
C18   C     C_R   0.829478 0.238999 0.356164 -0.014803
C19   C     C_R   0.793463 0.270182 0.395218 -0.127941
C20   C     C_R   0.864093 0.273560 0.207681 0.321553
C21   C     C_R   0.846395 0.287833 0.288544 0.318112
C22   C     C_R   0.886881 0.353251 0.151461 -0.138937
C23   C     C_R   0.700649 0.410374 0.447409 0.542567
C24   C     C_R   0.906692 0.353876 0.111742 -0.151556
C25   C     C_R   0.877266 0.204713 0.093561 0.011459
C26   C     C_R   0.865446 0.198855 0.135438 0.011710
C27   C     C_R   0.870922 0.274601 0.164009 0.035392
C28   C     C_R   0.909152 0.276857 0.083014 0.015000
C29   C     C_R   0.372204 0.760805 0.409643 -0.008582
C30   C     C_R   0.273865 0.816673 0.388258 -0.004580
C31   C     C_R   0.271961 0.834706 0.346351 -0.000200
C32   C     C_R   0.367862 0.804612 0.328703 0.033523
C33   C     C_R   0.459509 0.776397 0.354102 -0.023482
C34   C     C_R   0.393226 0.701464 0.561219 0.543656
C35   C     C_R   0.461015 0.751659 0.393610 -0.140682
C36   C     C_R   0.369590 0.804899 0.202391 0.342523
C37   C     C_R   0.372548 0.801010 0.284135 0.339543
C38   C     C_R   0.269613 0.820022 0.135582 -0.129741
C39   C     C_R   0.241870 0.858848 0.096827 -0.135620
C40   C     C_R   0.390192 0.890551 0.102242 -0.134529
C41   C     C_R   0.417090 0.852951 0.141027 -0.125593
C42   C     C_R   0.354831 0.821121 0.158611 0.036814
C43   C     C_R   0.299699 0.898242 0.080491 0.021176
C44   C     C_R   0.357946 0.359460 0.579734 0.003504
C45   C     C_R   0.403719 0.385748 0.547163 0.532040
C46   C     C_R   0.260889 0.434536 0.594868 -0.000589
C47   C     C_R   0.247711 0.440346 0.637346 0.013433
C48   C     C_R   0.324384 0.360109 0.661327 0.020925
C49   C     C_R   0.404232 0.273239 0.642677 -0.121783
C50   C     C_R   0.418776 0.269005 0.601507 -0.018037
C51   C     C_R   0.323369 0.345447 0.786490 0.327609
C52   C     C_R   0.320232 0.357891 0.705361 0.328249
C53   C     C_R   0.240577 0.413201 0.851647 -0.114781
C54   C     C_R   0.223484 0.397983 0.891073 -0.017419
C55   C     C_R   0.383143 0.232590 0.888919 -0.128081
C56   C     C_R   0.701970 0.412988 0.562565 0.542795
C57   C     C_R   0.398681 0.247642 0.849833 -0.005899
C58   C     C_R   0.323820 0.336946 0.830334 0.029570
C59   C     C_R   0.293148 0.302231 0.908840 0.002426
C60   C     C_R   0.755884 0.378517 0.602628 0.019258
C61   C     C_R   0.781629 0.444548 0.629029 -0.130831
C62   C     C_R   0.809693 0.423415 0.669909 -0.113005
C63   C     C_R   0.813275 0.335877 0.684666 0.043052
C64   C     C_R   0.794825 0.266049 0.658147 -0.115555
C65   C     C_R   0.766541 0.287008 0.617264 -0.128275
C66   C     C_R   0.866045 0.217264 0.825124 0.015232
C67   C     C_R   0.374918 0.378768 0.390511 -0.004080
C68   C     C_R   0.894319 0.209054 0.867136 -0.111625
C69   C     C_R   0.883274 0.379287 0.871753 -0.135338
C70   C     C_R   0.855925 0.388277 0.830413 -0.125100
C71   C     C_R   0.851239 0.306668 0.806840 0.040224
C72   C     C_1   0.837590 0.314350 0.763554 -0.038860
C73   C     C_1   0.827516 0.322577 0.727465 -0.032798
C74   C     C_R   0.907366 0.287778 0.890148 0.003354
C75   C     C_R   0.375892 0.754054 0.602043 0.019356
C76   C     C_R   0.282950 0.781848 0.620246 -0.127372
C77   C     C_R   0.275180 0.808316 0.661721 -0.114070
C78   C     C_R   0.316760 0.470306 0.369656 -0.125016
C79   C     C_R   0.359708 0.808036 0.685382 0.043713
C80   C     C_R   0.449951 0.787426 0.667175 -0.112502
C81   C     C_R   0.457995 0.760861 0.625610 -0.131443
C82   C     C_R   0.410059 0.853304 0.834293 -0.109729
C83   C     C_R   0.393728 0.880743 0.875859 -0.016333
C84   C     C_R   0.222868 0.889580 0.862868 -0.127362
C85   C     C_R   0.241792 0.858233 0.822098 0.008911
C86   C     C_R   0.333946 0.845617 0.807521 0.033366
C87   C     C_1   0.348397 0.831273 0.764728 -0.036885
C88   C     C_1   0.355578 0.821312 0.728620 -0.032835
C89   C     C_R   0.300965 0.467803 0.327486 -0.005431
C90   C     C_R   0.294625 0.906907 0.889570 0.004327
C91   C     C_R   0.962640 0.263652 0.045561 0.537063
C92   C     C_R   0.273308 0.260148 0.059663 0.544251
C93   C     C_R   0.259342 0.959199 0.043916 0.545528
C94   C     C_R   0.961787 0.268293 0.930894 0.540790
C95   C     C_R   0.271182 0.264429 0.944996 0.536102
C96   C     C_R   0.257624 0.963123 0.929253 0.537004
Cr1   Cr    Cr6+3 0.576280 0.580550 0.506370 0.998119
Cr2   Cr    Cr6+3 0.346780 0.572400 0.496520 0.989862
Cr3   Cr    Cr6+3 0.576960 0.347070 0.497150 0.999400
Cr4   Cr    Cr6+3 0.087320 0.083240 0.984860 0.993160
Cr5   Cr    Cr6+3 0.087720 0.316210 0.996740 0.993899
Cr6   Cr    Cr6+3 0.317350 0.090340 0.995890 0.993827
H1    H     H_    0.457744 0.190764 0.104107 0.123745
H2    H     H_    0.436866 0.919530 0.090415 0.124552
H3    H     H_    0.457499 0.208631 0.660754 0.124070
H4    H     H_    0.185671 0.481364 0.835881 0.114052
H5    H     H_    0.439949 0.161715 0.902789 0.127885
H6    H     H_    0.911815 0.139644 0.881846 0.118362
H7    H     H_    0.797691 0.197954 0.669398 0.101487
H8    H     H_    0.774104 0.515598 0.618739 0.122048
H9    H     H_    0.891834 0.441619 0.888720 0.124793
H10   H     H_    0.515609 0.787428 0.685353 0.104305
H11   H     H_    0.530627 0.739715 0.612516 0.120542
H12   H     H_    0.204928 0.824464 0.675656 0.100720
H13   H     H_    0.287360 0.545150 0.386064 0.142029
H14   H     H_    0.733147 0.524365 0.397647 0.123380
N1    N     N_R   0.776524 0.284235 0.222435 -0.249178
N2    N     N_R   0.312531 0.438126 0.731279 -0.252129
N3    N     N_R   0.329496 0.271668 0.720753 -0.245424
N4    N     N_R   0.330458 0.265864 0.760522 -0.241309
N5    N     N_R   0.767906 0.291204 0.262275 -0.239786
N6    N     N_R   0.933615 0.278075 0.273864 -0.259497
N7    N     N_R   0.942260 0.271039 0.234008 -0.254654
N8    N     N_R   0.332217 0.749451 0.218857 -0.247477
N9    N     N_R   0.334773 0.746683 0.259027 -0.250394
N10   N     N_R   0.411393 0.854698 0.267582 -0.271263
N11   N     N_R   0.410423 0.856131 0.227532 -0.265173
N12   N     N_R   0.313272 0.432353 0.771225 -0.255591
O1    O     O_R   0.679450 0.499830 0.463150 -0.524838
O2    O     O_R   0.356040 0.477400 0.534170 -0.502167
O3    O     O_R   0.495910 0.323070 0.537100 -0.524716
O4    O     O_R   0.663920 0.359620 0.542290 -0.499671
O5    O     O_3   0.500010 0.500010 0.500010 -0.222728
O6    O     O_R   0.170070 0.978950 0.027680 -0.523977
O7    O     O_R   0.001760 0.175230 0.026640 -0.502826
O8    O     O_R   0.984760 0.333570 0.037150 -0.521539
O9    O     O_R   0.183410 0.309240 0.041890 -0.503706
O10   O     O_R   0.340240 0.172500 0.045430 -0.518867
O11   O     O_R   0.309670 0.000990 0.032050 -0.501789
O12   O     O_R   0.480650 0.664000 0.464630 -0.501949
O13   O     O_R   0.168330 0.982130 0.939200 -0.521402
O14   O     O_R   0.000140 0.178170 0.944610 -0.503124
O15   O     O_R   0.983010 0.336750 0.948660 -0.525304
O16   O     O_R   0.181800 0.312190 0.959860 -0.507304
O17   O     O_R   0.338500 0.175680 0.956950 -0.527096
O18   O     O_R   0.308050 0.003930 0.950020 -0.508720
O19   O     O_3   0.164130 0.163270 0.992500 -0.222320
O20   O     O_R   0.323930 0.675950 0.455370 -0.531879
O21   O     O_R   0.354700 0.475360 0.451930 -0.509807
O22   O     O_R   0.494470 0.320860 0.448390 -0.517074
O23   O     O_R   0.662580 0.357570 0.460050 -0.498414
O24   O     O_R   0.680900 0.502040 0.551870 -0.522601
O25   O     O_R   0.481990 0.666040 0.546870 -0.501655
O26   O     O_R   0.325370 0.678160 0.544080 -0.521326
H15   H     H_    0.790315 0.214551 0.413450 0.120475
H16   H     H_    0.926653 0.411768 0.104181 0.128015
C97   C     C_3   0.790300 0.499597 0.321765 -0.245524
C98   C     C_3   0.863218 0.542902 0.339380 -0.301821
C99   C     C_3   0.866306 0.615762 0.310393 -0.467026
H17   H     H_    0.909393 0.570887 0.283494 0.155860
H18   H     H_    0.786379 0.673041 0.299990 0.154875
H19   H     H_    0.906000 0.658202 0.326208 0.138102
H20   H     H_    0.835901 0.586359 0.368773 0.147513
H21   H     H_    0.943322 0.478347 0.344861 0.175599
H22   H     H_    0.807994 0.472259 0.289813 0.183275
H23   H     H_    0.708774 0.562640 0.320435 0.131266
C100  C     C_3   0.866483 0.127270 0.341162 -0.261916
C101  C     C_3   0.775354 0.106252 0.327163 -0.289057
C102  C     C_3   0.814739 0.995358 0.309300 -0.470911
H24   H     H_    0.861563 0.981809 0.282936 0.151247
H25   H     H_    0.863190 0.939065 0.332613 0.147199
H26   H     H_    0.747787 0.982169 0.298657 0.136959
H27   H     H_    0.728243 0.118107 0.353277 0.159434
H28   H     H_    0.724510 0.160789 0.303654 0.188162
H29   H     H_    0.917527 0.106962 0.315762 0.154758
H30   H     H_    0.914581 0.075426 0.365750 0.133716
H31   H     H_    0.889400 0.412023 0.173189 0.124628
C103  C     C_3   0.854253 0.136998 0.060525 -0.247909
C104  C     C_3   0.768125 0.202811 0.029207 -0.291064
C105  C     C_3   0.746613 0.134681 0.996166 -0.455553
H32   H     H_    0.817729 0.084742 0.979645 0.146636
H33   H     H_    0.721051 0.085094 0.009668 0.144853
H34   H     H_    0.683991 0.184351 0.974129 0.143361
H35   H     H_    0.695493 0.253322 0.044805 0.161031
H36   H     H_    0.790191 0.253287 0.014418 0.168154
H37   H     H_    0.925830 0.081037 0.045621 0.170915
H38   H     H_    0.827618 0.087426 0.072825 0.128332
C106  C     C_3   0.857241 0.107935 0.150224 -0.258350
C107  C     C_3   0.960133 0.006589 0.146755 -0.300642
C108  C     C_3   0.953305 0.916699 0.163116 -0.469257
H39   H     H_    0.936509 0.932686 0.195716 0.145988
H40   H     H_    0.891080 0.904380 0.145660 0.149806
H41   H     H_    0.028507 0.844684 0.160147 0.141723
H42   H     H_    0.980970 0.986513 0.114684 0.158183
H43   H     H_    0.023603 0.016435 0.164488 0.172419
H44   H     H_    0.839056 0.119737 0.182417 0.166317
H45   H     H_    0.791071 0.100553 0.133980 0.125068
C109  C     C_3   0.174109 0.862856 0.410741 -0.250024
C110  C     C_3   0.127066 0.981100 0.417238 -0.306202
C111  C     C_3   0.035301 0.025796 0.444249 -0.465981
H46   H     H_    0.975645 0.003322 0.431429 0.142647
H47   H     H_    0.062108 0.997019 0.475296 0.152388
H48   H     H_    0.999322 0.111662 0.446381 0.146827
H49   H     H_    0.187309 0.000828 0.431958 0.164919
H50   H     H_    0.099944 0.018725 0.387942 0.161511
H51   H     H_    0.117281 0.840151 0.394812 0.123218
H52   H     H_    0.188125 0.834080 0.441448 0.178559
H53   H     H_    0.534530 0.720741 0.411532 0.133476
H54   H     H_    0.171940 0.863423 0.080708 0.120596
C112  C     C_3   0.517151 0.220192 0.181390 -0.248382
C113  C     C_3   0.550200 0.105876 0.186492 -0.306271
C114  C     C_3   0.655514 0.052442 0.210112 -0.459630
H55   H     H_    0.716746 0.053034 0.193281 0.155169
H56   H     H_    0.652334 0.092568 0.240432 0.157913
H57   H     H_    0.676075 0.970765 0.214335 0.138281
H58   H     H_    0.491623 0.100114 0.203130 0.164579
H59   H     H_    0.555288 0.064572 0.156272 0.155723
H60   H     H_    0.572689 0.225541 0.162530 0.146211
H61   H     H_    0.522578 0.257959 0.211507 0.167006
C115  C     C_3   0.170302 0.882963 0.319700 -0.255410
C116  C     C_3   0.148871 0.985101 0.301810 -0.288263
C117  C     C_3   0.093183 0.997624 0.259553 -0.438236
H62   H     H_    0.142031 0.933495 0.238249 0.176345
H63   H     H_    0.017784 0.997923 0.260716 0.142346
H64   H     H_    0.078721 0.071517 0.247667 0.181803
H65   H     H_    0.100089 0.052141 0.321997 0.146117
H66   H     H_    0.221325 0.989719 0.299567 0.178083
H67   H     H_    0.173980 0.825085 0.295139 0.168703
H68   H     H_    0.101193 0.898908 0.335597 0.120674
C118  C     C_3   0.557212 0.772392 0.340833 -0.244325
C119  C     C_3   0.549671 0.880272 0.347191 -0.285334
C120  C     C_3   0.647659 0.879570 0.335461 -0.465824
H69   H     H_    0.717224 0.822264 0.352855 0.151780
H70   H     H_    0.656810 0.860731 0.302385 0.156227
H71   H     H_    0.641531 0.957286 0.342789 0.133000
H72   H     H_    0.481724 0.936758 0.328880 0.184120
H73   H     H_    0.538450 0.906870 0.379716 0.153233
H74   H     H_    0.626234 0.718137 0.359465 0.122727
H75   H     H_    0.571891 0.741876 0.308941 0.169505
H76   H     H_    0.220146 0.796233 0.148570 0.119985
H77   H     H_    0.483704 0.853763 0.158089 0.120707
C121  C     C_3   0.171473 0.500605 0.564963 -0.240259
C122  C     C_3   0.079604 0.477368 0.563630 -0.316692
C123  C     C_3   0.000574 0.528542 0.528356 -0.462864
H78   H     H_    0.970388 0.613794 0.531061 0.146019
H79   H     H_    0.036826 0.497496 0.498892 0.148622
H80   H     H_    0.934321 0.512194 0.528855 0.154778
H81   H     H_    0.108637 0.392252 0.560176 0.166558
H82   H     H_    0.038266 0.506889 0.591848 0.171084
H83   H     H_    0.145882 0.584314 0.571782 0.133993
H84   H     H_    0.196622 0.482821 0.533517 0.165167
C124  C     C_3   0.497633 0.166979 0.582021 -0.245553
C125  C     C_3   0.475231 0.077580 0.588400 -0.309510
C126  C     C_3   0.548988 0.977664 0.565714 -0.460241
H85   H     H_    0.539107 0.988282 0.532528 0.147876
H86   H     H_    0.630938 0.954501 0.576512 0.146252
H87   H     H_    0.531557 0.914596 0.571318 0.145564
H88   H     H_    0.484587 0.062402 0.621139 0.162937
H89   H     H_    0.393866 0.098616 0.577233 0.169283
H90   H     H_    0.494947 0.171415 0.548724 0.174659
H91   H     H_    0.577022 0.148660 0.595051 0.142840
C127  C     C_3   0.130484 0.480145 0.913364 -0.237856
C128  C     C_3   0.075519 0.588273 0.895931 -0.320514
C129  C     C_3   0.993669 0.667031 0.923819 -0.460509
H92   H     H_    0.935594 0.641607 0.928375 0.147049
H93   H     H_    0.030911 0.675932 0.953749 0.151396
H94   H     H_    0.952884 0.743438 0.909910 0.138262
H95   H     H_    0.133266 0.614953 0.892367 0.166961
H96   H     H_    0.035637 0.585306 0.865861 0.152799
H97   H     H_    0.072161 0.452517 0.913488 0.176069
H98   H     H_    0.158272 0.489053 0.945239 0.154832
C130  C     C_3   0.155925 0.531818 0.657138 -0.250325
C131  C     C_3   0.083155 0.499728 0.674913 -0.294939
C132  C     C_3   0.975875 0.592337 0.680858 -0.469826
H99   H     H_    0.982796 0.654715 0.700239 0.150363
H100  H     H_    0.936141 0.623087 0.651083 0.143422
H101  H     H_    0.927667 0.567973 0.695948 0.139088
H102  H     H_    0.074051 0.439547 0.654724 0.164477
H103  H     H_    0.116178 0.466431 0.704898 0.187842
H104  H     H_    0.185506 0.569894 0.681461 0.157461
H105  H     H_    0.110252 0.593298 0.635575 0.135455
C133  C     C_3   0.424627 0.174257 0.304177 -0.255547
C134  C     C_3   0.328878 0.158008 0.292396 -0.292355
C135  C     C_3   0.336783 0.100981 0.251023 -0.427937
H106  H     H_    0.325008 0.153097 0.226672 0.153709
H107  H     H_    0.414369 0.031674 0.249120 0.186516
H108  H     H_    0.275494 0.076651 0.246272 0.171922
H109  H     H_    0.321871 0.112725 0.315770 0.147332
H110  H     H_    0.255653 0.233018 0.291248 0.179091
H111  H     H_    0.466029 0.169492 0.277141 0.151826
H112  H     H_    0.481286 0.110474 0.323312 0.121205
C136  C     C_3   0.494668 0.165213 0.829755 -0.246712
C137  C     C_3   0.483501 0.067910 0.816852 -0.282674
C138  C     C_3   0.577618 0.986325 0.794999 -0.462777
H113  H     H_    0.586715 0.017764 0.767408 0.160003
H114  H     H_    0.649108 0.961663 0.815544 0.145416
H115  H     H_    0.566793 0.917586 0.785604 0.135009
H116  H     H_    0.475464 0.034262 0.843996 0.153602
H117  H     H_    0.412560 0.088171 0.796316 0.202558
H118  H     H_    0.510255 0.194686 0.803068 0.165970
H119  H     H_    0.563701 0.144592 0.851529 0.126203
C139  C     C_3   0.856809 0.131215 0.798715 -0.250769
C140  C     C_3   0.857902 0.044658 0.821570 -0.310340
C141  C     C_3   0.843565 0.965920 0.791953 -0.466242
H120  H     H_    0.767268 0.003910 0.774453 0.151120
H121  H     H_    0.906337 0.931190 0.770422 0.148704
H122  H     H_    0.846507 0.903141 0.809013 0.135536
H123  H     H_    0.933317 0.003287 0.839337 0.148434
H124  H     H_    0.793948 0.078428 0.842635 0.158215
H125  H     H_    0.782240 0.166927 0.779822 0.150072
H126  H     H_    0.921352 0.096367 0.777906 0.144339
H127  H     H_    0.747244 0.234604 0.597726 0.120983
H128  H     H_    0.843117 0.457387 0.816411 0.107952
H129  H     H_    0.454948 0.212088 0.385055 0.112529
H130  H     H_    0.823764 0.477807 0.690387 0.101650
C142  C     C_3   0.479068 0.885369 0.904969 -0.240828
C143  C     C_3   0.590399 0.822351 0.890891 -0.323836
C144  C     C_3   0.670389 0.820309 0.924536 -0.460803
H131  H     H_    0.655275 0.900426 0.934107 0.147859
H132  H     H_    0.667544 0.781466 0.951151 0.150871
H133  H     H_    0.749452 0.776787 0.913127 0.139203
H134  H     H_    0.607058 0.741422 0.881977 0.169069
H135  H     H_    0.599546 0.857684 0.864520 0.154234
H136  H     H_    0.461258 0.967615 0.910757 0.165471
H137  H     H_    0.478409 0.853945 0.934081 0.159101
H138  H     H_    0.480917 0.840202 0.821947 0.105509
H139  H     H_    0.218389 0.777320 0.602994 0.121200
C145  C     C_3   0.161010 0.842397 0.794624 -0.261076
C146  C     C_3   0.196172 0.726701 0.785492 -0.277110
C147  C     C_3   0.111220 0.710255 0.760857 -0.462072
H140  H     H_    0.040076 0.743077 0.778013 0.140674
H141  H     H_    0.092220 0.747623 0.731388 0.139402
H142  H     H_    0.138309 0.626146 0.754835 0.180607
H143  H     H_    0.267242 0.690712 0.768138 0.189312
H144  H     H_    0.214740 0.687076 0.814457 0.169990
H145  H     H_    0.086148 0.877671 0.809381 0.134406
H146  H     H_    0.145476 0.882410 0.765955 0.145008
H147  H     H_    0.149063 0.904791 0.873330 0.124659
C148  C     C_3   0.134504 0.494096 0.184211 -0.250995
C149  C     C_3   0.034409 0.558967 0.158230 -0.307416
C150  C     C_3   0.953567 0.647727 0.183539 -0.459861
H148  H     H_    0.936038 0.617483 0.209512 0.151149
H149  H     H_    0.982341 0.703227 0.195044 0.150238
H150  H     H_    0.880652 0.689724 0.164374 0.140973
H151  H     H_    0.052251 0.592347 0.133336 0.159149
H152  H     H_    0.000239 0.509069 0.144996 0.153318
H153  H     H_    0.115181 0.458066 0.207686 0.146272
H154  H     H_    0.161885 0.547584 0.199946 0.156059
H155  H     H_    0.136811 0.420202 0.103871 0.128462
C151  C     C_3   0.239878 0.569530 0.306841 -0.249901
C152  C     C_3   0.125884 0.594576 0.298395 -0.301522
C153  C     C_3   0.059534 0.702821 0.282653 -0.470727
H156  H     H_    0.093804 0.712608 0.256086 0.158882
H157  H     H_    0.979879 0.715062 0.273313 0.139639
H158  H     H_    0.053485 0.762143 0.307035 0.140342
H159  H     H_    0.120410 0.536717 0.275663 0.162890
H160  H     H_    0.094340 0.590346 0.326842 0.163024
H161  H     H_    0.243669 0.633290 0.326566 0.146502
H162  H     H_    0.274494 0.566666 0.278149 0.168638

loop_
_geom_bond_atom_site_label_1
_geom_bond_atom_site_label_2
_ccdc_geom_bond_type
C97   C98   S    
C55   C59   A    
C109  H51   S    
C19   H15   S    
C36   C42   S    
C78   H13   S    
C105  H32   S    
C5    C112  S    
C133  C134  S    
N10   N11   A    
C149  H152  S    
C121  H84   S    
C135  H106  S    
C36   N8    A    
C5    C6    A    
C61   H8    S    
C110  H50   S    
C123  H78   S    
C39   H54   S    
C132  H99   S    
C20   N7    A    
C126  H86   S    
C127  H98   S    
C47   C130  S    
C141  H122  S    
C130  C131  S    
C111  H46   S    
C146  H143  S    
C99   H18   S    
C119  H72   S    
Cr1   O12   S    
Cr4   O7    S    
C34   C75   S    
C45   O2    A    
C92   O9    A    
C105  H33   S    
C77   C79   A    
C78   C89   A    
C84   H147  S    
C147  H140  S    
C140  H123  S    
C12   O22   A    
C149  C150  S    
Cr5   O9    S    
C25   C103  S    
C17   C21   S    
C142  C143  S    
C75   C76   A    
C93   O11   A    
C140  C141  S    
C153  H156  S    
C80   H10   S    
C120  H70   S    
C69   C74   A    
C1    O12   A    
C101  C102  S    
C151  H162  S    
C22   C27   A    
C55   C57   A    
C98   C99   S    
C50   C124  S    
C124  H90   S    
C31   C115  S    
C34   O25   A    
C44   C50   A    
C116  H66   S    
C144  H133  S    
C134  H109  S    
C14   C19   A    
C135  H108  S    
C72   C73   T    
C53   C58   A    
C29   C35   A    
C131  H102  S    
C117  H64   S    
C123  H80   S    
C32   C33   A    
C138  H113  S    
Cr1   O24   S    
Cr6   O11   S    
C151  C152  S    
C38   H76   S    
C103  H37   S    
C35   H53   S    
C48   C52   S    
C114  H55   S    
C142  H136  S    
C111  H47   S    
C122  H81   S    
C70   H128  S    
C24   H16   S    
C124  C125  S    
Cr2   O26   S    
C40   C41   A    
C108  H39   S    
C152  C153  S    
Cr1   O5    S    
C103  C104  S    
C7    C8    A    
C53   C54   A    
C101  H28   S    
C115  H67   S    
C29   C30   A    
C115  H68   S    
C51   N12   A    
C125  C126  S    
C68   C74   A    
C153  H158  S    
C137  H116  S    
C144  H132  S    
C26   C106  S    
C143  H134  S    
C133  H111  S    
C91   O8    A    
C129  H92   S    
C139  H126  S    
C9    C10   S    
C140  H124  S    
C141  H121  S    
C113  H58   S    
C130  H104  S    
C102  H25   S    
C139  H125  S    
C118  H75   S    
C107  C108  S    
C84   C90   A    
C22   H31   S    
C2    C11   S    
C125  H88   S    
C115  C116  S    
Cr4   O6    S    
C51   N4    A    
C54   C59   A    
C150  H149  S    
C94   O14   A    
C97   H22   S    
C62   H130  S    
C126  H87   S    
C25   C26   A    
C112  H61   S    
C41   H77   S    
C5    C9    A    
C137  C138  S    
Cr6   O19   S    
C31   C32   A    
C114  H57   S    
C7    C13   A    
C17   C18   A    
C136  H119  S    
C32   C37   S    
C117  H63   S    
C57   C136  S    
C98   H20   S    
C30   C109  S    
C149  H151  S    
C3    C4    A    
C100  H29   S    
C37   N10   A    
Cr5   O19   S    
C109  H52   S    
C24   C28   A    
C145  C146  S    
C18   C100  S    
C90   C96   S    
C127  C128  S    
C148  H153  S    
C135  H107  S    
C71   C72   S    
C130  H105  S    
C57   C58   A    
C129  H94   S    
C33   C35   A    
C123  H79   S    
C82   H138  S    
C28   C91   S    
C132  H100  S    
C61   C62   A    
C10   C11   T    
C63   C64   A    
C52   N3    A    
C95   O16   A    
C49   C50   A    
C134  C135  S    
C14   C15   A    
C87   C88   T    
C122  H82   S    
C132  H101  S    
C41   C42   A    
C74   C94   S    
C95   O17   A    
C92   O10   A    
C128  C129  S    
C25   C28   A    
Cr2   O5    S    
C26   C27   A    
C147  H141  S    
Cr3   O4    S    
C104  H35   S    
Cr4   O13   S    
Cr6   O17   S    
C30   C31   A    
Cr5   O16   S    
Cr5   O8    S    
Cr4   O19   S    
C122  C123  S    
C23   O1    A    
C18   C19   A    
C146  C147  S    
C21   N6    A    
C20   N1    A    
C108  H41   S    
C96   O13   A    
C3    C133  S    
C44   C46   A    
C16   C17   A    
C147  H142  S    
C153  H157  S    
C70   C71   A    
Cr1   O25   S    
C56   O24   A    
C85   C145  S    
C79   C88   S    
C34   O26   A    
C128  H95   S    
C113  H59   S    
Cr3   O22   S    
C121  H83   S    
C84   C85   A    
C138  H115  S    
C107  H42   S    
C100  C101  S    
C86   C87   S    
C49   H3    S    
C63   C73   S    
C85   C86   A    
C116  H65   S    
C56   C60   S    
C60   C61   A    
C2    C89   A    
C66   C71   A    
C62   C63   A    
C127  H97   S    
C8    C148  S    
C125  H89   S    
C148  C149  S    
Cr2   O2    S    
C121  C122  S    
C146  H144  S    
C99   H19   S    
C51   C58   S    
C6    H1    S    
C56   O4    A    
C103  H38   S    
C48   C49   A    
C114  H56   S    
C45   O3    A    
C13   C92   S    
C22   C24   A    
C136  H118  S    
C46   C121  S    
C77   H12   S    
C96   O18   A    
C44   C45   S    
C89   C151  S    
C46   C47   A    
C66   C139  S    
C108  H40   S    
C16   C97   S    
C152  H159  S    
C12   O21   A    
N3    N4    A    
C104  H36   S    
C20   C27   S    
C64   C65   A    
C126  H85   S    
C145  H145  S    
C82   C86   A    
C38   C39   A    
Cr2   O20   S    
C106  H45   S    
C120  H69   S    
C43   C93   S    
C118  C119  S    
C7    H155  S    
C69   C70   A    
C104  C105  S    
C133  H112  S    
C91   O7    A    
C151  H161  S    
C129  H93   S    
C82   C83   A    
C81   H11   S    
C15   H14   S    
Cr2   O21   S    
C52   N2    A    
C66   C68   A    
Cr5   O15   S    
C102  H24   S    
C64   H7    S    
C150  H148  S    
C134  H110  S    
C131  H103  S    
C94   O15   A    
C136  C137  S    
C38   C42   A    
C15   C16   A    
Cr3   O5    S    
Cr6   O10   S    
C107  H43   S    
N1    N5    A    
N2    N12   A    
C99   H17   S    
C8    C9    A    
C109  C110  S    
C145  H146  S    
C105  H34   S    
C98   H21   S    
C53   H4    S    
C143  C144  S    
C67   C78   A    
C59   C95   S    
C1    C29   S    
C37   N9    A    
C101  H27   S    
C12   C67   S    
C83   C142  S    
C54   C127  S    
C76   C77   A    
C93   O6    A    
C4    H129  S    
C75   C81   A    
C39   C43   A    
Cr3   O23   S    
C120  H71   S    
C55   H5    S    
C106  C107  S    
C14   C23   S    
C137  H117  S    
C113  C114  S    
C144  H131  S    
C40   H2    S    
C116  C117  S    
C143  H135  S    
C47   C48   A    
C128  H96   S    
C40   C43   A    
C131  C132  S    
C124  H91   S    
C141  H120  S    
C102  H26   S    
C118  H74   S    
C36   N11   A    
C33   C118  S    
C150  H150  S    
C83   C90   A    
C23   O23   A    
C139  C140  S    
C80   C81   A    
C65   H127  S    
C97   H23   S    
C60   C65   A    
C4    C67   A    
C112  H60   S    
Cr3   O3    S    
C119  H73   S    
C2    C3    A    
Cr1   O1    S    
Cr4   O14   S    
Cr6   O18   S    
C6    C13   A    
C138  H114  S    
C69   H9    S    
C148  H154  S    
C110  H49   S    
C142  H137  S    
C111  H48   S    
C110  C111  S    
C21   N5    A    
C117  H62   S    
C79   C80   A    
C106  H44   S    
C112  C113  S    
C119  C120  S    
C100  H30   S    
C1    O20   A    
C68   H6    S    
N6    N7    A    
C152  H160  S    
N8    N9    A    
C76   H139  S    
