data_mof_unit_56373.cif
_audit_creation_date              2012-12-10T18:20:39-0500
_audit_creation_method            fapswitch 2.2
_symmetry_space_group_name_H-M    P1
_symmetry_Int_Tables_number       1
_space_group_crystal_system       triclinic
_cell_length_a                    15.84464
_cell_length_b                    10.645142
_cell_length_c                    9.429579
_cell_angle_alpha                 90.819888
_cell_angle_beta                  89.944174
_cell_angle_gamma                 90.031888
_cell_volume                      1590.30857978

loop_
_atom_site_label
_atom_site_type_symbol
_atom_type_description
_atom_site_fract_x
_atom_site_fract_y
_atom_site_fract_z
_atom_type_partial_charge
C1    C     C_R   0.500559 0.259709 0.499310 0.818331
C2    C     C_R   0.499441 0.740291 0.500690 0.818331
C3    C     C_3   0.576967 0.956893 0.542210 -0.372295
C4    C     C_3   0.423033 0.043107 0.457790 -0.372298
C5    C     C_3   0.499102 0.876791 0.501638 -0.145136
C6    C     C_3   0.500898 0.123209 0.498362 -0.145136
C7    C     C_3   0.439758 0.961965 0.589804 0.012109
C8    C     C_3   0.560242 0.038035 0.410196 0.012110
C9    C     C_3   0.560926 0.565361 0.050380 0.672800
C10   C     C_3   0.439074 0.434638 0.949620 0.672798
C11   C     C_3   0.492164 0.613793 0.950876 -0.217153
C12   C     C_3   0.507836 0.386206 0.049124 -0.217156
C13   C     C_3   0.569911 0.452850 0.948801 -0.164053
C14   C     C_3   0.430089 0.547150 0.051199 -0.164049
C15   C     C_R   0.339970 0.499817 0.500082 0.807274
C16   C     C_R   0.660030 0.500183 0.499918 0.807275
C17   C     C_3   0.971838 0.406953 0.583652 -0.203653
C18   C     C_3   0.028162 0.593047 0.416348 -0.203652
C19   C     C_3   0.028269 0.390289 0.451064 0.150533
C20   C     C_3   0.971731 0.609711 0.548936 0.150533
C21   C     C_1   0.250258 0.500522 0.500469 -0.157653
C22   C     C_1   0.749742 0.499478 0.499530 -0.157654
C23   C     C_3   0.027622 0.519034 0.634130 -0.196356
C24   C     C_3   0.972378 0.480966 0.365870 -0.196356
C25   C     C_3   0.082947 0.501083 0.500961 0.129285
C26   C     C_3   0.917053 0.498917 0.499039 0.129285
C27   C     C_1   0.174674 0.501124 0.500918 -0.081930
C28   C     C_1   0.825326 0.498876 0.499082 -0.081931
C29   C     C_3   0.516718 0.042627 0.629320 0.561699
C30   C     C_3   0.483281 0.957373 0.370680 0.561700
Cu1   Cu    Cu3+1 0.500020 0.499990 0.643150 0.986937
Cu2   Cu    Cu3+1 0.499980 0.500010 0.356850 0.986939
H1    H     H_    0.947639 0.330088 0.650904 0.133874
H2    H     H_    0.052361 0.669911 0.349095 0.133873
H3    H     H_    0.948544 0.464496 0.256503 0.135625
H4    H     H_    0.051455 0.535504 0.743497 0.135625
H5    H     H_    0.638854 0.918545 0.575650 0.146066
H6    H     H_    0.361145 0.081455 0.424350 0.146067
H7    H     H_    0.485331 0.708564 0.905245 0.132071
H8    H     H_    0.514669 0.291436 0.094755 0.132070
H9    H     H_    0.628820 0.414814 0.901054 0.151288
H10   H     H_    0.371180 0.585186 0.098946 0.151288
N1    N     N_3   0.500060 0.499970 0.858290 -0.200360
N2    N     N_3   0.499940 0.500030 0.141710 -0.200360
O1    O     O_R   0.500040 0.316850 0.620870 -0.515034
O2    O     O_R   0.499960 0.683150 0.379130 -0.515033
O3    O     O_R   0.500000 0.316860 0.379090 -0.606813
O4    O     O_R   0.500000 0.683140 0.620910 -0.606813
O5    O     O_R   0.379090 0.499980 0.620870 -0.525880
O6    O     O_R   0.620910 0.500020 0.379130 -0.525880
O7    O     O_R   0.379060 0.499990 0.379090 -0.595588
O8    O     O_R   0.620940 0.500010 0.620910 -0.595588
C31   C     C_3   0.063927 0.265243 0.396607 -0.413782
C32   C     C_3   0.993502 0.176248 0.347530 -0.345754
C33   C     C_3   0.028978 0.048918 0.301242 -0.859296
H11   H     H_    0.071906 0.059918 0.209038 0.250044
H12   H     H_    0.064308 0.005670 0.389640 0.254580
H13   H     H_    0.976405 0.985305 0.270022 0.241889
H14   H     H_    0.947768 0.162219 0.435276 0.218264
H15   H     H_    0.959510 0.217959 0.256585 0.218106
H16   H     H_    0.107395 0.283652 0.306687 0.195885
H17   H     H_    0.100549 0.221546 0.483437 0.199791
C34   C     C_3   0.936072 0.734757 0.603393 -0.413781
C35   C     C_3   0.006498 0.823752 0.652470 -0.345754
C36   C     C_3   0.971021 0.951082 0.698758 -0.859296
H18   H     H_    0.935691 0.994330 0.610360 0.254580
H19   H     H_    0.928093 0.940082 0.790962 0.250044
H20   H     H_    0.023595 0.014695 0.729978 0.241889
H21   H     H_    0.040490 0.782041 0.743415 0.218106
H22   H     H_    0.052231 0.837781 0.564724 0.218264
H23   H     H_    0.899451 0.778454 0.516563 0.199791
H24   H     H_    0.892605 0.716348 0.693313 0.195885
O9    O     O_3   0.530443 0.097747 0.764501 -0.566366
C37   C     C_3   0.575470 0.014058 0.850180 -0.391411
H25   H     H_    0.642332 0.007495 0.815218 0.170810
H26   H     H_    0.545877 0.919364 0.850833 0.154744
H27   H     H_    0.575371 0.051223 0.960634 0.188897
O10   O     O_3   0.469557 0.902254 0.235498 -0.566362
C38   C     C_3   0.424528 0.985942 0.149820 -0.391410
H28   H     H_    0.454121 0.080636 0.149168 0.154743
H29   H     H_    0.357666 0.992503 0.184783 0.170810
H30   H     H_    0.424627 0.948777 0.039366 0.188896
C39   C     C_3   0.372774 0.919180 0.695473 -0.369917
C40   C     C_3   0.300770 0.848485 0.620880 -0.329900
C41   C     C_3   0.240095 0.791925 0.728189 -0.858149
H31   H     H_    0.273953 0.725172 0.797542 0.267465
H32   H     H_    0.210820 0.867218 0.794493 0.246177
H33   H     H_    0.189532 0.739861 0.671128 0.241260
H34   H     H_    0.265398 0.913901 0.551946 0.210524
H35   H     H_    0.326529 0.771522 0.553070 0.213961
H36   H     H_    0.403104 0.857636 0.774438 0.194551
H37   H     H_    0.347081 0.003035 0.752175 0.199715
C42   C     C_3   0.627225 0.080820 0.304526 -0.369914
C43   C     C_3   0.699230 0.151515 0.379119 -0.329900
C44   C     C_3   0.759905 0.208074 0.271810 -0.858148
H38   H     H_    0.789180 0.132781 0.205507 0.246177
H39   H     H_    0.726047 0.274826 0.202456 0.267465
H40   H     H_    0.810468 0.260139 0.328871 0.241260
H41   H     H_    0.673470 0.228479 0.446929 0.213962
H42   H     H_    0.734602 0.086100 0.448054 0.210524
H43   H     H_    0.652918 0.996964 0.247825 0.199718
H44   H     H_    0.596895 0.142363 0.225561 0.194551
O11   O     O_3   0.630043 0.627518 0.114659 -0.546325
C45   C     C_3   0.649448 0.737208 0.039979 -0.375798
H45   H     H_    0.659027 0.717356 0.924782 0.151061
H46   H     H_    0.709185 0.776843 0.082521 0.187867
H47   H     H_    0.599426 0.808901 0.057055 0.195110
O12   O     O_3   0.369956 0.372482 0.885342 -0.546325
C46   C     C_3   0.350557 0.262784 0.960013 -0.375793
H48   H     H_    0.340978 0.282629 0.075212 0.151058
H49   H     H_    0.400583 0.191097 0.942930 0.195118
H50   H     H_    0.290822 0.223145 0.917469 0.187865

loop_
_geom_bond_atom_site_label_1
_geom_bond_atom_site_label_2
_ccdc_geom_bond_type
C7    C39   S    
C33   H11   S    
C42   C43   S    
C7    C29   S    
O9    C37   S    
C10   O12   S    
C44   H38   S    
Cu1   O8    S    
C45   H46   S    
C44   H40   S    
C32   H15   S    
C31   C32   S    
C2    O2    A    
C39   H37   S    
C17   C23   S    
Cu1   N1    S    
C18   C24   S    
C17   C26   S    
C24   C26   S    
C46   H49   S    
C11   C14   S    
C29   O9    S    
O12   C46   S    
C3    C29   S    
C9    C13   S    
C31   H16   S    
C39   C40   S    
C36   H19   S    
C37   H27   S    
C11   N1    S    
C15   O7    A    
C14   H10   S    
C19   C31   S    
C15   O5    A    
C21   C27   T    
C22   C28   T    
C18   C25   S    
C40   H35   S    
Cu1   O5    S    
C4    C7    S    
C10   C12   S    
C13   H9    S    
C45   H45   S    
C32   H14   S    
C41   H32   S    
C24   H3    S    
C37   H25   S    
C1    C6    S    
C40   C41   S    
C4    C6    S    
C3    C8    S    
C10   C14   S    
C46   H50   S    
C42   H43   S    
C5    C7    S    
O10   C38   S    
C1    O3    A    
C6    C8    S    
C2    O4    A    
C41   H31   S    
C34   C35   S    
C12   H8    S    
Cu2   O7    S    
C9    C11   S    
C31   H17   S    
Cu1   Cu2   S    
C20   C23   S    
C43   H42   S    
C9    O11   S    
C36   H20   S    
Cu2   N2    S    
C17   H1    S    
C35   H21   S    
C12   C13   S    
C11   H7    S    
C18   H2    S    
Cu2   O6    S    
C34   H23   S    
C37   H26   S    
C4    H6    S    
C36   H18   S    
C35   H22   S    
Cu1   O4    S    
C33   H12   S    
Cu2   O3    S    
C2    C5    S    
C40   H34   S    
C13   N1    S    
C14   N2    S    
C5    C30   S    
C41   H33   S    
C32   C33   S    
C9    N2    S    
C16   C22   S    
C10   N1    S    
Cu2   O2    S    
C8    C42   S    
C16   O8    A    
C16   O6    A    
C3    C5    S    
C42   H44   S    
C38   H30   S    
C44   H39   S    
C25   C27   S    
C39   H36   S    
C26   C28   S    
C8    C30   S    
C35   C36   S    
C20   C34   S    
C19   C24   S    
C12   N2    S    
C46   H48   S    
C1    O1    A    
C20   C26   S    
C43   H41   S    
C17   C19   S    
C18   C20   S    
C23   C25   S    
C38   H29   S    
C43   C44   S    
C19   C25   S    
C38   H28   S    
C30   O10   S    
C15   C21   S    
C6    C29   S    
C34   H24   S    
C3    H5    S    
C23   H4    S    
Cu1   O1    S    
C33   H13   S    
O11   C45   S    
C45   H47   S    
C4    C30   S    
