data_mof_unit_20739.cif
_audit_creation_date              2012-12-10T17:26:13-0500
_audit_creation_method            fapswitch 2.2
_symmetry_space_group_name_H-M    P1
_symmetry_Int_Tables_number       1
_space_group_crystal_system       triclinic
_cell_length_a                    10.140901
_cell_length_b                    10.445317
_cell_length_c                    27.670687
_cell_angle_alpha                 89.329504
_cell_angle_beta                  81.30403
_cell_angle_gamma                 94.932588
_cell_volume                      2885.68381705

loop_
_atom_site_label
_atom_site_type_symbol
_atom_type_description
_atom_site_fract_x
_atom_site_fract_y
_atom_site_fract_z
_atom_type_partial_charge
C1    C     C_R   0.556114 0.735535 0.497633 0.900968
C2    C     C_R   0.506804 0.633497 0.124773 -0.094271
C3    C     C_R   0.503723 0.495910 0.646786 -0.202609
C4    C     C_R   0.496305 0.502980 0.353148 -0.210244
C5    C     C_R   0.533916 0.617055 0.021494 -0.005019
C6    C     C_R   0.468407 0.378603 0.978259 -0.004851
C7    C     C_R   0.444816 0.389807 0.029864 0.069855
C8    C     C_R   0.557963 0.605724 0.969915 0.069615
C9    C     C_R   0.481986 0.508141 0.051212 0.083160
C10   C     C_R   0.520454 0.487538 0.948559 0.083291
C11   C     C_R   0.554214 0.736005 0.044125 -0.189804
C12   C     C_R   0.443912 0.264443 0.504084 0.902808
C13   C     C_R   0.447475 0.259826 0.955553 -0.189560
C14   C     C_R   0.540614 0.747313 0.095091 0.156049
C15   C     C_R   0.460672 0.248839 0.904578 0.155510
C16   C     C_R   0.500888 0.500700 0.594022 0.918287
C17   C     C_R   0.499134 0.499155 0.405959 0.918215
C18   C     C_R   0.622019 0.708036 0.938734 -0.218377
C19   C     C_R   0.381477 0.287276 0.061082 -0.218203
C20   C     C_2   0.587308 0.873330 0.503399 -0.043692
C21   C     C_2   0.412865 0.126179 0.513162 -0.006575
C22   C     C_2   0.501671 0.929576 0.536902 -0.188854
C23   C     C_R   0.534187 0.478936 0.897007 -0.061940
C24   C     C_2   0.498421 0.068075 0.537110 -0.209481
C25   C     C_2   0.928878 0.516394 0.501110 0.018377
C26   C     C_2   0.073872 0.493813 0.494816 0.011430
C27   C     C_R   0.588968 0.583255 0.817005 0.590767
C28   C     C_R   0.413367 0.412747 0.182803 0.589212
C29   C     C_R   0.489847 0.367004 0.824069 0.542314
C30   C     C_R   0.510275 0.629771 0.175773 0.543273
C31   C     C_R   0.607753 0.416907 0.713133 -0.124663
C32   C     C_R   0.389169 0.576855 0.286739 -0.129974
C33   C     C_R   0.598771 0.423673 0.663753 -0.237575
C34   C     C_R   0.467936 0.516971 0.102769 -0.062015
C35   C     C_R   0.397983 0.570836 0.336142 -0.245976
C36   C     C_R   0.415965 0.561832 0.680366 0.317100
C37   C     C_R   0.587444 0.440556 0.319517 0.313133
C38   C     C_R   0.424042 0.552660 0.730409 0.385057
C39   C     C_R   0.579095 0.448723 0.269471 0.382846
C40   C     C_R   0.521338 0.481295 0.746417 0.166619
C41   C     C_R   0.478808 0.515915 0.253467 0.171323
C42   C     C_3   0.298115 0.048870 0.493692 -0.407957
C43   C     C_3   0.211376 0.127104 0.466051 -0.756698
C44   C     C_3   0.702616 0.952349 0.471440 -0.374592
C45   C     C_R   0.586760 0.587746 0.867375 -0.017511
C46   C     C_3   0.788835 0.876616 0.433798 -0.762217
C47   C     C_3   0.558270 0.879969 0.117547 -0.289913
C48   C     C_3   0.559695 0.997265 0.083601 -0.917426
C49   C     C_3   0.442881 0.116365 0.882000 -0.288467
C50   C     C_3   0.443527 0.998927 0.915680 -0.915504
C51   C     C_R   0.415937 0.408021 0.132419 -0.016550
C52   C     C_R   0.634572 0.699487 0.888476 -0.127942
C53   C     C_R   0.368980 0.295920 0.111333 -0.129319
C54   C     C_R   0.494399 0.362778 0.874986 -0.094289
Cl1   Cl    Cl    0.301648 0.662299 0.660761 -0.438545
Cl2   Cl    Cl    0.707243 0.346093 0.338927 -0.439586
Cl3   Cl    Cl    0.106468 0.664762 0.562423 -0.474485
Cl4   Cl    Cl    0.888573 0.317585 0.445576 -0.504980
Cl5   Cl    Cl    0.312579 0.630001 0.773464 -0.487982
Cl6   Cl    Cl    0.693919 0.375318 0.226357 -0.493728
H1    H     H_    0.113124 0.426598 0.468000 0.162647
H2    H     H_    0.423587 0.173380 0.977380 0.157259
H3    H     H_    0.665582 0.796160 0.951814 0.144291
H4    H     H_    0.338467 0.198841 0.048066 0.143880
H5    H     H_    0.580749 0.122976 0.550652 0.180547
H6    H     H_    0.419174 0.873568 0.559558 0.223620
H7    H     H_    0.153272 0.190718 0.491345 0.276268
H8    H     H_    0.274119 0.184929 0.435727 0.256791
H9    H     H_    0.138764 0.060735 0.450152 0.260624
H10   H     H_    0.340677 0.975866 0.468375 0.229899
H11   H     H_    0.232167 0.996952 0.524820 0.254826
H12   H     H_    0.892086 0.592734 0.524161 0.166325
H13   H     H_    0.846468 0.810434 0.452293 0.263948
H14   H     H_    0.725709 0.821811 0.410236 0.254441
H15   H     H_    0.861835 0.944532 0.410088 0.271726
H16   H     H_    0.660703 0.027787 0.451139 0.255176
H17   H     H_    0.768787 0.001332 0.495420 0.241973
H18   H     H_    0.651479 0.006050 0.055809 0.263286
H19   H     H_    0.468839 0.991226 0.065490 0.254774
H20   H     H_    0.560382 0.085761 0.105453 0.286328
H21   H     H_    0.473338 0.888064 0.147541 0.244638
H22   H     H_    0.653567 0.888480 0.132944 0.261352
H23   H     H_    0.680428 0.782194 0.866192 0.198840
H24   H     H_    0.534911 0.005728 0.933494 0.254953
H25   H     H_    0.352282 0.989030 0.943717 0.262657
H26   H     H_    0.443315 0.910663 0.893690 0.286819
H27   H     H_    0.346889 0.107512 0.867068 0.261513
H28   H     H_    0.526984 0.108915 0.851632 0.245241
H29   H     H_    0.323644 0.213057 0.133633 0.198146
H30   H     H_    0.327483 0.619862 0.361151 0.195793
H31   H     H_    0.666607 0.371935 0.638709 0.196286
H32   H     H_    0.312131 0.628551 0.274175 0.178944
H33   H     H_    0.682485 0.361999 0.725664 0.181087
H34   H     H_    0.577729 0.822328 0.022197 0.157593
N1    N     N_R   0.534953 0.476473 0.796991 -0.328546
N2    N     N_R   0.465795 0.520191 0.202850 -0.328226
N3    N     N_2   0.842700 0.448890 0.480020 0.050896
N4    N     N_2   0.157300 0.551110 0.519980 0.048939
O1    O     O_R   0.431060 0.692470 0.504020 -0.593991
O2    O     O_2   0.362445 0.309610 0.211659 -0.520982
O3    O     O_2   0.562036 0.731763 0.198268 -0.559999
O4    O     O_2   0.436303 0.265676 0.801703 -0.556811
O5    O     O_R   0.568940 0.307530 0.495980 -0.583364
O6    O     O_R   0.651120 0.659650 0.491200 -0.621386
O7    O     O_R   0.348880 0.340350 0.508800 -0.618066
O8    O     O_R   0.389980 0.516390 0.577660 -0.528949
O9    O     O_R   0.610020 0.483610 0.422340 -0.529783
O10   O     O_R   0.610040 0.483570 0.564830 -0.638316
O11   O     O_R   0.389960 0.516430 0.435170 -0.643378
O12   O     O_2   0.641049 0.686033 0.788138 -0.516231
Zn1   Zn    Zn3+2 0.353060 0.521910 0.508560 1.042407
Zn2   Zn    Zn3+2 0.646940 0.478090 0.491440 1.045459

loop_
_geom_bond_atom_site_label_1
_geom_bond_atom_site_label_2
_ccdc_geom_bond_type
C23   C45   A    
O9    Zn2   S    
C49   H27   S    
C27   N1    A    
C1    O1    A    
C28   O2    S    
C50   H24   S    
C39   C41   A    
C34   C51   A    
C48   H19   S    
C44   H17   S    
C26   H1    S    
C5    C11   A    
C17   O9    A    
C12   O7    A    
C28   C51   A    
C18   H3    S    
C41   N2    S    
C27   C45   A    
C3    C33   A    
C42   H10   S    
C31   C40   A    
C47   H22   S    
C48   H18   S    
C44   H16   S    
C22   H6    S    
C30   N2    A    
C50   H25   S    
C37   Cl2   S    
C13   H2    S    
C27   O12   S    
C43   H8    S    
C32   C41   A    
C31   C33   A    
C16   O8    A    
C19   C53   A    
C47   H21   S    
O7    Zn1   S    
C4    C35   A    
C43   H9    S    
C49   H28   S    
Cl4   N3    S    
C46   H15   S    
C20   C44   S    
C44   C46   S    
O8    Zn1   S    
C18   C52   A    
C32   C35   A    
C12   O5    A    
C29   N1    A    
N3    Zn2   S    
C16   O10   A    
C45   C52   A    
C25   C26   S    
C31   H33   S    
C12   C21   S    
C8    C18   A    
C21   C42   S    
O5    Zn2   S    
C51   C53   A    
C52   H23   S    
Cl3   N4    S    
C15   C54   A    
C5    C9    A    
C47   C48   S    
C19   H4    S    
O1    Zn1   S    
C25   H12   S    
C1    O6    A    
C6    C7    A    
C24   H5    S    
C26   N4    D    
C4    C17   S    
C11   H34   S    
C25   N3    D    
C20   C22   D    
C7    C19   A    
C13   C15   A    
C53   H29   S    
C9    C34   A    
C22   C24   S    
C42   C43   S    
C40   N1    S    
C46   H14   S    
C23   C54   A    
O6    Zn2   S    
C7    C9    A    
C1    C20   S    
N4    Zn1   S    
C8    C10   A    
C17   O11   A    
C6    C10   A    
C5    C8    A    
C14   C47   S    
C10   C23   A    
C2    C30   A    
C28   N2    A    
C48   H20   S    
C33   H31   S    
C37   C39   A    
C36   Cl1   S    
C6    C13   A    
C38   C40   A    
C2    C34   A    
C32   H32   S    
C3    C36   A    
C39   Cl6   S    
O11   Zn1   S    
C30   O3    S    
C36   C38   A    
C42   H11   S    
C11   C14   A    
C29   O4    S    
C15   C49   S    
C2    C14   A    
C50   H26   S    
C38   Cl5   S    
C35   H30   S    
O10   Zn2   S    
C4    C37   A    
C43   H7    S    
C49   C50   S    
C29   C54   A    
C21   C24   D    
C46   H13   S    
C3    C16   S    
