data_mof_unit_39538.cif
_audit_creation_date              2012-12-10T17:31:28-0500
_audit_creation_method            fapswitch 2.2
_symmetry_space_group_name_H-M    P1
_symmetry_Int_Tables_number       1
_space_group_crystal_system       triclinic
_cell_length_a                    19.234178
_cell_length_b                    18.473469
_cell_length_c                    12.312736
_cell_angle_alpha                 89.999987
_cell_angle_beta                  128.823588
_cell_angle_gamma                 90.00002
_cell_volume                      3408.46370085

loop_
_atom_site_label
_atom_site_type_symbol
_atom_type_description
_atom_site_fract_x
_atom_site_fract_y
_atom_site_fract_z
_atom_type_partial_charge
C1    C     C_R   0.608011 0.895630 0.648253 0.795101
C2    C     C_R   0.608011 0.104370 0.648253 0.795101
C3    C     C_R   0.108011 0.395630 0.648253 0.795101
C4    C     C_R   0.108011 0.604370 0.648253 0.795100
C5    C     C_R   0.232115 0.784208 0.026210 0.059148
C6    C     C_R   0.232115 0.215792 0.026211 0.059148
C7    C     C_R   0.732115 0.284208 0.026210 0.059148
C8    C     C_R   0.732115 0.715792 0.026211 0.059148
C9    C     C_R   0.668851 0.262833 0.044325 0.113251
C10   C     C_R   0.668852 0.737167 0.044326 0.113252
C11   C     C_R   0.168851 0.762833 0.044325 0.113251
C12   C     C_R   0.168852 0.237167 0.044326 0.113252
C13   C     C_R   0.595585 0.220265 0.942099 -0.049760
C14   C     C_R   0.595585 0.779735 0.942100 -0.049760
C15   C     C_R   0.095585 0.720265 0.942099 -0.049760
C16   C     C_R   0.095585 0.279735 0.942100 -0.049760
C17   C     C_R   0.587733 0.196631 0.827826 -0.249673
C18   C     C_R   0.587733 0.803370 0.827826 -0.249673
C19   C     C_R   0.087733 0.696631 0.827826 -0.249673
C20   C     C_R   0.087733 0.303370 0.827826 -0.249673
C21   C     C_R   0.305002 0.826437 0.130400 -0.244722
C22   C     C_R   0.305002 0.173563 0.130400 -0.244721
C23   C     C_R   0.805002 0.326437 0.130400 -0.244722
C24   C     C_R   0.805002 0.673563 0.130400 -0.244721
C25   C     C_R   0.250969 0.829201 0.262531 -0.201771
C26   C     C_R   0.250969 0.170799 0.262532 -0.201771
C27   C     C_R   0.750969 0.329201 0.262531 -0.201771
C28   C     C_R   0.750969 0.670799 0.262532 -0.201771
C29   C     C_R   0.660180 0.170792 0.720668 -0.096794
C30   C     C_R   0.660180 0.829209 0.720669 -0.096793
C31   C     C_R   0.160180 0.670792 0.720668 -0.096794
C32   C     C_R   0.160180 0.329209 0.720669 -0.096793
C33   C     C_R   0.682264 1.000000 0.284391 -0.297802
C34   C     C_R   0.182264 0.500000 0.284391 -0.297802
C35   C     C_R   0.345051 0.000000 0.628600 0.062393
C36   C     C_R   0.845051 0.500000 0.628600 0.062393
C37   C     C_R   0.311618 1.000000 0.701417 -0.258210
C38   C     C_R   0.811618 0.500000 0.701417 -0.258209
C39   C     C_R   0.384802 0.098923 0.342701 0.793761
C40   C     C_R   0.384802 0.901077 0.342701 0.793762
C41   C     C_R   0.884802 0.598923 0.342701 0.793761
C42   C     C_R   0.884802 0.401077 0.342701 0.793762
C43   C     C_R   0.369850 1.000000 0.846773 -0.174324
C44   C     C_R   0.869850 0.500000 0.846773 -0.174324
C45   C     C_R   0.462967 1.000000 0.921764 0.036653
C46   C     C_R   0.962967 0.500000 0.921764 0.036653
C47   C     C_R   0.494150 1.000000 0.842373 0.279927
C48   C     C_R   0.994150 0.500000 0.842373 0.279927
C49   C     C_R   0.526240 1.000000 0.071941 -0.007428
C50   C     C_R   0.026240 0.500000 0.071941 -0.007428
C51   C     C_R   0.618727 1.000000 0.138607 0.174525
C52   C     C_R   0.118728 0.500000 0.138607 0.174525
C53   C     C_R   0.647595 1.000000 0.059719 -0.272276
C54   C     C_R   0.147595 0.500000 0.059719 -0.272276
C55   C     C_R   0.586909 1.000000 0.915442 -0.181115
C56   C     C_R   0.086909 0.500000 0.915442 -0.181115
C57   C     C_R   0.502414 1.000000 0.160181 0.038154
C58   C     C_R   0.002414 0.500000 0.160181 0.038154
C59   C     C_R   0.654461 1.000000 0.364719 0.065158
C60   C     C_R   0.154460 0.500000 0.364719 0.065158
C61   C     C_R   0.679649 0.285518 0.163396 -0.184701
C62   C     C_R   0.679649 0.714482 0.163396 -0.184702
C63   C     C_R   0.179649 0.785518 0.163396 -0.184701
C64   C     C_R   0.179649 0.214482 0.163396 -0.184702
C65   C     C_R   0.313479 0.850278 0.245747 -0.045100
C66   C     C_R   0.313479 0.149721 0.245747 -0.045100
C67   C     C_R   0.813479 0.350278 0.245747 -0.045100
C68   C     C_R   0.813479 0.649721 0.245747 -0.045100
C69   C     C_R   0.718085 0.195778 0.696043 -0.205121
C70   C     C_R   0.718086 0.804223 0.696045 -0.205122
C71   C     C_R   0.218085 0.695778 0.696043 -0.205121
C72   C     C_R   0.218086 0.304223 0.696045 -0.205122
C73   C     C_R   0.273460 0.754501 0.769192 -0.127621
C74   C     C_R   0.273461 0.245500 0.769193 -0.127620
C75   C     C_R   0.773460 0.254501 0.769192 -0.127621
C76   C     C_R   0.773462 0.745500 0.769193 -0.127620
C77   C     C_R   0.277613 0.785524 0.876018 -0.159894
C78   C     C_R   0.277613 0.214476 0.876019 -0.159895
C79   C     C_R   0.777613 0.285524 0.876018 -0.159894
C80   C     C_R   0.777613 0.714476 0.876019 -0.159895
C81   C     C_R   0.723062 0.259867 0.908266 0.066876
C82   C     C_R   0.723062 0.740133 0.908266 0.066876
C83   C     C_R   0.223062 0.759867 0.908266 0.066876
C84   C     C_R   0.223062 0.240133 0.908266 0.066876
C85   C     C_R   0.656272 0.208293 0.818094 0.068140
C86   C     C_R   0.656272 0.791707 0.818094 0.068140
C87   C     C_R   0.156272 0.708293 0.818094 0.068140
C88   C     C_R   0.156272 0.291707 0.818094 0.068140
Cu1   Cu    Cu3+1 0.526340 1.000000 0.421010 0.939369
Cu2   Cu    Cu3+1 0.026340 0.500000 0.421010 0.939369
Cu3   Cu    Cu3+1 0.473640 0.000000 0.578990 0.914168
Cu4   Cu    Cu3+1 0.973640 0.500000 0.578990 0.914168
H1    H     H_    0.256439 0.847162 0.351375 0.153810
H2    H     H_    0.256440 0.152838 0.351376 0.153810
H3    H     H_    0.756439 0.347162 0.351375 0.153810
H4    H     H_    0.756440 0.652838 0.351376 0.153810
H5    H     H_    0.718307 1.000000 0.110191 0.154398
H6    H     H_    0.218307 0.500000 0.110191 0.154398
H7    H     H_    0.753095 1.000000 0.335923 0.138936
H8    H     H_    0.253095 0.500000 0.335923 0.138936
H9    H     H_    0.433702 0.000000 0.118516 0.115861
H10   H     H_    0.933702 0.500000 0.118516 0.115861
H11   H     H_    0.299260 0.000000 0.515853 0.127726
H12   H     H_    0.799260 0.500000 0.515853 0.127726
H13   H     H_    0.340263 1.000000 0.897606 0.126481
H14   H     H_    0.840263 0.500000 0.897606 0.126481
H15   H     H_    0.240226 1.000000 0.644925 0.146096
H16   H     H_    0.740226 0.500000 0.644925 0.146096
H17   H     H_    0.616392 1.000000 0.865790 0.214961
H18   H     H_    0.116392 0.500000 0.865790 0.214961
H19   H     H_    0.632579 0.270468 0.180061 0.150744
H20   H     H_    0.632579 0.729532 0.180062 0.150744
H21   H     H_    0.132578 0.770468 0.180061 0.150744
H22   H     H_    0.132579 0.229532 0.180062 0.150744
H23   H     H_    0.357187 0.840576 0.125296 0.156501
H24   H     H_    0.357186 0.159424 0.125295 0.156500
H25   H     H_    0.857187 0.340576 0.125296 0.156501
H26   H     H_    0.857186 0.659424 0.125295 0.156500
H27   H     H_    0.720480 0.170125 0.619342 0.158617
H28   H     H_    0.720482 0.829876 0.619345 0.158617
H29   H     H_    0.220480 0.670125 0.619342 0.158617
H30   H     H_    0.220481 0.329876 0.619345 0.158617
H31   H     H_    0.322096 0.830935 0.928667 0.149510
H32   H     H_    0.322096 0.169064 0.928667 0.149510
H33   H     H_    0.822096 0.330935 0.928667 0.149510
H34   H     H_    0.822096 0.669064 0.928667 0.149510
H35   H     H_    0.315149 0.774862 0.745092 0.161849
H36   H     H_    0.315150 0.225139 0.745094 0.161849
H37   H     H_    0.815149 0.274862 0.745092 0.161849
H38   H     H_    0.815151 0.725139 0.745094 0.161849
H39   H     H_    0.525577 0.170913 0.745547 0.187098
H40   H     H_    0.525577 0.829088 0.745548 0.187099
H41   H     H_    0.025577 0.670913 0.745547 0.187098
H42   H     H_    0.025577 0.329088 0.745548 0.187099
H43   H     H_    0.703198 1.000000 0.477265 0.125416
H44   H     H_    0.203198 0.500000 0.477265 0.125416
N1    N     N_R   0.566260 0.000000 0.302220 -0.182016
N2    N     N_R   0.066260 0.500000 0.302220 -0.182016
N3    N     N_R   0.434410 1.000000 0.697680 -0.212630
N4    N     N_R   0.934410 0.500000 0.697680 -0.212630
O1    O     O_R   0.608610 0.924520 0.551740 -0.579032
O2    O     O_R   0.608610 0.075480 0.551740 -0.579031
O3    O     O_R   0.108610 0.424520 0.551740 -0.579032
O4    O     O_R   0.108610 0.575480 0.551740 -0.579031
O5    O     O_R   0.564110 0.924510 0.685150 -0.609604
O6    O     O_R   0.564110 0.075490 0.685150 -0.609604
O7    O     O_R   0.064110 0.424510 0.685150 -0.609604
O8    O     O_R   0.064110 0.575490 0.685150 -0.609604
O9    O     O_R   0.435880 0.075470 0.314850 -0.588943
O10   O     O_R   0.435880 0.924530 0.314850 -0.588943
O11   O     O_R   0.935880 0.575470 0.314850 -0.588943
O12   O     O_R   0.935880 0.424530 0.314850 -0.588943
O13   O     O_R   0.391380 0.075460 0.448260 -0.596876
O14   O     O_R   0.391380 0.924540 0.448260 -0.596876
O15   O     O_R   0.891380 0.575460 0.448260 -0.596876
O16   O     O_R   0.891380 0.424540 0.448260 -0.596876
C89   C     C_1   0.529334 0.196887 0.954934 0.218101
N5    N     N_1   0.477188 0.177748 0.966816 -0.330108
C90   C     C_1   0.529334 0.803112 0.954935 0.218101
N6    N     N_1   0.477188 0.822251 0.966816 -0.330108
C91   C     C_1   0.029334 0.696887 0.954934 0.218101
N7    N     N_1   0.977188 0.677748 0.966816 -0.330108
C92   C     C_1   0.029334 0.303112 0.954935 0.218101
N8    N     N_1   0.977188 0.322251 0.966816 -0.330108

loop_
_geom_bond_atom_site_label_1
_geom_bond_atom_site_label_2
_ccdc_geom_bond_type
C26   H2    S    
C83   C87   A    
C3    O7    A    
C89   N5    T    
C17   H39   S    
C14   C18   A    
C27   H3    S    
C92   N8    T    
C25   C63   A    
C21   H23   S    
C21   C65   A    
C91   N7    T    
C32   C72   A    
C42   O16   A    
C25   H1    S    
C4    O4    A    
C18   C86   A    
C39   O13   A    
C2    C29   S    
C9    C61   A    
C1    O1    A    
C28   C68   A    
C37   H15   S    
C35   H11   S    
C6    C12   A    
C12   C64   A    
Cu1   O1    S    
Cu4   O8    S    
C59   N1    A    
Cu1   O2    S    
C6    C22   A    
C49   C57   A    
C48   C56   A    
C43   H13   S    
C23   C67   A    
C29   C69   A    
C26   C64   A    
C22   C66   A    
C9    C13   A    
C27   C61   A    
C30   C70   A    
Cu3   O13   S    
C11   C15   A    
C3    O3    A    
C74   H36   S    
C12   C16   A    
C44   C46   A    
C22   H24   S    
C49   C51   A    
C18   H40   S    
C34   H8    S    
C58   H10   S    
C30   C86   A    
C78   H32   S    
C60   H44   S    
C29   C85   A    
Cu2   O3    S    
C35   N3    A    
C58   N2    A    
C62   H20   S    
C45   C47   A    
C79   H33   S    
C33   C59   A    
C55   H17   S    
Cu4   O7    S    
C34   C60   A    
C40   O14   A    
C10   C62   A    
C76   H38   S    
C56   H18   S    
Cu2   N2    S    
C52   C54   A    
C41   C68   S    
C46   C48   A    
C53   C55   A    
C16   C92   S    
Cu2   Cu4   S    
C54   C56   A    
Cu1   O9    S    
C31   C87   A    
C28   C62   A    
C48   N4    A    
C57   N1    A    
C26   C66   A    
C76   C80   A    
C6    C84   A    
Cu3   O14   S    
C72   C74   A    
C10   C14   A    
C70   H28   S    
C79   C81   A    
C53   H5    S    
C73   H35   S    
C69   H27   S    
C33   H7    S    
C50   C58   A    
C37   C43   A    
C15   C19   A    
C38   C44   A    
C77   H31   S    
C43   C45   A    
C50   C52   A    
C90   N6    T    
C45   C49   A    
C16   C20   A    
C40   O10   A    
Cu4   O16   S    
C36   N4    A    
Cu3   N3    S    
C19   H41   S    
Cu2   O12   S    
Cu1   O10   S    
C7    C81   A    
Cu1   N1    S    
C40   C65   S    
C70   C76   A    
C42   C67   S    
C2    O2    A    
C39   C66   S    
C17   C85   A    
C32   C88   A    
C33   C51   A    
C1    O5    A    
C47   N3    A    
Cu4   N4    S    
Cu3   O5    S    
C42   O12   A    
C35   C37   A    
C47   C55   A    
C7    C9    A    
C46   C50   A    
C73   C77   A    
C72   H30   S    
C24   H26   S    
C15   C91   S    
C84   C88   A    
Cu2   O11   S    
C23   H25   S    
C5    C83   A    
C5    C11   A    
C41   O11   A    
C44   H14   S    
C2    O6    A    
C57   H9    S    
C39   O9    A    
C34   C52   A    
C13   C17   A    
C14   C90   S    
C28   H4    S    
C20   H42   S    
C36   C38   A    
C19   C87   A    
C82   C86   A    
C36   H12   S    
C80   H34   S    
C61   H19   S    
C7    C23   A    
C20   C88   A    
C59   H43   S    
C1    C30   S    
C8    C24   A    
C80   C82   A    
C69   C75   A    
Cu4   O15   S    
C38   H16   S    
C3    C32   S    
C81   C85   A    
C4    C31   S    
C27   C67   A    
C24   C68   A    
C63   H21   S    
C78   C84   A    
C8    C82   A    
C5    C21   A    
C64   H22   S    
C8    C10   A    
Cu1   Cu3   S    
C74   C78   A    
C71   C73   A    
C71   H29   S    
C25   C65   A    
C77   C83   A    
C54   H6    S    
C51   C53   A    
C13   C89   S    
C11   C63   A    
C75   C79   A    
Cu3   O6    S    
Cu2   O4    S    
C75   H37   S    
C60   N2    A    
C31   C71   A    
C41   O15   A    
C4    O8    A    
