data_mof_unit_27733.cif
_audit_creation_date              2012-12-11T14:39:28-0500
_audit_creation_method            fapswitch 2.2
_symmetry_space_group_name_H-M    P1
_symmetry_Int_Tables_number       1
_space_group_crystal_system       triclinic
_cell_length_a                    8.284084
_cell_length_b                    15.113845
_cell_length_c                    17.481808
_cell_angle_alpha                 99.933861
_cell_angle_beta                  98.006655
_cell_angle_gamma                 99.282255
_cell_volume                      2096.07609655

loop_
_atom_site_label
_atom_site_type_symbol
_atom_type_description
_atom_site_fract_x
_atom_site_fract_y
_atom_site_fract_z
_atom_type_partial_charge
Ba1   Ba    Ba6+2 0.844730 0.540500 0.462170 1.694842
Ba2   Ba    Ba6+2 0.345110 0.459580 0.537840 1.741065
C1    C     C_3   0.640513 0.847899 0.252273 -0.347110
C2    C     C_3   0.385142 0.494175 0.218506 0.000432
C3    C     C_2   0.315700 0.496154 0.134349 -0.098339
C4    C     C_3   0.118548 0.729236 0.253655 0.282453
C5    C     C_2   0.150159 0.475339 0.108314 -0.042989
C6    C     C_2   0.036364 0.451964 0.166483 -0.075294
C7    C     C_1   0.099869 0.461843 0.243885 0.015294
C8    C     C_R   0.903500 0.457728 0.858591 -0.103343
C9    C     C_R   0.838626 0.439427 0.778257 0.028178
C10   C     C_R   0.095084 0.522617 0.751082 0.089110
C11   C     C_R   0.160660 0.540589 0.832835 -0.116140
C12   C     C_3   0.630748 0.759874 0.283800 0.332273
C13   C     C_R   0.069389 0.503059 0.886771 -0.000581
C14   C     C_2   0.083076 0.463713 0.021749 -0.043367
C15   C     C_2   0.143893 0.516421 0.972635 -0.068003
C16   C     C_3   0.082276 0.749084 0.171328 -0.306135
C17   C     C_R   0.942382 0.462202 0.724642 -0.230019
C18   C     C_R   0.759047 0.235036 0.538593 -0.248974
C19   C     C_R   0.862083 0.177603 0.564869 0.050977
C20   C     C_R   0.802134 0.082771 0.550741 -0.081803
C21   C     C_R   0.642823 0.043371 0.504991 0.017033
C22   C     C_R   0.551176 0.103514 0.471701 -0.126137
C23   C     C_3   0.383713 0.297458 0.296579 0.237231
C24   C     C_R   0.607672 0.198230 0.488850 -0.006448
C25   C     C_R   0.405482 0.906511 0.454603 -0.108051
C26   C     C_R   0.338594 0.813268 0.440680 0.008354
C27   C     C_R   0.598031 0.783204 0.502298 0.139942
C28   C     C_3   0.224342 0.765480 0.672142 0.196514
C29   C     C_R   0.668360 0.877093 0.513472 -0.033009
C30   C     C_R   0.573785 0.941133 0.489236 0.010563
C31   C     C_R   0.436875 0.751211 0.460693 -0.267767
C32   C     C_3   0.219534 0.862640 0.719699 -0.266803
C33   C     C_3   0.844834 0.246793 0.327043 0.257559
C34   C     C_3   0.327287 0.258700 0.208072 -0.305792
C35   C     C_3   0.741058 0.163736 0.267785 -0.352739
C36   C     C_3   0.811657 0.738687 0.722261 0.262278
C37   C     C_3   0.801658 0.796955 0.802666 -0.201736
C38   C     C_2   0.313744 0.881094 0.803057 0.988040
C39   C     C_2   0.943776 0.221708 0.395595 0.775423
C40   C     C_2   0.762002 0.640364 0.719698 0.753576
C41   C     C_2   0.867302 0.897136 0.808163 0.953422
C42   C     C_2   0.190676 0.175325 0.191040 0.968929
C43   C     C_2   0.644062 0.151764 0.830725 0.561438
C44   C     C_2   0.859033 0.411155 0.134397 0.908405
C45   C     C_3   0.128843 0.279675 0.755131 0.334246
C46   C     C_2   0.362206 0.771115 0.627634 0.507833
C47   C     C_3   0.167697 0.257310 0.836461 -0.310423
C48   C     C_3   0.590491 0.222723 0.713401 0.285755
C49   C     C_3   0.565884 0.134606 0.745287 -0.260792
C50   C     C_2   0.254747 0.505234 0.270720 -0.286289
H1    H     H_    0.757972 0.754262 0.309392 0.110357
H2    H     H_    0.873033 0.772621 0.851075 0.076325
H3    H     H_    0.669904 0.788891 0.811178 0.117558
H4    H     H_    0.553070 0.763994 0.330283 -0.026181
H5    H     H_    0.695760 0.907319 0.300904 0.077033
H6    H     H_    0.275179 0.314465 0.322537 0.046072
H7    H     H_    0.477936 0.361005 0.303997 0.030705
H8    H     H_    0.281835 0.312284 0.179699 0.038090
H9    H     H_    0.433532 0.241255 0.180573 0.049566
H10   H     H_    0.514146 0.855891 0.227166 0.122516
H11   H     H_    0.946455 0.743398 0.153153 0.139124
H12   H     H_    0.265751 0.918345 0.689724 0.064793
H13   H     H_    0.210516 0.345154 0.753874 0.079407
H14   H     H_    0.997384 0.287295 0.745278 -0.079422
H15   H     H_    0.299934 0.251200 0.849656 0.138500
H16   H     H_    0.143600 0.312448 0.881784 0.070024
H17   H     H_    0.088058 0.191709 0.839013 0.164101
H18   H     H_    0.724374 0.242466 0.711246 -0.090146
H19   H     H_    0.518682 0.209446 0.652608 0.073602
H20   H     H_    0.621210 0.082864 0.709642 0.096536
H21   H     H_    0.430987 0.107301 0.739514 0.090322
H22   H     H_    0.053416 0.658453 0.252028 0.065557
H23   H     H_    0.092114 0.873264 0.721251 0.039881
H24   H     H_    0.251970 0.570345 0.995678 0.095345
H25   H     H_    0.821719 0.438823 0.898602 0.093065
H26   H     H_    0.979147 0.407900 0.997933 0.099902
H27   H     H_    0.401410 0.506077 0.093516 0.108788
H28   H     H_    0.281746 0.583764 0.854293 0.120282
H29   H     H_    0.287793 0.548801 0.328995 0.055205
H30   H     H_    0.896627 0.441020 0.662119 0.076052
H31   H     H_    0.320385 0.950611 0.440793 0.089014
H32   H     H_    0.254852 0.734045 0.269630 -0.015722
H33   H     H_    0.884215 0.041521 0.573774 0.068001
H34   H     H_    0.758737 0.289808 0.349161 0.013039
H35   H     H_    0.792852 0.899039 0.546122 0.086554
H36   H     H_    0.438352 0.078628 0.429411 0.087242
H37   H     H_    0.381815 0.679516 0.452229 0.050638
H38   H     H_    0.804573 0.308068 0.549586 0.072254
H39   H     H_    0.126934 0.698959 0.128884 0.089045
H40   H     H_    0.146679 0.819185 0.170375 0.144150
H41   H     H_    0.109839 0.739551 0.628890 0.033452
H42   H     H_    0.516792 0.954356 0.777158 0.311486
H43   H     H_    0.909959 0.082968 0.353978 0.271249
H44   H     H_    0.705201 0.527537 0.636894 0.337928
H45   H     H_    0.665108 0.186930 0.220689 0.166177
H46   H     H_    0.879130 0.005451 0.754463 0.319679
H47   H     H_    0.340170 0.092842 0.229355 0.291819
H48   H     H_    0.595197 0.195024 0.874570 0.033589
H49   H     H_    0.666232 0.307800 0.125100 0.294079
H50   H     H_    0.378384 0.708303 0.592446 -0.074098
H51   H     H_    0.656748 0.121240 0.297204 0.049138
H52   H     H_    0.821619 0.121174 0.239051 0.167196
H53   H     H_    0.938854 0.748305 0.712809 -0.048732
H54   H     H_    0.719252 0.846521 0.205757 0.148973
O1    O     O_2   0.823140 0.439340 0.307240 -0.474586
O2    O     O_2   0.194627 0.181075 0.551740 -0.416845
O3    O     O_3   0.157148 0.208818 0.698285 -0.607110
O4    O     O_3   0.097070 0.445850 0.405300 -0.459744
O5    O     O_3   0.592380 0.611270 0.541370 -0.484477
O6    O     O_2   0.323920 0.276750 0.459260 -0.385086
O7    O     O_3   0.454348 0.233428 0.332699 -0.668193
O8    O     O_2   0.507866 0.461179 0.783738 -0.424957
O9    O     O_3   0.532882 0.290568 0.762029 -0.614795
O10   O     O_3   0.627590 0.606740 0.357340 -0.506735
O11   O     O_2   0.730647 0.556380 0.224373 -0.461644
O12   O     O_3   0.708986 0.765914 0.663705 -0.599079
O13   O     O_3   0.957641 0.293554 0.288725 -0.600731
O14   O     O_3   0.558126 0.685100 0.222531 -0.607636
O15   O     O_2   0.865800 0.723280 0.540790 -0.485258
O16   O     O_3   0.060870 0.655550 0.397490 -0.495395
O17   O     O_2   0.006683 0.821202 0.452720 -0.491953
O18   O     O_2   0.250225 0.848233 0.853300 -0.533236
O19   O     O_R   0.473238 0.934256 0.823864 -0.704863
O20   O     O_2   0.012700 0.284341 0.449262 -0.543011
O21   O     O_R   0.965981 0.132693 0.400700 -0.733479
O22   O     O_2   0.693351 0.611723 0.770258 -0.600310
O23   O     O_3   0.061108 0.792707 0.307015 -0.597681
O24   O     O_R   0.796066 0.582035 0.656439 -0.781440
O25   O     O_2   0.965894 0.940576 0.866216 -0.540636
O26   O     O_R   0.816843 0.940236 0.746743 -0.722176
O27   O     O_2   0.052872 0.179602 0.158312 -0.533385
O28   O     O_R   0.219267 0.091993 0.209091 -0.711134
O29   O     O_2   0.761811 0.117293 0.851661 -0.550186
O30   O     O_2   0.778381 0.447849 0.089412 -0.618935
O31   O     O_R   0.786002 0.329065 0.152294 -0.720679
O32   O     O_2   0.454984 0.843630 0.630713 -0.620377
O33   O     O_2   0.366580 0.560690 0.692810 -0.435705
O34   O     O_3   0.092650 0.554230 0.594710 -0.475523
O35   O     O_3   0.562120 0.393340 0.642670 -0.505444
O36   O     O_3   0.247287 0.705045 0.723695 -0.643374
O37   O     O_3   0.597340 0.388800 0.458640 -0.487760
O38   O     O_3   0.128850 0.344520 0.602520 -0.456896
P1    P     P_3+3 0.993190 0.413330 0.319190 1.048794
P2    P     P_3+3 0.695930 0.711340 0.564320 1.062907
P3    P     P_3+3 0.117055 0.772281 0.401699 0.944599
P4    P     P_3+3 0.196530 0.586750 0.680820 1.031366
P5    P     P_3+3 0.084179 0.227311 0.604563 1.038138
P6    P     P_3+3 0.575929 0.583169 0.255384 0.973439
P7    P     P_3+3 0.498792 0.272798 0.434960 0.964183
P8    P     P_3+3 0.612696 0.397168 0.743219 0.994832

loop_
_geom_bond_atom_site_label_1
_geom_bond_atom_site_label_2
_ccdc_geom_bond_type
C12   H4    S    
C47   H16   S    
Ba2   O38   S    
O7    P7    S    
Ba1   P1    S    
O8    P8    D    
O34   P4    S    
C35   H45   S    
C5    C6    S    
C45   C47   S    
C9    C17   A    
C2    C50   S    
C32   C38   S    
C16   H39   S    
C28   C46   S    
C41   O26   S    
C33   C35   S    
C22   C24   A    
C48   O9    S    
C28   H41   S    
C31   H37   S    
C8    C13   A    
C36   C37   S    
O1    P1    D    
C33   H34   S    
C16   H11   S    
C1    H10   S    
C37   H2    S    
C43   C49   S    
Ba2   P4    S    
C27   C31   A    
Ba1   Ba2   S    
C20   H33   S    
C7    P1    S    
C39   O21   S    
Ba1   O16   S    
C33   O13   S    
C37   H3    S    
C6    C7    D    
O9    P8    S    
C15   H24   S    
C21   C22   A    
O11   P6    D    
Ba1   O10   S    
C19   P5    S    
C3    H27   S    
O4    P1    S    
C45   H14   S    
C40   O22   D    
C32   H23   S    
O37   P7    S    
C11   H28   S    
C46   H50   S    
C47   H17   S    
C19   C20   A    
Ba2   O37   S    
Ba1   P2    S    
C7    C50   D    
C4    O23   S    
C4    C16   S    
O10   P6    S    
C8    H25   S    
C4    H22   S    
C6    C44   S    
C1    H54   S    
C42   O28   S    
C38   O18   D    
O33   P4    D    
C43   O29   D    
C29   H35   S    
C28   C32   S    
O36   P4    S    
O12   P2    S    
C4    H32   S    
O5    P2    S    
C27   P2    S    
C3    C5    D    
H49   O31   S    
C14   C15   D    
C37   C41   S    
C45   O3    S    
C18   H38   S    
H47   O28   S    
O3    P5    S    
C48   H19   S    
O38   P5    S    
Ba1   O37   S    
C23   O7    S    
Ba1   O4    S    
C29   C30   A    
Ba2   O6    S    
C32   H12   S    
C48   C49   S    
O6    P7    D    
C40   O24   S    
O16   P3    S    
C10   C11   A    
C22   H36   S    
C1    C12   S    
Ba1   O1    S    
C44   O31   S    
C1    H5    S    
C5    C14   S    
O17   P3    D    
C26   C31   A    
C12   O14   S    
C11   C13   A    
C34   C42   S    
C49   H20   S    
Ba2   O33   S    
C34   H9    S    
C17   H30   S    
C35   H51   S    
H42   O19   S    
C42   O27   D    
C13   C15   S    
H44   O24   S    
C24   P7    S    
C26   P3    S    
C47   H15   S    
C25   C30   A    
O15   P2    D    
C39   O20   D    
C49   H21   S    
C2    C3    S    
C34   H8    S    
C43   H48   S    
Ba2   O5    S    
C35   H52   S    
C36   C40   S    
O13   P1    S    
C2    P6    S    
O14   P6    S    
C28   O36   S    
C46   O32   D    
Ba2   O34   S    
C21   C30   S    
C10   P4    S    
C36   H53   S    
C25   H31   S    
C48   H18   S    
C16   H40   S    
C27   C29   A    
Ba1   O5    S    
C18   C24   A    
C38   O19   S    
C10   C17   A    
C41   O25   D    
C14   H26   S    
C50   H29   S    
C33   C39   S    
Ba1   O15   S    
O23   P3    S    
C8    C9    A    
C23   C34   S    
C44   O30   D    
O2    P5    D    
C36   O12   S    
H43   O21   S    
C9    P8    S    
C12   H1    S    
C18   C19   A    
C23   H6    S    
H46   O26   S    
C25   C26   A    
Ba2   O35   S    
C20   C21   A    
Ba1   O34   S    
C23   H7    S    
C45   H13   S    
O35   P8    S    
Ba2   O4    S    
