data_mof_unit_11508.cif
_audit_creation_date              2013-03-05T15:58:28-0500
_audit_creation_method            fapswitch 2.2
_symmetry_space_group_name_H-M    P1
_symmetry_Int_Tables_number       1
_space_group_crystal_system       triclinic
_cell_length_a                    18.518282
_cell_length_b                    18.654429
_cell_length_c                    18.894961
_cell_angle_alpha                 109.709655
_cell_angle_beta                  109.82789
_cell_angle_gamma                 108.877986
_cell_volume                      5024.23812297

loop_
_atom_site_label
_atom_site_type_symbol
_atom_site_description
_atom_site_fract_x
_atom_site_fract_y
_atom_site_fract_z
_atom_type_partial_charge
O1    O     O_R   0.592040 0.539900 0.448690 -0.630927
O2    O     O_R   0.591220 0.643330 0.551330 -0.582341
C1    C     C_R   0.620423 0.620107 0.500399 1.034153
O3    O     O_R   0.408100 0.448290 0.356370 -0.580100
O4    O     O_R   0.407270 0.551710 0.459000 -0.614678
C2    C     C_R   0.380497 0.501190 0.379548 0.972825
Zn1   Zn    Zn3+2 0.500550 0.430940 0.431470 1.079169
Zn2   Zn    Zn3+2 0.499450 0.569060 0.568530 1.064152
O5    O     O_R   0.408780 0.356670 0.448670 -0.571761
O6    O     O_R   0.407960 0.460100 0.551310 -0.655031
O7    O     O_R   0.592730 0.448290 0.541000 -0.610360
O8    O     O_R   0.591900 0.551710 0.643630 -0.564481
C3    C     C_R   0.381778 0.379414 0.501924 0.876182
C4    C     C_R   0.620328 0.498858 0.620919 1.029956
C5    C     C_3   0.322702 0.580645 0.299599 0.195521
C6    C     C_3   0.230298 0.557773 0.286807 0.417592
C7    C     C_3   0.192068 0.499479 0.189163 -0.178090
C8    C     C_3   0.284995 0.523070 0.201245 -0.306428
C9    C     C_3   0.275143 0.444087 0.214558 0.292371
C10   C     C_3   0.180832 0.418292 0.198875 -0.343350
C11   C     C_3   0.220939 0.477713 0.297465 0.355532
C12   C     C_3   0.314771 0.502107 0.312709 -0.332501
H1    H     H_    0.309566 0.540164 0.159934 0.188745
H2    H     H_    0.122113 0.351733 0.155032 0.196348
C13   C     C_R   0.768752 0.747801 0.578736 0.240178
C14   C     C_R   0.831091 0.812271 0.577500 -0.210562
H3    H     H_    0.894583 0.859663 0.636172 0.204611
C15   C     C_R   0.812474 0.815314 0.500892 -0.143427
C16   C     C_R   0.731152 0.755136 0.424819 -0.274980
H4    H     H_    0.716753 0.759161 0.366145 0.170246
C17   C     C_R   0.668802 0.687886 0.423542 0.475365
C18   C     C_R   0.687324 0.686066 0.501176 -0.237777
C19   C     C_R   0.678699 0.504139 0.761347 0.336980
C20   C     C_R   0.744537 0.507554 0.828350 0.239963
C21   C     C_R   0.814141 0.500025 0.818532 -0.225180
C22   C     C_R   0.819095 0.490404 0.744239 -0.269794
H5    H     H_    0.874002 0.485997 0.738471 0.179808
C23   C     C_R   0.753538 0.486230 0.677007 0.462868
C24   C     C_R   0.685171 0.496378 0.687292 -0.260753
C25   C     C_R   0.261169 0.330792 0.530152 -0.241897
H6    H     H_    0.265530 0.394436 0.550068 0.184489
C26   C     C_R   0.194848 0.266224 0.526481 -0.294378
H7    H     H_    0.149060 0.280277 0.544115 0.166523
C27   C     C_R   0.188167 0.184153 0.500919 -0.136472
C28   C     C_R   0.248604 0.165535 0.481006 0.401544
C29   C     C_R   0.313172 0.229266 0.480073 0.205183
C30   C     C_R   0.318845 0.312321 0.504945 -0.198823
O9    O     O_R   0.951430 0.539890 0.094630 -0.614618
O10   O     O_R   0.054890 0.643310 0.094620 -0.592248
C31   C     C_R   0.001775 0.620299 0.121674 0.951364
O11   O     O_R   0.044450 0.448260 0.096050 -0.637640
O12   O     O_R   0.147910 0.551670 0.096030 -0.612616
C32   C     C_R   0.124751 0.499384 0.123302 0.971448
Zn3   Zn    Zn3+2 0.934780 0.430920 0.003740 1.081820
Zn4   Zn    Zn3+2 0.072940 0.569020 0.003710 1.079701
O13   O     O_R   0.952840 0.356630 0.912840 -0.599016
O14   O     O_R   0.056290 0.460040 0.912820 -0.597440
O15   O     O_R   0.859820 0.448260 0.911420 -0.559720
O16   O     O_R   0.963280 0.551670 0.911400 -0.612169
C33   C     C_R   0.004052 0.379708 0.883718 0.982705
C34   C     C_R   0.882315 0.501472 0.884761 1.018308
O17   O     O_R   0.052810 0.908290 0.461080 -0.636303
O18   O     O_R   0.948580 0.908330 0.356880 -0.586225
C35   C     C_R   0.002876 0.881549 0.380891 0.953996
O19   O     O_R   0.960490 0.908280 0.552000 -0.627051
O20   O     O_R   0.856260 0.908310 0.447800 -0.628475
C36   C     C_R   0.879332 0.880395 0.500252 0.929399
Zn5   Zn    Zn3+2 0.069600 0.999890 0.569480 0.965080
Zn6   Zn    Zn3+2 0.930400 0.999940 0.430340 1.009861
O21   O     O_R   0.051420 0.091500 0.642940 -0.627172
O22   O     O_R   0.947190 0.091540 0.538750 -0.629826
O23   O     O_R   0.143740 0.091510 0.552020 -0.647852
O24   O     O_R   0.039510 0.091550 0.447830 -0.600053
C37   C     C_R   0.998127 0.119426 0.618774 0.966314
C38   C     C_R   0.120492 0.119338 0.499946 0.972822
C39   C     C_R   0.000487 0.759726 0.176976 0.222648
C40   C     C_R   0.003592 0.826082 0.242797 0.232595
C41   C     C_R   0.006559 0.818410 0.315333 -0.180162
C42   C     C_R   0.006991 0.746658 0.322787 -0.256100
H8    H     H_    0.008583 0.740810 0.378397 0.172305
C43   C     C_R   0.002228 0.680466 0.257099 -0.200270
H9    H     H_    0.002321 0.624728 0.263131 0.177698
C44   C     C_R   0.999668 0.687142 0.185097 -0.154350
C45   C     C_R   0.082242 0.321554 0.821507 0.497085
C46   C     C_R   0.078715 0.256560 0.754030 -0.398894
H10   H     H_    0.137899 0.259159 0.754253 0.170574
C47   C     C_R   0.997622 0.186266 0.683746 -0.220945
C48   C     C_R   0.917508 0.180204 0.675470 0.388116
C49   C     C_R   0.919169 0.243460 0.742535 0.145659
C50   C     C_R   0.001541 0.313791 0.814495 -0.298118
O25   O     O_3   0.200351 0.616094 0.316398 -0.639085
C51   C     C_3   0.241971 0.659260 0.407927 0.130347
H11   H     H_    0.314991 0.696372 0.438216 0.175478
H12   H     H_    0.224333 0.611603 0.430293 0.187510
C52   C     C_3   0.210357 0.723724 0.438162 -0.342205
H13   H     H_    0.228127 0.772695 0.417252 0.245324
H14   H     H_    0.137359 0.687627 0.407658 0.228623
C53   C     C_3   0.251299 0.771063 0.536842 -0.948194
H15   H     H_    0.230396 0.723399 0.558368 0.272349
H16   H     H_    0.228989 0.819127 0.556706 0.273615
H17   H     H_    0.324504 0.806583 0.569323 0.276003
O26   O     O_3   0.586171 0.628902 0.349651 -0.602211
C54   C     C_3   0.593024 0.579067 0.279176 0.118225
H18   H     H_    0.561695 0.509673 0.263123 0.198493
H19   H     H_    0.662095 0.598328 0.292769 0.102865
C55   C     C_3   0.543008 0.584931 0.200127 -0.314237
H20   H     H_    0.472046 0.557097 0.180898 0.251381
H21   H     H_    0.569805 0.654761 0.217359 0.228454
C56   C     C_3   0.551447 0.535340 0.123293 -0.928581
H22   H     H_    0.621281 0.566680 0.139122 0.282037
H23   H     H_    0.510294 0.536466 0.065555 0.267526
H24   H     H_    0.528786 0.466132 0.107149 0.269414
O27   O     O_3   0.609129 0.510762 0.769292 -0.579573
C57   C     C_3   0.542946 0.426477 0.740709 0.092502
H25   H     H_    0.569550 0.397483 0.778590 0.178839
H26   H     H_    0.515897 0.382189 0.670367 0.139627
C58   C     C_3   0.467823 0.433576 0.753422 -0.277798
H27   H     H_    0.494990 0.483420 0.821895 0.249407
H28   H     H_    0.435465 0.455066 0.710062 0.232451
C59   C     C_3   0.399248 0.346087 0.733205 -0.967857
H29   H     H_    0.374191 0.293924 0.666667 0.257381
H30   H     H_    0.342875 0.351861 0.737558 0.267064
H31   H     H_    0.428863 0.327216 0.780684 0.272171
N1    N     N_R   0.742315 0.523125 0.907196 0.220198
O28   O     O_R   0.726254 0.461209 0.926517 -0.391618
O29   O     O_R   0.738032 0.591476 0.949540 -0.295083
O30   O     O_3   0.760515 0.480881 0.604935 -0.597178
C60   C     C_3   0.742704 0.395501 0.552810 0.104819
H32   H     H_    0.678794 0.344960 0.538196 0.168263
H33   H     H_    0.796841 0.384279 0.585998 0.135318
C61   C     C_3   0.736361 0.385508 0.466952 -0.301167
H34   H     H_    0.683036 0.397334 0.433394 0.236501
H35   H     H_    0.799812 0.434964 0.480304 0.229312
C62   C     C_3   0.716541 0.294095 0.407438 -0.960727
H36   H     H_    0.769297 0.281007 0.439556 0.260129
H37   H     H_    0.713422 0.289286 0.346173 0.275422
H38   H     H_    0.651990 0.243794 0.391140 0.281090
O31   O     O_3   0.239080 0.082559 0.455060 -0.577774
C63   C     C_3   0.303020 0.084551 0.524164 0.099431
H39   H     H_    0.291526 0.100513 0.580243 0.141242
H40   H     H_    0.371175 0.133895 0.546899 0.165807
C64   C     C_3   0.296228 0.994424 0.492334 -0.285244
H41   H     H_    0.229521 0.944379 0.472132 0.229208
H42   H     H_    0.305443 0.977154 0.434899 0.263859
C65   C     C_3   0.366099 0.993237 0.563107 -0.925708
H43   H     H_    0.433253 0.044326 0.585820 0.287340
H44   H     H_    0.362413 0.928487 0.536539 0.281185
H45   H     H_    0.354799 0.004861 0.619073 0.261370
N2    N     N_R   0.372656 0.209460 0.455268 0.218333
O32   O     O_R   0.457490 0.256862 0.508917 -0.449892
O33   O     O_R   0.341953 0.137747 0.384246 -0.304527
N3    N     N_R   0.998587 0.766314 0.102785 0.241848
O34   O     O_R   0.057009 0.836801 0.113437 -0.287815
O35   O     O_R   0.937392 0.702668 0.024402 -0.346690
N4    N     N_R   0.398616 0.668884 0.352376 0.219683
O36   O     O_R   0.395344 0.728953 0.333312 -0.356882
O37   O     O_R   0.470347 0.687769 0.417140 -0.365049
N5    N     N_R   0.002563 0.899977 0.235350 0.238430
O38   O     O_R   0.941796 0.888089 0.165432 -0.298883
O39   O     O_R   0.063462 0.979318 0.297570 -0.339368
O40   O     O_3   0.160744 0.395112 0.894032 -0.626641
C66   C     C_3   0.236133 0.384428 0.917557 0.063833
H46   H     H_    0.292807 0.448820 0.973337 0.174590
H47   H     H_    0.254120 0.371073 0.866028 0.132058
C67   C     C_3   0.227752 0.317344 0.948479 -0.364161
H48   H     H_    0.215187 0.337846 0.003436 0.261018
H49   H     H_    0.171587 0.251393 0.895663 0.231589
C68   C     C_3   0.311708 0.310769 0.977858 -0.812501
H50   H     H_    0.323903 0.288292 0.922838 0.238546
H51   H     H_    0.304582 0.262986 0.001121 0.302965
H52   H     H_    0.369060 0.375469 0.031772 0.276772
O41   O     O_3   0.838085 0.108926 0.604734 -0.591821
C69   C     C_3   0.801830 0.134161 0.544852 0.122951
H53   H     H_    0.851672 0.169771 0.531022 0.120893
H54   H     H_    0.776316 0.177074 0.570438 0.175767
C70   C     C_3   0.725194 0.051990 0.459629 -0.281197
H55   H     H_    0.750014 0.008969 0.432691 0.235795
H56   H     H_    0.675127 0.015389 0.472356 0.258561
C71   C     C_3   0.681565 0.074947 0.392783 -0.948631
H57   H     H_    0.654398 0.116207 0.417678 0.277594
H58   H     H_    0.626589 0.013904 0.331620 0.285846
H59   H     H_    0.730166 0.110712 0.378223 0.260513
N6    N     N_R   0.837558 0.236972 0.736475 0.222907
O42   O     O_R   0.822213 0.301338 0.741608 -0.448705
O43   O     O_R   0.774670 0.163362 0.716025 -0.318274
N7    N     N_R   0.300814 0.381843 0.176327 0.227894
O44   O     O_R   0.245645 0.298134 0.133312 -0.393927
O45   O     O_R   0.380003 0.409681 0.187417 -0.415138
O46   O     O_3   0.188828 0.456918 0.349842 -0.645666
C72   C     C_3   0.180752 0.376008 0.341502 0.104151
H60   H     H_    0.213629 0.386278 0.407936 0.154093
H61   H     H_    0.213370 0.350210 0.307714 0.143760
C73   C     C_3   0.083149 0.307719 0.294703 -0.377219
H62   H     H_    0.052817 0.330378 0.332819 0.233156
H63   H     H_    0.048234 0.300026 0.229582 0.235096
C74   C     C_3   0.071470 0.219017 0.283474 -0.815900
H64   H     H_    0.099769 0.194294 0.243970 0.287955
H65   H     H_    0.000062 0.171075 0.249623 0.274741
H66   H     H_    0.104596 0.224625 0.347783 0.272861
N8    N     N_R   0.790019 0.744359 0.657784 0.223759
O47   O     O_R   0.842136 0.816274 0.732882 -0.329617
O48   O     O_R   0.767951 0.669639 0.655542 -0.381247

loop_
_geom_bond_atom_site_label_1
_geom_bond_atom_site_label_2
_geom_bond_distance
_ccdc_geom_bond_type
C5    C8    1.543641 S    
C47   C48   1.400131 A    
C6    C11   1.536254 S    
C48   O41   1.385561 S    
Zn4   O16   2.015403 S    
N4    O37   1.299888 A    
C52   H13   1.111763 S    
C21   C22   1.392583 A    
C61   C62   1.526015 S    
C60   H32   1.116451 S    
C62   H38   1.110740 S    
C65   H43   1.110894 S    
C52   C53   1.525891 S    
C67   H48   1.110113 S    
C40   C41   1.410045 A    
O12   C32   1.272423 A    
O9    Zn3   2.014211 S    
C15   C16   1.394031 A    
C14   H3    1.083993 S    
C19   C24   1.407708 A    
C26   C27   1.389477 A    
C49   N6    1.437597 S    
N1    O29   1.300989 A    
C22   H5    1.084293 S    
C20   C21   1.406162 A    
N2    O33   1.301166 A    
C9    N7    1.456160 S    
C46   H10   1.079764 S    
C23   C24   1.404864 A    
O7    C4    1.278666 A    
C68   H51   1.110245 S    
O20   Zn6   2.021027 S    
C55   H20   1.111650 S    
C39   N3    1.437708 S    
C5    C6    1.531651 S    
C2    C12   1.435946 S    
C7    C10   1.542764 S    
C8    C9    1.540961 S    
Zn6   O22   2.018827 S    
O5    C3    1.277966 A    
C28   O31   1.385711 S    
O17   C35   1.280951 A    
C72   C73   1.528903 S    
C43   C44   1.393908 A    
C4    C24   1.438855 S    
C29   C30   1.415060 A    
C54   H19   1.117401 S    
C70   C71   1.525760 S    
O18   Zn6   2.012399 S    
C6    C7    1.533024 S    
C73   H63   1.110770 S    
O21   C37   1.281129 A    
C72   H61   1.116476 S    
Zn6   O24   2.010935 S    
C37   C47   1.429927 S    
C5    N4    1.457584 S    
C73   H62   1.111578 S    
C59   H31   1.110717 S    
Zn5   O23   2.020904 S    
C40   N5    1.437493 S    
C71   H59   1.110866 S    
C48   C49   1.393048 A    
C73   C74   1.526515 S    
C13   C18   1.409415 A    
C25   C26   1.375706 A    
O20   C36   1.280941 A    
C67   H49   1.109486 S    
C11   C12   1.539378 S    
O18   C35   1.278616 A    
N5    O39   1.300507 A    
O24   C38   1.279922 A    
C64   C65   1.525635 S    
O26   C54   1.417584 S    
C45   C50   1.408738 A    
C74   H66   1.109412 S    
C39   C44   1.409104 A    
C65   H44   1.109078 S    
C59   H30   1.110480 S    
C31   C44   1.430995 S    
C57   H25   1.114396 S    
C66   H47   1.109553 S    
C5    C12   1.536104 S    
Zn3   O13   2.016553 S    
O16   C34   1.280539 A    
C46   C47   1.391570 A    
C8    H1    1.110388 S    
C17   O26   1.387948 S    
C10   H2    1.109838 S    
C9    C12   1.535647 S    
C39   C40   1.396175 A    
C74   H65   1.110244 S    
C58   C59   1.526895 S    
O25   C51   1.410040 S    
C3    C30   1.441295 S    
C58   H28   1.111272 S    
C41   C42   1.394563 A    
N8    O47   1.301449 A    
O14   C33   1.276350 A    
C62   H37   1.110256 S    
O19   C36   1.280419 A    
C13   C14   1.385070 A    
C69   H53   1.115977 S    
C25   C30   1.399590 A    
C51   C52   1.527832 S    
C43   H9    1.083986 S    
O13   C33   1.279496 A    
O11   C32   1.271829 A    
C27   C38   1.421847 S    
Zn1   O7    2.023814 S    
N6    O42   1.301075 A    
C72   H60   1.107664 S    
C16   H4    1.083690 S    
O4    Zn2   2.023815 S    
C66   C67   1.536385 S    
C11   O46   1.411537 S    
C17   C18   1.403678 A    
Zn2   O8    2.017328 S    
O19   Zn5   2.011021 S    
C15   C36   1.433283 S    
C51   H12   1.111213 S    
C7    C8    1.543621 S    
C1    C18   1.427625 S    
C21   C34   1.429663 S    
C52   H14   1.110676 S    
C45   C46   1.396209 A    
C69   H54   1.111965 S    
O3    C2    1.270293 A    
C25   H6    1.083353 S    
O8    C4    1.279493 A    
O10   C31   1.276289 A    
C67   C68   1.524535 S    
C53   H16   1.110576 S    
Zn4   O14   2.014339 S    
N5    O38   1.301208 A    
C64   H42   1.111773 S    
C56   H24   1.110359 S    
C26   H7    1.084102 S    
N7    O45   1.299773 A    
C61   H34   1.111946 S    
C60   C61   1.527390 S    
C7    C32   1.430836 S    
N4    O36   1.300180 A    
C65   H45   1.110794 S    
O41   C69   1.414585 S    
C55   H21   1.111359 S    
C42   C43   1.376411 A    
O27   C57   1.413193 S    
Zn3   O15   2.025556 S    
C69   C70   1.527667 S    
Zn1   O5    2.016915 S    
C19   O27   1.385358 S    
O3    Zn1   2.017329 S    
C68   H50   1.110901 S    
C20   N1    1.436309 S    
O1    Zn1   2.014753 S    
C35   C41   1.432323 S    
O2    Zn2   2.016916 S    
C27   C28   1.401367 A    
N3    O35   1.300783 A    
C74   H64   1.110879 S    
C61   H35   1.111683 S    
O6    C3    1.282497 A    
C60   H33   1.113538 S    
O22   C37   1.277117 A    
C57   H26   1.113514 S    
C63   H39   1.112621 S    
O12   Zn4   2.025765 S    
C62   H36   1.111031 S    
C33   C50   1.435921 S    
C71   H57   1.110728 S    
C66   H46   1.111324 S    
C53   H17   1.110615 S    
C14   C15   1.395313 A    
O17   Zn5   2.018700 S    
O11   Zn3   2.015613 S    
C9    C10   1.542233 S    
C70   H55   1.111855 S    
O2    C1    1.276586 A    
C49   C50   1.411221 A    
C16   C17   1.389564 A    
C13   N8    1.439489 S    
O10   Zn4   2.016555 S    
C58   H27   1.111697 S    
C22   C23   1.385470 A    
C63   H40   1.112863 S    
O23   C38   1.274636 A    
O4    C2    1.275201 A    
O40   C66   1.416038 S    
O15   C34   1.274617 A    
C23   O30   1.384621 S    
C56   H23   1.110483 S    
O9    C31   1.278720 A    
C51   H11   1.112330 S    
C63   C64   1.527744 S    
C19   C20   1.393402 A    
C54   C55   1.529059 S    
O46   C72   1.415199 S    
C57   C58   1.528057 S    
O31   C63   1.413597 S    
C42   H8    1.084064 S    
C28   C29   1.397122 A    
C29   N2    1.437502 S    
C10   C11   1.544790 S    
C6    O25   1.412184 S    
Zn2   O6    2.014754 S    
C53   H15   1.110797 S    
C56   H22   1.110879 S    
C54   H18   1.110915 S    
C64   H41   1.112057 S    
Zn5   O21   2.012399 S    
C59   H29   1.108928 S    
N1    O28   1.300603 A    
N6    O43   1.301194 A    
N3    O34   1.301220 A    
C68   H52   1.108904 S    
O1    C1    1.275226 A    
N7    O44   1.300392 A    
N2    O32   1.301374 A    
N8    O48   1.300560 A    
C45   O40   1.401246 S    
O30   C60   1.413220 S    
C70   H56   1.111746 S    
C71   H58   1.110280 S    
C55   C56   1.526268 S    
