data_mof_unit_11719.cif
_audit_creation_date              2012-12-11T17:43:14-0500
_audit_creation_method            fapswitch 2.2
_symmetry_space_group_name_H-M    P1
_symmetry_Int_Tables_number       1
_space_group_crystal_system       triclinic
_cell_length_a                    15.109056
_cell_length_b                    15.017099
_cell_length_c                    16.976317
_cell_angle_alpha                 108.163713
_cell_angle_beta                  105.883688
_cell_angle_gamma                 109.38777
_cell_volume                      3131.79385012

loop_
_atom_site_label
_atom_site_type_symbol
_atom_type_description
_atom_site_fract_x
_atom_site_fract_y
_atom_site_fract_z
_atom_type_partial_charge
C1    C     C_R   0.084308 0.288635 0.079762 -0.135349
C2    C     C_R   0.087130 0.112224 0.120916 -0.226651
C3    C     C_R   0.998542 0.926220 0.077948 0.058390
C4    C     C_R   0.993327 0.111175 0.079682 0.051055
C5    C     C_R   0.091614 0.022586 0.123767 0.032636
C6    C     C_R   0.900622 0.024301 0.058476 0.032739
C7    C     C_R   0.708913 0.951685 0.971351 -0.193180
C8    C     C_R   0.217750 0.031913 0.260554 -0.164088
C9    C     C_R   0.615783 0.044803 0.023324 -0.000834
C10   C     C_R   0.402360 0.115626 0.299808 -0.021087
C11   C     C_R   0.481544 0.611529 0.272987 -0.118899
C12   C     C_R   0.910444 0.723932 0.977652 -0.115904
C13   C     C_R   0.502080 0.317313 0.650417 -0.114912
C14   C     C_R   0.475286 0.584222 0.184295 -0.118732
C15   C     C_R   0.496296 0.330041 0.733720 -0.151581
C16   C     C_R   0.935913 0.515165 0.745245 -0.118355
C17   C     C_R   0.063090 0.547553 0.264138 -0.125258
C18   C     C_R   0.460185 0.483187 0.130808 0.105576
C19   C     C_R   0.477639 0.411766 0.781142 0.122813
C20   C     C_R   0.453345 0.410829 0.167969 -0.179530
C21   C     C_R   0.464959 0.480504 0.743674 -0.168451
C22   C     C_R   0.459119 0.438374 0.256493 -0.110851
C23   C     C_R   0.026630 0.574316 0.742225 0.062453
C24   C     C_R   0.471341 0.467740 0.660557 -0.122401
C25   C     C_R   0.473048 0.538593 0.308900 -0.101476
C26   C     C_R   0.489810 0.386107 0.613904 -0.081942
C27   C     C_R   0.532230 0.434875 0.022331 -0.213109
C28   C     C_R   0.387095 0.437284 0.881407 -0.242763
C29   C     C_R   0.543507 0.425477 0.941682 0.059434
C30   C     C_R   0.380342 0.453278 0.964651 0.070621
C31   C     C_R   0.470033 0.424771 0.869058 0.020855
C32   C     C_R   0.454232 0.453511 0.036694 0.012762
C33   C     C_R   0.616718 0.958936 0.959948 -0.162367
C34   C     C_R   0.970970 0.532759 0.273222 0.060232
C35   C     C_R   0.320326 0.070292 0.321404 -0.161884
C36   C     C_R   0.961505 0.575433 0.359246 0.123303
C37   C     C_R   0.033807 0.613319 0.673738 0.123091
C38   C     C_R   0.136402 0.687319 0.601742 -0.219729
C39   C     C_R   0.857733 0.553709 0.444525 -0.205507
C40   C     C_R   0.727954 0.209805 0.819350 0.324080
C41   C     C_R   0.283019 0.779189 0.171399 0.303916
C42   C     C_R   0.130569 0.669447 0.676151 -0.163806
C43   C     C_R   0.864232 0.540492 0.361897 -0.161376
C44   C     C_R   0.943134 0.586310 0.600549 -0.270293
C45   C     C_R   0.684067 0.208502 0.736372 0.003447
C46   C     C_R   0.051250 0.638445 0.441342 -0.281154
C47   C     C_R   0.948329 0.598686 0.523971 0.179057
C48   C     C_R   0.045745 0.645718 0.523277 0.185436
C49   C     C_R   0.607638 0.118860 0.654205 0.147837
C50   C     C_R   0.417041 0.861421 0.328666 0.131487
C51   C     C_R   0.595497 0.978364 0.428432 -0.198746
C52   C     C_R   0.430085 0.999291 0.554282 -0.223692
C53   C     C_R   0.520207 0.902664 0.342075 -0.178857
C54   C     C_R   0.504336 0.075008 0.640229 -0.178871
C55   C     C_R   0.386928 0.896039 0.397928 -0.314709
C56   C     C_R   0.337621 0.773140 0.246923 0.022324
C57   C     C_R   0.639151 0.085283 0.585599 -0.292067
C58   C     C_R   0.460503 0.968400 0.483888 0.215625
C59   C     C_R   0.565886 0.010170 0.499584 0.209153
C60   C     C_R   0.708834 0.122821 0.098903 -0.177259
C61   C     C_R   0.379906 0.118848 0.215108 -0.196903
C62   C     C_R   0.800794 0.115146 0.110655 -0.160881
C63   C     C_R   0.277722 0.080804 0.154582 -0.179818
C64   C     C_R   0.266167 0.541506 0.955814 -0.133802
C65   C     C_R   0.700031 0.403536 0.995934 -0.153584
C66   C     C_R   0.801968 0.030230 0.046380 0.122873
C67   C     C_R   0.296809 0.470986 0.976097 0.043015
C68   C     C_R   0.195904 0.039031 0.177593 0.108907
C69   C     C_R   0.739163 0.304365 0.740309 -0.205970
C70   C     C_R   0.274557 0.684975 0.248797 -0.222183
C71   C     C_R   0.251325 0.439006 0.028562 -0.104705
C72   C     C_R   0.705987 0.502340 0.921777 -0.126937
C73   C     C_R   0.107894 0.600524 0.821823 -0.145485
C74   C     C_R   0.890151 0.463202 0.187272 -0.136648
C75   C     C_R   0.914408 0.201792 0.997867 -0.130156
C76   C     C_R   0.082924 0.805123 0.052851 -0.152588
C77   C     C_R   0.996850 0.196038 0.052227 0.053617
C78   C     C_R   0.643038 0.437714 0.946651 0.059233
C79   C     C_R   0.996704 0.821915 0.041095 0.058262
C80   C     C_2   0.518031 0.052821 0.010276 0.976534
C81   C     C_2   0.511043 0.162831 0.366590 0.979692
C82   C     C_3   0.673904 0.139130 0.854632 -1.051163
C83   C     C_3   0.333255 0.835901 0.124938 -1.023311
C84   C     C_R   0.904116 0.930929 0.054284 -0.232897
H1    H     H_    0.160417 0.318367 0.132219 0.094779
H2    H     H_    0.506006 0.276292 0.761308 0.114133
H3    H     H_    0.442367 0.332849 0.127955 0.141653
H4    H     H_    0.451184 0.544586 0.779216 0.110852
H5    H     H_    0.452860 0.382030 0.284457 0.119009
H6    H     H_    0.461922 0.521143 0.632312 0.109605
H7    H     H_    0.591114 0.439657 0.079423 0.133992
H8    H     H_    0.328129 0.435674 0.826642 0.133538
H9    H     H_    0.126666 0.671412 0.441355 0.116240
H10   H     H_    0.867729 0.546443 0.598306 0.118896
H11   H     H_    0.793200 0.495979 0.300173 0.125131
H12   H     H_    0.830294 0.707526 0.950887 0.091679
H13   H     H_    0.202055 0.694235 0.732613 0.128406
H14   H     H_    0.211719 0.724998 0.602508 0.130776
H15   H     H_    0.782306 0.519496 0.444599 0.136889
H16   H     H_    0.857600 0.492643 0.701324 0.089043
H17   H     H_    0.141055 0.596125 0.316417 0.095254
H18   H     H_    0.546364 0.897722 0.900976 0.157699
H19   H     H_    0.335535 0.066974 0.386295 0.157936
H20   H     H_    0.720266 0.120971 0.598666 0.132954
H21   H     H_    0.305724 0.863125 0.385147 0.133158
H22   H     H_    0.480707 0.102498 0.693861 0.121999
H23   H     H_    0.707914 0.885684 0.920738 0.118775
H24   H     H_    0.542045 0.874049 0.287229 0.130573
H25   H     H_    0.676085 0.010682 0.439984 0.135730
H26   H     H_    0.349335 0.966767 0.542321 0.128153
H27   H     H_    0.710639 0.189859 0.149012 0.162863
H28   H     H_    0.441476 0.153653 0.196797 0.195782
H29   H     H_    0.871508 0.176184 0.169441 0.129380
H30   H     H_    0.262451 0.088120 0.091309 0.134078
H31   H     H_    0.290530 0.584275 0.918653 0.104467
H32   H     H_    0.671915 0.343538 0.017844 0.114693
H33   H     H_    0.721387 0.331841 0.689028 0.123588
H34   H     H_    0.155863 0.001665 0.280118 0.123118
H35   H     H_    0.295502 0.653482 0.296270 0.122295
H36   H     H_    0.258433 0.384610 0.056037 0.111201
H37   H     H_    0.684421 0.536770 0.877174 0.106078
H38   H     H_    0.187553 0.657837 0.848176 0.099892
H39   H     H_    0.808317 0.434539 0.168843 0.099248
H40   H     H_    0.834796 0.146930 0.969555 0.135931
H41   H     H_    0.162354 0.860056 0.094760 0.145372
H42   H     H_    0.832683 0.861520 0.031050 0.124087
H43   H     H_    0.159231 0.182477 0.148969 0.126314
H44   H     H_    0.363747 0.985972 0.936502 0.322342
H45   H     H_    0.477628 0.559883 0.377473 0.102309
H46   H     H_    0.610874 0.221409 0.497700 0.315304
H47   H     H_    0.589933 0.115172 0.826044 0.252035
H48   H     H_    0.685199 0.067369 0.835138 0.256567
H49   H     H_    0.702940 0.181768 0.929841 0.249040
H50   H     H_    0.359762 0.921240 0.162483 0.270346
H51   H     H_    0.401111 0.822691 0.123905 0.248822
H52   H     H_    0.278751 0.806333 0.053125 0.250457
H53   H     H_    0.494517 0.376073 0.549452 0.123149
H54   H     H_    0.493087 0.689257 0.314007 0.117870
H55   H     H_    0.515982 0.254087 0.614048 0.168450
H56   H     H_    0.481880 0.641413 0.157209 0.110115
N1    N     N_R   0.055660 0.348550 0.045620 -0.040984
N2    N     N_R   0.185200 0.638170 0.176300 -0.050702
N3    N     N_R   0.201680 0.494570 0.045620 -0.040549
N4    N     N_R   0.798320 0.505430 0.954380 -0.039581
N5    N     N_R   0.068420 0.560530 0.871650 -0.039412
N6    N     N_R   0.931580 0.439470 0.128350 -0.041023
N7    N     N_R   0.948070 0.295860 0.997670 -0.041962
N8    N     N_R   0.051930 0.704140 0.002330 -0.043351
N9    N     N_R   0.944340 0.651450 0.954380 -0.040986
N10   N     N_R   0.960830 0.507850 0.823700 -0.039317
N11   N     N_R   0.039170 0.492150 0.176300 -0.039358
N12   N     N_R   0.811290 0.303410 0.871650 -0.056441
N13   N     N_R   0.188710 0.696590 0.128350 -0.057510
N14   N     N_R   0.205200 0.552990 0.997670 -0.037900
N15   N     N_R   0.794800 0.447010 0.002330 -0.039543
N16   N     N_R   0.814800 0.361830 0.823700 -0.050644
Ni1   Ni    Ni4+2 0.119340 0.493420 0.109960 0.213007
Ni2   Ni    Ni4+2 0.880660 0.506580 0.890040 0.212358
Ni3   Ni    Ni4+2 0.872590 0.372590 0.000000 0.211220
Ni4   Ni    Ni4+2 0.127410 0.627410 0.000000 0.212332
O1    O     O_2   0.518361 0.130458 0.062611 -0.678716
O2    O     O_R   0.424979 0.971514 0.937887 -0.821961
O3    O     O_2   0.581277 0.183384 0.342161 -0.648322
O4    O     O_R   0.533791 0.186296 0.458288 -0.840454

loop_
_geom_bond_atom_site_label_1
_geom_bond_atom_site_label_2
_ccdc_geom_bond_type
C12   C79   A    
C72   H37   S    
C27   C29   A    
C1    C77   A    
C14   C18   A    
C76   C79   A    
C38   H14   S    
C26   H53   S    
C19   C31   S    
C8    H34   S    
C15   C19   A    
C71   H36   S    
C55   H21   S    
N11   Ni1   S    
C71   N3    A    
C19   C21   A    
C11   H54   S    
C24   C26   A    
C38   C42   A    
C35   H19   S    
C11   C14   A    
C57   C59   A    
C11   C25   A    
C49   C54   A    
C41   C83   S    
C20   H3    S    
C64   N14   A    
C49   C57   A    
C40   N12   A    
C60   C62   A    
N8    Ni4   S    
C69   H33   S    
C37   C42   A    
C61   C63   A    
C17   H17   S    
C83   H50   S    
C72   C78   A    
C63   H30   S    
C29   C78   S    
N12   N16   A    
C22   C25   A    
C43   H11   S    
C27   H7    S    
C10   C35   A    
C7    C33   A    
C52   H26   S    
N9    Ni2   S    
C18   C20   A    
N5    N10   A    
C44   C47   A    
C2    H43   S    
C74   H39   S    
N12   Ni3   S    
C25   H45   S    
C51   H25   S    
C64   H31   S    
C9    C33   A    
C76   H41   S    
C81   O3    D    
C17   N11   A    
C23   C73   A    
C5    C68   S    
C52   C54   A    
N3    Ni1   S    
C41   N13   A    
C84   H42   S    
C40   C45   A    
C46   C48   A    
C70   N2    A    
C50   C53   A    
C6    C84   A    
C62   C66   A    
C45   C69   A    
C33   H18   S    
C69   N16   A    
C64   C67   A    
C40   C82   S    
C1    N1    A    
N8    N9    A    
C62   H29   S    
C4    C6    A    
C42   H13   S    
N5    Ni4   S    
C54   H22   S    
C16   H16   S    
N3    N14   A    
C39   C43   A    
N6    Ni3   S    
C75   N7    A    
C58   C59   A    
C23   C37   S    
N15   Ni3   S    
C50   C56   S    
C75   H40   S    
C76   N8    A    
C73   N5    A    
C51   C53   A    
C9    C80   S    
C2    C4    A    
C41   C56   A    
N14   Ni4   S    
C39   H15   S    
C47   C48   A    
C45   C49   S    
C70   H35   S    
H44   O2    S    
C28   H8    S    
C36   C46   A    
C75   C77   A    
C80   O2    S    
C83   H52   S    
C52   C58   A    
C34   C74   A    
C15   H2    S    
N1    Ni1   S    
C20   C22   A    
C8    C68   A    
C16   C23   A    
C56   C70   A    
C13   C15   A    
C81   O4    S    
C7    H23   S    
C13   C26   A    
C21   C24   A    
C1    H1    S    
C18   C32   S    
C17   C34   A    
N2    Ni1   S    
N4    Ni2   S    
C13   H55   S    
C38   C48   A    
C39   C47   A    
N7    Ni3   S    
H46   O4    S    
C72   N4    A    
C57   H20   S    
C63   C68   A    
C65   C78   A    
N10   Ni2   S    
C27   C32   A    
C83   H51   S    
C12   N9    A    
C74   N6    A    
C28   C31   A    
C30   C67   S    
C14   H56   S    
C3    C5    A    
C24   H6    S    
C2    C5    A    
C10   C81   S    
C50   C55   A    
C9    C60   A    
C82   H49   S    
C28   C30   A    
C4    C77   S    
C29   C31   A    
C60   H27   S    
C7    C66   A    
C30   C32   A    
C53   H24   S    
C46   H9    S    
N4    N15   A    
N16   Ni2   S    
C65   H32   S    
C22   H5    S    
C67   C71   A    
N2    N13   A    
C80   O1    D    
C21   H4    S    
C44   H10   S    
N1    N7    A    
N6    N11   A    
C10   C61   A    
C37   C44   A    
C3    C79   S    
C6    C66   S    
C51   C59   A    
C34   C36   S    
C65   N15   A    
C73   H38   S    
C55   C58   A    
C3    C84   A    
N13   Ni4   S    
C12   H12   S    
C36   C43   A    
C16   N10   A    
C82   H47   S    
C61   H28   S    
C82   H48   S    
C8    C35   A    
