data_mof_unit_49036.cif
_audit_creation_date              2012-10-26T21:19:39-0400
_audit_creation_method            fapswitch 2.2
_symmetry_space_group_name_H-M    P1
_symmetry_Int_Tables_number       1
_space_group_crystal_system       triclinic
_cell_length_a                    10.809994
_cell_length_b                    15.133269
_cell_length_c                    13.858517
_cell_angle_alpha                 90.131959
_cell_angle_beta                  90.123587
_cell_angle_gamma                 90.145092
_cell_volume                      2267.10379325

loop_
_atom_site_label
_atom_site_type_symbol
_atom_type_description
_atom_site_fract_x
_atom_site_fract_y
_atom_site_fract_z
_atom_type_partial_charge
C1    C     C_R   0.499528 0.329807 0.499939 0.547411
C2    C     C_R   0.548901 0.812645 0.421828 -0.140974
C3    C     C_R   0.498257 0.233226 0.499963 0.015492
C4    C     C_R   0.499583 0.766272 0.500232 0.009781
C5    C     C_R   0.476176 0.186555 0.414099 -0.133478
C6    C     C_R   0.449300 0.812388 0.578530 -0.139300
C7    C     C_R   0.474711 0.094716 0.414312 -0.123424
C8    C     C_R   0.447331 0.904210 0.578074 -0.122844
C9    C     C_R   0.497166 0.048223 0.500100 0.035791
C10   C     C_R   0.497636 0.951044 0.500024 0.033848
C11   C     C_R   0.605687 0.529556 0.108177 0.225465
C12   C     C_R   0.500043 0.670021 0.500093 0.539872
C13   C     C_R   0.452470 0.427259 0.892100 0.224617
C14   C     C_R   0.600445 0.531440 0.210149 0.052633
C15   C     C_R   0.450893 0.430138 0.790223 0.061550
C16   C     C_R   0.262270 0.502249 0.499837 0.546245
C17   C     C_R   0.737757 0.498169 0.500150 0.554041
C18   C     C_R   0.400007 0.469486 0.208508 0.017302
C19   C     C_R   0.549260 0.569530 0.791069 0.004784
C20   C     C_R   0.397943 0.470870 0.107162 -0.162147
C21   C     C_R   0.548735 0.571203 0.892466 -0.164913
C22   C     C_R   0.501482 0.500477 0.054649 0.042538
C23   C     C_R   0.871611 0.497608 0.500417 -0.000439
C24   C     C_R   0.500557 0.499610 0.945344 0.039330
C25   C     C_R   0.254042 0.726570 0.306490 -0.092942
C26   C     C_R   0.799763 0.251144 0.690228 -0.113038
C27   C     C_R   0.194489 0.676859 0.377584 -0.056534
C28   C     C_R   0.853789 0.306676 0.621707 -0.087292
C29   C     C_R   0.122395 0.603079 0.351708 0.049568
C30   C     C_R   0.878623 0.395325 0.644575 0.050218
C31   C     C_R   0.109379 0.580580 0.253807 -0.102107
C32   C     C_R   0.847861 0.428122 0.736227 -0.055660
C33   C     C_R   0.169883 0.630140 0.183037 -0.117276
C34   C     C_R   0.128412 0.504412 0.499685 -0.003038
C35   C     C_R   0.791955 0.372662 0.804037 -0.107568
C36   C     C_R   0.242328 0.702940 0.209363 -0.096992
C37   C     C_R   0.768871 0.284090 0.781289 -0.116094
C38   C     C_R   0.933161 0.544286 0.427811 -0.155806
C39   C     C_R   0.066744 0.457438 0.571911 -0.151714
C40   C     C_3   0.807591 0.499379 0.074742 -0.017042
C41   C     C_3   0.917861 0.528365 0.014580 -0.373603
C42   C     C_3   0.491867 0.286722 0.939408 -0.015141
C43   C     C_3   0.446944 0.212467 0.004299 -0.372454
C44   C     C_R   0.938648 0.452992 0.572645 -0.035827
C45   C     C_R   0.061530 0.548929 0.426966 -0.032643
C46   C     C_R   0.519445 0.095125 0.585926 -0.127413
C47   C     C_R   0.548825 0.904471 0.422036 -0.126696
C48   C     C_R   0.518648 0.186924 0.586037 -0.136994
Cu1   Cu    Cu3+1 0.500000 0.499990 0.596430 0.935857
Cu2   Cu    Cu3+1 0.500000 0.500010 0.403570 0.933941
H1    H     H_    0.289302 0.741072 0.154493 0.104129
H2    H     H_    0.584693 0.629069 0.929065 0.153686
H3    H     H_    0.309509 0.783292 0.326690 0.112393
H4    H     H_    0.781761 0.182565 0.672723 0.107649
H5    H     H_    0.204935 0.695506 0.452680 0.094810
H6    H     H_    0.877139 0.280585 0.551235 0.102631
H7    H     H_    0.054514 0.523775 0.232579 0.091783
H8    H     H_    0.866109 0.496534 0.754549 0.101866
H9    H     H_    0.161556 0.611703 0.107825 0.098805
H10   H     H_    0.766803 0.398169 0.874228 0.102443
H11   H     H_    0.880926 0.579401 0.373114 0.119757
H12   H     H_    0.727501 0.240817 0.834236 0.084715
H13   H     H_    0.118693 0.421538 0.626179 0.131823
H14   H     H_    0.538974 0.060967 0.652791 0.098831
H15   H     H_    0.590229 0.938938 0.361775 0.104331
H16   H     H_    0.535388 0.221545 0.653310 0.123156
H17   H     H_    0.588923 0.777910 0.361041 0.124378
H18   H     H_    0.458763 0.220910 0.346960 0.123599
H19   H     H_    0.409669 0.777442 0.639249 0.120153
H20   H     H_    0.779857 0.431634 0.051277 0.120156
H21   H     H_    0.837255 0.497626 0.151662 0.117687
H22   H     H_    0.948131 0.595479 0.037121 0.158082
H23   H     H_    0.454802 0.060169 0.347534 0.099965
H24   H     H_    0.995693 0.481525 0.024817 0.094774
H25   H     H_    0.892178 0.529907 0.937021 0.151141
H26   H     H_    0.582682 0.310407 0.968034 0.121861
H27   H     H_    0.504198 0.259719 0.865271 0.119591
H28   H     H_    0.357303 0.186193 0.977232 0.157862
H29   H     H_    0.515898 0.158202 0.004983 0.087903
H30   H     H_    0.434587 0.237435 0.079104 0.154735
H31   H     H_    0.405182 0.938454 0.638243 0.103337
H32   H     H_    0.677882 0.558018 0.250286 0.126008
H33   H     H_    0.410590 0.375633 0.750476 0.130946
H34   H     H_    0.320203 0.444696 0.246776 0.138036
H35   H     H_    0.588586 0.624733 0.752319 0.134498
H36   H     H_    0.314709 0.449493 0.070306 0.149328
N1    N     N_R   0.500000 0.500020 0.258690 -0.248505
N2    N     N_R   0.500000 0.499980 0.741310 -0.248711
O1    O     O_R   0.500010 0.371450 0.581430 -0.512401
O2    O     O_3   0.403168 0.354904 0.939023 -0.585075
O3    O     O_R   0.499990 0.628550 0.418570 -0.497457
O4    O     O_R   0.500010 0.371460 0.418560 -0.502710
O5    O     O_R   0.499990 0.628540 0.581440 -0.513385
O6    O     O_R   0.319640 0.500000 0.581430 -0.505541
O7    O     O_R   0.680360 0.500000 0.418570 -0.523117
O8    O     O_R   0.319640 0.500010 0.418560 -0.497938
O9    O     O_R   0.680360 0.499990 0.581440 -0.485714
O10   O     O_3   0.710083 0.560011 0.061121 -0.585186

loop_
_geom_bond_atom_site_label_1
_geom_bond_atom_site_label_2
_ccdc_geom_bond_type
C6    H19   S    
C40   H21   S    
C13   O2    S    
C27   C29   A    
C12   O3    A    
C32   H8    S    
C37   H12   S    
C28   H6    S    
C7    H23   S    
C43   H28   S    
C17   C23   S    
C40   H20   S    
C11   O10   S    
C19   C21   A    
C25   H3    S    
C14   N1    A    
C40   O10   S    
C11   C14   A    
C27   H5    S    
Cu2   O7    S    
C43   H29   S    
C3    C48   A    
C33   C36   A    
C48   H16   S    
C38   C45   A    
C16   C34   S    
C41   H24   S    
C20   H36   S    
C18   H34   S    
C31   C33   A    
C17   O7    A    
Cu1   O6    S    
C4    C12   S    
C9    C10   S    
C38   H11   S    
C9    C46   A    
C33   H9    S    
Cu1   N2    S    
C30   C44   S    
C5    H18   S    
C26   H4    S    
C16   O6    A    
C46   C48   A    
C16   O8    A    
C34   C39   A    
C32   C35   A    
C4    C6    A    
C2    H17   S    
C5    C7    A    
C15   H33   S    
C3    C5    A    
C43   H30   S    
C23   C44   A    
C8    H31   S    
C13   C24   A    
C29   C45   S    
C35   H10   S    
C1    C3    S    
C2    C4    A    
C41   H25   S    
C34   C45   A    
C36   H1    S    
Cu2   N1    S    
C41   H22   S    
Cu2   O4    S    
C40   C41   S    
C20   C22   A    
C19   N2    A    
C1    O4    A    
C13   C15   A    
C22   C24   S    
C12   O5    A    
C42   C43   S    
C14   H32   S    
C7    C9    A    
C1    O1    A    
C35   C37   A    
C26   C28   A    
Cu1   O1    S    
C19   H35   S    
C6    C8    A    
C26   C37   A    
C39   C44   A    
C2    C47   A    
C25   C27   A    
C23   C38   A    
C39   H13   S    
C11   C22   A    
C42   H26   S    
C18   N1    A    
Cu1   O5    S    
C31   H7    S    
C28   C30   A    
C29   C31   A    
C30   C32   A    
Cu2   O8    S    
C18   C20   A    
C25   C36   A    
Cu1   O9    S    
Cu2   O3    S    
C42   H27   S    
C8    C10   A    
Cu1   Cu2   S    
C21   C24   A    
C46   H14   S    
C10   C47   A    
C42   O2    S    
C17   O9    A    
C47   H15   S    
C21   H2    S    
C15   N2    A    
