data_mof_unit_46569.cif
_audit_creation_date              2012-10-26T19:41:51-0400
_audit_creation_method            fapswitch 2.2
_symmetry_space_group_name_H-M    P1
_symmetry_Int_Tables_number       1
_space_group_crystal_system       triclinic
_cell_length_a                    10.610958
_cell_length_b                    10.748209
_cell_length_c                    9.658305
_cell_angle_alpha                 88.816994
_cell_angle_beta                  90.183427
_cell_angle_gamma                 92.521928
_cell_volume                      1100.21371063

loop_
_atom_site_label
_atom_site_type_symbol
_atom_type_description
_atom_site_fract_x
_atom_site_fract_y
_atom_site_fract_z
_atom_type_partial_charge
C1    C     C_R   0.498578 0.263025 0.501184 0.535219
C2    C     C_R   0.379943 0.060423 0.535624 0.024465
C3    C     C_R   0.492813 0.129143 0.503529 0.010782
C4    C     C_R   0.259572 0.499400 0.500013 0.529530
C5    C     C_R   0.602628 0.069946 0.470616 -0.145544
C6    C     C_R   0.602478 0.941583 0.469695 -0.165428
C7    C     C_R   0.491792 0.871003 0.498410 0.007257
C8    C     C_R   0.706698 0.625239 0.133407 0.054705
C9    C     C_R   0.819285 0.634075 0.057539 -0.153304
C10   C     C_R   0.810727 0.648909 0.915502 -0.183179
C11   C     C_R   0.694512 0.628946 0.852125 -0.076859
C12   C     C_3   0.958068 0.485238 0.369693 -0.112187
C13   C     C_R   0.595784 0.563630 0.923215 0.143926
C14   C     C_R   0.598296 0.562871 0.072021 0.159250
C15   C     C_R   0.407772 0.439844 0.074856 -0.006514
C16   C     C_R   0.498167 0.737134 0.499126 0.518714
C17   C     C_R   0.408172 0.439366 0.927444 -0.005857
C18   C     C_R   0.740262 0.498355 0.500082 0.533136
C19   C     C_3   0.041506 0.510631 0.630857 -0.110853
C20   C     C_3   0.954426 0.401998 0.579496 -0.120044
C21   C     C_3   0.877247 0.497049 0.499735 0.050538
C22   C     C_3   0.961944 0.605537 0.550901 -0.134789
C23   C     C_3   0.037612 0.390334 0.449575 -0.134413
C24   C     C_3   0.045005 0.593960 0.420923 -0.129272
C25   C     C_3   0.694319 0.740295 0.217503 -0.335218
C26   C     C_3   0.122385 0.498973 0.500640 0.042387
C27   C     C_R   0.267795 0.119432 0.568645 -0.112071
C28   C     C_R   0.157601 0.049123 0.599677 -0.128092
C29   C     C_R   0.157105 0.919611 0.598033 -0.125817
C30   C     C_R   0.266573 0.859534 0.564605 -0.103228
C31   C     C_R   0.379333 0.928946 0.533046 0.030468
Cu1   Cu    Cu3+1 0.499990 0.499990 0.640660 0.917203
Cu2   Cu    Cu3+1 0.500010 0.500010 0.359340 0.925286
H1    H     H_    0.914227 0.323477 0.644154 0.109305
H2    H     H_    0.078164 0.521397 0.737938 0.117627
H3    H     H_    0.925832 0.692760 0.591862 0.081637
H4    H     H_    0.084936 0.672596 0.356238 0.109620
H5    H     H_    0.921620 0.472755 0.262949 0.126966
H6    H     H_    0.071638 0.302359 0.407976 0.103335
H7    H     H_    0.689220 0.123552 0.447323 0.113579
H8    H     H_    0.264343 0.219843 0.570756 0.116331
H9    H     H_    0.072283 0.095321 0.625091 0.105012
H10   H     H_    0.762651 0.817133 0.185446 0.087863
H11   H     H_    0.601391 0.780939 0.198586 0.158827
H12   H     H_    0.071501 0.865650 0.622807 0.102198
H13   H     H_    0.716506 0.720665 0.327363 0.152857
H14   H     H_    0.262084 0.758922 0.563716 0.127891
H15   H     H_    0.689936 0.897539 0.449120 0.091898
H16   H     H_    0.332212 0.389899 0.130219 0.118166
H17   H     H_    0.906316 0.666839 0.106547 0.114643
H18   H     H_    0.890888 0.686624 0.856842 0.113106
H19   H     H_    0.685215 0.665843 0.749188 0.175965
H20   H     H_    0.332931 0.388916 0.873857 0.114792
N1    N     N_R   0.501210 0.501210 0.147910 -0.238347
N2    N     N_R   0.501250 0.501290 0.852040 -0.241060
O1    O     O_R   0.499990 0.319640 0.618810 -0.495217
O2    O     O_R   0.500000 0.319660 0.381240 -0.494423
O3    O     O_R   0.316850 0.499960 0.618770 -0.517083
O4    O     O_R   0.316860 0.499980 0.381190 -0.504349
O5    O     O_R   0.500000 0.680340 0.618760 -0.516367
O6    O     O_R   0.500010 0.680360 0.381190 -0.512557
O7    O     O_R   0.683140 0.500020 0.618810 -0.517430
O8    O     O_R   0.683150 0.500040 0.381230 -0.504980

loop_
_geom_bond_atom_site_label_1
_geom_bond_atom_site_label_2
_ccdc_geom_bond_type
C8    C9    A    
C4    C26   S    
C6    C7    A    
C1    O2    A    
C18   C21   S    
C22   H3    S    
C9    C10   A    
C17   N2    A    
Cu1   N2    S    
C19   C20   S    
C20   C23   S    
Cu1   O3    S    
Cu2   O8    S    
C20   H1    S    
Cu1   Cu2   S    
C25   H10   S    
C24   H4    S    
C3    C5    A    
Cu1   O7    S    
Cu2   O4    S    
C19   H2    S    
C21   C22   S    
C8    C25   S    
C11   C13   A    
C12   C23   S    
C2    C27   A    
C5    C6    A    
C6    H15   S    
C23   H6    S    
C10   H18   S    
C25   H13   S    
C4    O4    A    
C28   H9    S    
C28   C29   A    
C14   N1    A    
C1    O1    A    
C24   C26   S    
C2    C3    A    
C15   H16   S    
C12   H5    S    
C30   C31   A    
C22   C24   S    
C18   O8    A    
C23   C26   S    
C7    C31   A    
C16   O6    A    
Cu1   O5    S    
C29   C30   A    
C15   N1    A    
C17   H20   S    
C30   H14   S    
C27   C28   A    
C19   C22   S    
C20   C21   S    
C25   H11   S    
Cu2   O6    S    
C12   C24   S    
C10   C11   A    
C5    H7    S    
C4    O3    A    
Cu2   N1    S    
C15   C17   A    
C19   C26   S    
C27   H8    S    
C7    C16   S    
Cu2   O2    S    
C11   H19   S    
C8    C14   A    
C13   N2    A    
C13   C14   A    
C16   O5    A    
C12   C21   S    
Cu1   O1    S    
C18   O7    A    
C9    H17   S    
C29   H12   S    
C2    C31   A    
C1    C3    S    
